data_1062
_audit_creation_date              2023-09-08
_audit_creation_method            'Materials Studio'
_symmetry_space_group_name_H-M    'P1'
_symmetry_Int_Tables_number       1
_symmetry_cell_setting            triclinic
loop_
_symmetry_equiv_pos_as_xyz
  x,y,z
_cell_length_a                    30.7790
_cell_length_b                    30.7790
_cell_length_c                    4.3310
_cell_angle_alpha                 90.0000
_cell_angle_beta                  90.0000
_cell_angle_gamma                 120.0000
loop_
_atom_site_label
_atom_site_type_symbol
_atom_site_fract_x
_atom_site_fract_y
_atom_site_fract_z
_atom_site_U_iso_or_equiv
_atom_site_adp_type
_atom_site_occupancy
C1     C     0.94662   0.98559   0.55162   0.00000  Uiso   1.00
C2     C     0.87034   0.71970   0.36907   0.00000  Uiso   1.00
C3     C     0.82563   0.70156   0.19536   0.00000  Uiso   1.00
C4     C     0.79036   0.65033   0.19777   0.00000  Uiso   1.00
C5     C     0.79905   0.61578   0.35821   0.00000  Uiso   1.00
C6     C     0.84385   0.63312   0.52839   0.00000  Uiso   1.00
C7     C     0.87877   0.68522   0.53378   0.00000  Uiso   1.00
O8     O     0.85065   0.59740   0.69416   0.00000  Uiso   1.00
C9     C     0.89516   0.61227   0.87117   0.00000  Uiso   1.00
C10    C     0.94006   0.62242   0.66763   0.00000  Uiso   1.00
C11    C     0.98477   0.63162   0.86944   0.00000  Uiso   1.00
O12    O     0.81543   0.73234   0.00765   0.00000  Uiso   1.00
C13    C     0.75966   0.56178   0.35107   0.00000  Uiso   1.00
N14    N     0.77159   0.52464   0.32208   0.00000  Uiso   1.00
O15    O     0.71567   0.55058   0.36588   0.00000  Uiso   1.00
N16    N     0.73376   0.47383   0.32265   0.00000  Uiso   1.00
C17    C     0.74414   0.43787   0.30430   0.00000  Uiso   1.00
C18    C     0.70410   0.38447   0.30521   0.00000  Uiso   1.00
C19    C     0.65303   0.37045   0.30511   0.00000  Uiso   1.00
O20    O     0.95317   0.78608   0.37555   0.00000  Uiso   1.00
N21    N     0.89590   0.80984   0.44090   0.00000  Uiso   1.00
N22    N     0.93298   0.85985   0.49977   0.00000  Uiso   1.00
C23    C     0.92165   0.89448   0.55506   0.00000  Uiso   1.00
C24    C     0.96090   0.94651   0.65751   0.00000  Uiso   1.00
C25    C     0.90891   0.77389   0.38987   0.00000  Uiso   1.00
C26    C     0.03279   0.64824   0.68063   0.00000  Uiso   1.00
C27    C     0.07488   0.65150   0.89332   0.00000  Uiso   1.00
N28    N     0.12604   0.67216   0.75051   0.00000  Uiso   1.00
C29    C     0.16800   0.68166   0.95956   0.00000  Uiso   1.00
H30    H     0.90954   0.97553   0.65324   0.00000  Uiso   1.00
H31    H     0.75634   0.63712   0.06345   0.00000  Uiso   1.00
H32    H     0.88730   0.58049   1.02625   0.00000  Uiso   1.00
H33    H     0.90384   0.64468   1.02211   0.00000  Uiso   1.00
H34    H     0.95081   0.65564   0.51970   0.00000  Uiso   1.00
H35    H     0.92951   0.58938   0.51721   0.00000  Uiso   1.00
H36    H     0.97492   0.59647   0.99651   0.00000  Uiso   1.00
H37    H     0.99218   0.66150   1.04029   0.00000  Uiso   1.00
H38    H     0.84505   0.76682  -0.03076   0.00000  Uiso   1.00
H39    H     0.80892   0.53397   0.29131   0.00000  Uiso   1.00
H40    H     0.78295   0.44690   0.29047   0.00000  Uiso   1.00
H41    H     0.64232   0.39905   0.30462   0.00000  Uiso   1.00
H42    H     0.85804   0.79944   0.45855   0.00000  Uiso   1.00
H43    H     0.88260   0.88476   0.55940   0.00000  Uiso   1.00
H44    H     0.04308   0.68506   0.57705   0.00000  Uiso   1.00
H45    H     0.02459   0.62031   0.49538   0.00000  Uiso   1.00
H46    H     0.05958   0.61201   0.96844   0.00000  Uiso   1.00
H47    H     0.07637   0.67415   1.09031   0.00000  Uiso   1.00
C48    C     0.14134   0.72281   0.62057   0.00000  Uiso   1.00
C49    C     0.12340   0.63207   0.54981   0.00000  Uiso   1.00
H50    H     0.29843   0.50329   0.83786   0.00000  Uiso   1.00
H51    H     0.35332   0.52053   1.02853   0.00000  Uiso   1.00
H52    H     0.29332   0.46569   1.14597   0.00000  Uiso   1.00
H53    H     0.40445   0.51134   0.67461   0.00000  Uiso   1.00
H54    H     0.36181   0.52279   0.48777   0.00000  Uiso   1.00
H55    H     0.37583   0.47457   0.35948   0.00000  Uiso   1.00
H56    H     0.27742   0.39783   0.41733   0.00000  Uiso   1.00
H57    H     0.25459   0.43652   0.56285   0.00000  Uiso   1.00
H58    H     0.25413   0.38951   0.79544   0.00000  Uiso   1.00
H59    H     0.94249   0.98450   0.29751   0.00000  Uiso   1.00
H60    H     0.91263   0.69998   0.66966   0.00000  Uiso   1.00
H61    H     0.96023   0.94568   0.91273   0.00000  Uiso   1.00
C62    C     0.01441   0.96103   0.55162   0.00000  Uiso   1.00
C63    C     0.28030   0.15064   0.36907   0.00000  Uiso   1.00
C64    C     0.29844   0.12407   0.19536   0.00000  Uiso   1.00
C65    C     0.34967   0.14003   0.19777   0.00000  Uiso   1.00
C66    C     0.38422   0.18327   0.35821   0.00000  Uiso   1.00
C67    C     0.36688   0.21073   0.52839   0.00000  Uiso   1.00
C68    C     0.31478   0.19355   0.53378   0.00000  Uiso   1.00
O69    O     0.40260   0.25325   0.69416   0.00000  Uiso   1.00
C70    C     0.38773   0.28289   0.87117   0.00000  Uiso   1.00
C71    C     0.37758   0.31764   0.66763   0.00000  Uiso   1.00
C72    C     0.36838   0.35315   0.86944   0.00000  Uiso   1.00
O73    O     0.26766   0.08309   0.00765   0.00000  Uiso   1.00
C74    C     0.43822   0.19788   0.35107   0.00000  Uiso   1.00
N75    N     0.47536   0.24695   0.32208   0.00000  Uiso   1.00
O76    O     0.44942   0.16509   0.36588   0.00000  Uiso   1.00
N77    N     0.52617   0.25993   0.32265   0.00000  Uiso   1.00
C78    C     0.56213   0.30627   0.30430   0.00000  Uiso   1.00
C79    C     0.61553   0.31963   0.30521   0.00000  Uiso   1.00
C80    C     0.62955   0.28258   0.30511   0.00000  Uiso   1.00
O81    O     0.21392   0.16709   0.37555   0.00000  Uiso   1.00
N82    N     0.19016   0.08606   0.44090   0.00000  Uiso   1.00
N83    N     0.14015   0.07313   0.49977   0.00000  Uiso   1.00
C84    C     0.10552   0.02717   0.55506   0.00000  Uiso   1.00
C85    C     0.05349   0.01439   0.65751   0.00000  Uiso   1.00
C86    C     0.22611   0.13502   0.38987   0.00000  Uiso   1.00
C87    C     0.35176   0.38455   0.68063   0.00000  Uiso   1.00
C88    C     0.34850   0.42338   0.89332   0.00000  Uiso   1.00
N89    N     0.32784   0.45388   0.75051   0.00000  Uiso   1.00
C90    C     0.31834   0.48634   0.95956   0.00000  Uiso   1.00
H91    H     0.02447   0.93401   0.65324   0.00000  Uiso   1.00
H92    H     0.36288   0.11922   0.06345   0.00000  Uiso   1.00
H93    H     0.41951   0.30681   1.02625   0.00000  Uiso   1.00
H94    H     0.35532   0.25916   1.02211   0.00000  Uiso   1.00
H95    H     0.34436   0.29517   0.51970   0.00000  Uiso   1.00
H96    H     0.41062   0.34013   0.51721   0.00000  Uiso   1.00
H97    H     0.40353   0.37845   0.99651   0.00000  Uiso   1.00
H98    H     0.33850   0.33068   1.04029   0.00000  Uiso   1.00
H99    H     0.23318   0.07823  -0.03076   0.00000  Uiso   1.00
H100   H     0.46603   0.27495   0.29131   0.00000  Uiso   1.00
H101   H     0.55310   0.33605   0.29047   0.00000  Uiso   1.00
H102   H     0.60095   0.24327   0.30462   0.00000  Uiso   1.00
H103   H     0.20056   0.05860   0.45855   0.00000  Uiso   1.00
H104   H     0.11524   0.99784   0.55940   0.00000  Uiso   1.00
H105   H     0.31494   0.35802   0.57705   0.00000  Uiso   1.00
H106   H     0.37969   0.40428   0.49538   0.00000  Uiso   1.00
H107   H     0.38799   0.44757   0.96844   0.00000  Uiso   1.00
H108   H     0.32585   0.40222   1.09031   0.00000  Uiso   1.00
C109   C     0.27719   0.41853   0.62057   0.00000  Uiso   1.00
C110   C     0.36793   0.49133   0.54981   0.00000  Uiso   1.00
H111   H     0.49671   0.79514   0.83786   0.00000  Uiso   1.00
H112   H     0.47947   0.83279   1.02853   0.00000  Uiso   1.00
H113   H     0.53431   0.82763   1.14597   0.00000  Uiso   1.00
H114   H     0.48866   0.89311   0.67461   0.00000  Uiso   1.00
H115   H     0.47721   0.83902   0.48777   0.00000  Uiso   1.00
H116   H     0.52543   0.90126   0.35948   0.00000  Uiso   1.00
H117   H     0.60217   0.87959   0.41733   0.00000  Uiso   1.00
H118   H     0.56348   0.81807   0.56285   0.00000  Uiso   1.00
H119   H     0.61049   0.86462   0.79544   0.00000  Uiso   1.00
H120   H     0.01550   0.95799   0.29751   0.00000  Uiso   1.00
H121   H     0.30002   0.21265   0.66966   0.00000  Uiso   1.00
H122   H     0.05432   0.01455   0.91273   0.00000  Uiso   1.00
C123   C     0.03897   0.05338   0.55162   0.00000  Uiso   1.00
C124   C     0.84936   0.12966   0.36907   0.00000  Uiso   1.00
C125   C     0.87593   0.17437   0.19536   0.00000  Uiso   1.00
C126   C     0.85997   0.20964   0.19777   0.00000  Uiso   1.00
C127   C     0.81673   0.20095   0.35821   0.00000  Uiso   1.00
C128   C     0.78927   0.15615   0.52839   0.00000  Uiso   1.00
C129   C     0.80645   0.12123   0.53378   0.00000  Uiso   1.00
O130   O     0.74675   0.14935   0.69416   0.00000  Uiso   1.00
C131   C     0.71711   0.10484   0.87117   0.00000  Uiso   1.00
C132   C     0.68236   0.05994   0.66763   0.00000  Uiso   1.00
C133   C     0.64685   0.01523   0.86944   0.00000  Uiso   1.00
O134   O     0.91691   0.18457   0.00765   0.00000  Uiso   1.00
C135   C     0.80212   0.24034   0.35107   0.00000  Uiso   1.00
N136   N     0.75305   0.22841   0.32208   0.00000  Uiso   1.00
O137   O     0.83491   0.28433   0.36588   0.00000  Uiso   1.00
N138   N     0.74007   0.26624   0.32265   0.00000  Uiso   1.00
C139   C     0.69373   0.25586   0.30430   0.00000  Uiso   1.00
C140   C     0.68037   0.29590   0.30521   0.00000  Uiso   1.00
C141   C     0.71742   0.34697   0.30511   0.00000  Uiso   1.00
O142   O     0.83291   0.04683   0.37555   0.00000  Uiso   1.00
N143   N     0.91394   0.10410   0.44090   0.00000  Uiso   1.00
N144   N     0.92687   0.06702   0.49977   0.00000  Uiso   1.00
C145   C     0.97283   0.07835   0.55506   0.00000  Uiso   1.00
C146   C     0.98561   0.03910   0.65751   0.00000  Uiso   1.00
C147   C     0.86498   0.09109   0.38987   0.00000  Uiso   1.00
C148   C     0.61545   0.96721   0.68063   0.00000  Uiso   1.00
C149   C     0.57662   0.92512   0.89332   0.00000  Uiso   1.00
N150   N     0.54612   0.87396   0.75051   0.00000  Uiso   1.00
C151   C     0.51366   0.83200   0.95956   0.00000  Uiso   1.00
H152   H     0.06599   0.09046   0.65324   0.00000  Uiso   1.00
H153   H     0.88078   0.24366   0.06345   0.00000  Uiso   1.00
H154   H     0.69319   0.11270   1.02625   0.00000  Uiso   1.00
H155   H     0.74084   0.09616   1.02211   0.00000  Uiso   1.00
H156   H     0.70483   0.04919   0.51970   0.00000  Uiso   1.00
H157   H     0.65987   0.07049   0.51721   0.00000  Uiso   1.00
H158   H     0.62155   0.02508   0.99651   0.00000  Uiso   1.00
H159   H     0.66932   0.00782   1.04029   0.00000  Uiso   1.00
H160   H     0.92177   0.15495  -0.03076   0.00000  Uiso   1.00
H161   H     0.72505   0.19108   0.29131   0.00000  Uiso   1.00
H162   H     0.66395   0.21705   0.29047   0.00000  Uiso   1.00
H163   H     0.75673   0.35768   0.30462   0.00000  Uiso   1.00
H164   H     0.94140   0.14196   0.45855   0.00000  Uiso   1.00
H165   H     0.00216   0.11740   0.55940   0.00000  Uiso   1.00
H166   H     0.64198   0.95692   0.57705   0.00000  Uiso   1.00
H167   H     0.59572   0.97541   0.49538   0.00000  Uiso   1.00
H168   H     0.55243   0.94042   0.96844   0.00000  Uiso   1.00
H169   H     0.59778   0.92363   1.09031   0.00000  Uiso   1.00
C170   C     0.58147   0.85866   0.62057   0.00000  Uiso   1.00
C171   C     0.50867   0.87660   0.54981   0.00000  Uiso   1.00
H172   H     0.20486   0.70157   0.83786   0.00000  Uiso   1.00
H173   H     0.16721   0.64668   1.02853   0.00000  Uiso   1.00
H174   H     0.17237   0.70668   1.14597   0.00000  Uiso   1.00
H175   H     0.10689   0.59555   0.67461   0.00000  Uiso   1.00
H176   H     0.16098   0.63819   0.48777   0.00000  Uiso   1.00
H177   H     0.09874   0.62417   0.35948   0.00000  Uiso   1.00
H178   H     0.12041   0.72258   0.41733   0.00000  Uiso   1.00
H179   H     0.18193   0.74541   0.56285   0.00000  Uiso   1.00
H180   H     0.13538   0.74587   0.79544   0.00000  Uiso   1.00
H181   H     0.04201   0.05751   0.29751   0.00000  Uiso   1.00
H182   H     0.78735   0.08737   0.66966   0.00000  Uiso   1.00
H183   H     0.98545   0.03977   0.91273   0.00000  Uiso   1.00
loop_
_geom_bond_atom_site_label_1
_geom_bond_atom_site_label_2
_geom_bond_distance
_geom_bond_site_symmetry_2
_ccdc_geom_bond_type
C1     C24     1.542   .     S
C1     H30     1.113   .     S
C1     H59     1.106   .     S
C1     C146    1.545   1_565 S
C2     C3      1.415   .     S
C2     C7      1.406   .     D
C2     C25     1.490   .     S
C3     C4      1.398   .     D
C3     O12     1.398   .     S
C4     C5      1.403   .     S
C4     H31     1.084   .     S
C5     C6      1.412   .     D
C5     C13     1.489   .     S
C6     C7      1.416   .     S
C6     O8      1.414   .     S
C7     H60     1.080   .     S
O8     C9      1.431   .     S
C9     C10     1.534   .     S
C9     H32     1.109   .     S
C9     H33     1.108   .     S
C10    C11     1.532   .     S
C10    H34     1.108   .     S
C10    H35     1.111   .     S
C11    H36     1.112   .     S
C11    H37     1.112   .     S
C11    C26     1.536   1_655 S
O12    H38     1.009   .     S
C13    N14     1.370   .     S
C13    O15     1.220   .     D
N14    N16     1.407   .     S
N14    H39     1.044   .     S
N16    C17     1.299   .     D
C17    C18     1.481   .     S
C17    H40     1.084   .     S
C18    C19     1.407   .     S
C18    C141    1.405   .     D
C19    H41     1.083   .     S
C19    C79     1.405   .     D
O20    C25     1.220   .     D
N21    N22     1.407   .     S
N21    C25     1.370   .     S
N21    H42     1.046   .     S
N22    C23     1.299   .     D
C23    C24     1.512   .     S
C23    H43     1.084   .     S
C24    H61     1.106   .     S
C24    C62     1.545   1_655 S
C26    C27     1.551   .     S
C26    H44     1.108   .     S
C26    H45     1.109   .     S
C26    C11     1.536   1_455 S
C27    N28     1.505   .     S
C27    H46     1.110   .     S
C27    H47     1.088   .     S
N28    C29     1.482   .     S
N28    C48     1.495   .     S
N28    C49     1.478   .     S
C29    H174    1.077   .     S
C29    H172    1.116   .     S
C29    H173    1.106   .     S
C48    H179    1.113   .     S
C48    H180    1.114   .     S
C48    H178    1.089   .     S
C49    H175    1.115   .     S
C49    H176    1.108   .     S
C49    H177    1.063   .     S
H50    C90     1.116   .     S
H51    C90     1.106   .     S
H52    C90     1.077   .     S
H53    C110    1.115   .     S
H54    C110    1.108   .     S
H55    C110    1.063   .     S
H56    C109    1.089   .     S
H57    C109    1.113   .     S
H58    C109    1.114   .     S
C62    H91     1.113   .     S
C62    H120    1.106   .     S
C62    C24     1.545   1_455 S
C62    C85     1.542   1_565 S
C63    C64     1.415   .     S
C63    C68     1.406   .     D
C63    C86     1.490   .     S
C64    C65     1.398   .     D
C64    O73     1.398   .     S
C65    C66     1.403   .     S
C65    H92     1.084   .     S
C66    C67     1.412   .     D
C66    C74     1.489   .     S
C67    C68     1.416   .     S
C67    O69     1.414   .     S
C68    H121    1.080   .     S
O69    C70     1.431   .     S
C70    C71     1.534   .     S
C70    H93     1.109   .     S
C70    H94     1.108   .     S
C71    C72     1.532   .     S
C71    H95     1.108   .     S
C71    H96     1.111   .     S
C72    C87     1.536   .     S
C72    H97     1.112   .     S
C72    H98     1.112   .     S
O73    H99     1.009   .     S
C74    N75     1.370   .     S
C74    O76     1.220   .     D
N75    N77     1.407   .     S
N75    H100    1.044   .     S
N77    C78     1.299   .     D
C78    C79     1.481   .     S
C78    H101    1.084   .     S
C79    C80     1.407   .     S
C80    H102    1.083   .     S
C80    C140    1.405   .     D
O81    C86     1.220   .     D
N82    N83     1.407   .     S
N82    C86     1.370   .     S
N82    H103    1.046   .     S
N83    C84     1.299   .     D
C84    C85     1.512   .     S
C84    H104    1.084   1_545 S
C85    H122    1.106   .     S
C85    C123    1.545   .     S
C85    C62     1.542   1_545 S
C87    C88     1.551   .     S
C87    H105    1.108   .     S
C87    H106    1.109   .     S
C88    N89     1.505   .     S
C88    H107    1.110   .     S
C88    H108    1.088   .     S
N89    C90     1.482   .     S
N89    C109    1.495   .     S
N89    C110    1.478   .     S
H104   C84     1.084   1_565 S
H111   C151    1.116   .     S
H112   C151    1.106   .     S
H113   C151    1.077   .     S
H114   C171    1.115   .     S
H115   C171    1.108   .     S
H116   C171    1.063   .     S
H117   C170    1.089   .     S
H118   C170    1.113   .     S
H119   C170    1.114   .     S
C123   H152    1.113   .     S
C123   H181    1.106   .     S
C123   C146    1.542   1_455 S
C124   C125    1.415   .     S
C124   C129    1.406   .     D
C124   C147    1.490   .     S
C125   C126    1.398   .     D
C125   O134    1.398   .     S
C126   C127    1.403   .     S
C126   H153    1.084   .     S
C127   C128    1.412   .     D
C127   C135    1.489   .     S
C128   C129    1.416   .     S
C128   O130    1.414   .     S
C129   H182    1.080   .     S
O130   C131    1.431   .     S
C131   C132    1.534   .     S
C131   H154    1.109   .     S
C131   H155    1.108   .     S
C132   C133    1.532   .     S
C132   H156    1.108   .     S
C132   H157    1.111   .     S
C133   H158    1.112   .     S
C133   H159    1.112   .     S
C133   C148    1.536   1_545 S
O134   H160    1.009   .     S
C135   N136    1.370   .     S
C135   O137    1.220   .     D
N136   N138    1.407   .     S
N136   H161    1.044   .     S
N138   C139    1.299   .     D
C139   C140    1.481   .     S
C139   H162    1.084   .     S
C140   C141    1.407   .     S
C141   H163    1.083   .     S
O142   C147    1.220   .     D
N143   N144    1.407   .     S
N143   C147    1.370   .     S
N143   H164    1.046   .     S
N144   C145    1.299   .     D
C145   C146    1.512   .     S
C145   H165    1.084   1_655 S
C146   H183    1.106   .     S
C146   C1      1.545   1_545 S
C146   C123    1.542   1_655 S
C148   C149    1.551   .     S
C148   H166    1.108   .     S
C148   H167    1.109   .     S
C148   C133    1.536   1_565 S
C149   N150    1.505   .     S
C149   H168    1.110   .     S
C149   H169    1.088   .     S
N150   C151    1.482   .     S
N150   C170    1.495   .     S
N150   C171    1.478   .     S
H165   C145    1.084   1_455 S
