data_1063
_audit_creation_date              2023-09-08
_audit_creation_method            'Materials Studio'
_symmetry_space_group_name_H-M    'P1'
_symmetry_Int_Tables_number       1
_symmetry_cell_setting            triclinic
loop_
_symmetry_equiv_pos_as_xyz
  x,y,z
_cell_length_a                    23.2830
_cell_length_b                    23.2830
_cell_length_c                    3.4370
_cell_angle_alpha                 90.0000
_cell_angle_beta                  90.0000
_cell_angle_gamma                 120.0000
loop_
_atom_site_label
_atom_site_type_symbol
_atom_site_fract_x
_atom_site_fract_y
_atom_site_fract_z
_atom_site_U_iso_or_equiv
_atom_site_adp_type
_atom_site_occupancy
N1     N     0.04130   0.06666   0.80789   0.00000  Uiso   1.00
C2     C     0.06689   0.02538   0.80789   0.00000  Uiso   1.00
C3     C     0.13899   0.05185   0.80789   0.00000  Uiso   1.00
C4     C     0.18240   0.11671   0.80789   0.00000  Uiso   1.00
C5     C     0.25522   0.14571   0.80789   0.00000  Uiso   1.00
C6     C     0.29409   0.21497   0.80789   0.00000  Uiso   1.00
C7     C     0.36334   0.24617   0.80789   0.00000  Uiso   1.00
C8     C     0.39465   0.20832   0.80789   0.00000  Uiso   1.00
C9     C     0.35644   0.13912   0.80789   0.00000  Uiso   1.00
C10    C     0.28705   0.10756   0.80789   0.00000  Uiso   1.00
C11    C     0.46597   0.24062   0.80789   0.00000  Uiso   1.00
C12    C     0.52586   0.26810   0.80789   0.00000  Uiso   1.00
C13    C     0.59722   0.30114   0.80789   0.00000  Uiso   1.00
C14    C     0.63453   0.37052   0.80789   0.00000  Uiso   1.00
F15    F     0.78851   0.74816   0.80789   0.00000  Uiso   1.00
H16    H     0.15950   0.01648   0.80789   0.00000  Uiso   1.00
H17    H     0.16405   0.15385   0.80789   0.00000  Uiso   1.00
H18    H     0.26866   0.24599   0.80789   0.00000  Uiso   1.00
H19    H     0.39435   0.30262   0.80789   0.00000  Uiso   1.00
H20    H     0.38171   0.10796   0.80789   0.00000  Uiso   1.00
H21    H     0.60843   0.40090   0.80789   0.00000  Uiso   1.00
N22    N     0.93334   0.97464   0.80789   0.00000  Uiso   1.00
C23    C     0.97462   0.04151   0.80789   0.00000  Uiso   1.00
C24    C     0.94815   0.08714   0.80789   0.00000  Uiso   1.00
C25    C     0.88329   0.06569   0.80789   0.00000  Uiso   1.00
C26    C     0.85429   0.10951   0.80789   0.00000  Uiso   1.00
C27    C     0.78503   0.07912   0.80789   0.00000  Uiso   1.00
C28    C     0.75383   0.11717   0.80789   0.00000  Uiso   1.00
C29    C     0.79168   0.18633   0.80789   0.00000  Uiso   1.00
C30    C     0.86088   0.21732   0.80789   0.00000  Uiso   1.00
C31    C     0.89244   0.17949   0.80789   0.00000  Uiso   1.00
C32    C     0.75938   0.22535   0.80789   0.00000  Uiso   1.00
C33    C     0.73190   0.25776   0.80789   0.00000  Uiso   1.00
C34    C     0.69886   0.29608   0.80789   0.00000  Uiso   1.00
C35    C     0.62948   0.26401   0.80789   0.00000  Uiso   1.00
F36    F     0.25184   0.04035   0.80789   0.00000  Uiso   1.00
H37    H     0.98352   0.14302   0.80789   0.00000  Uiso   1.00
H38    H     0.84615   0.01020   0.80789   0.00000  Uiso   1.00
H39    H     0.75401   0.02267   0.80789   0.00000  Uiso   1.00
H40    H     0.69738   0.09173   0.80789   0.00000  Uiso   1.00
H41    H     0.89204   0.27375   0.80789   0.00000  Uiso   1.00
H42    H     0.59910   0.20753   0.80789   0.00000  Uiso   1.00
N43    N     0.02536   0.95870   0.80789   0.00000  Uiso   1.00
C44    C     0.95849   0.93311   0.80789   0.00000  Uiso   1.00
C45    C     0.91286   0.86101   0.80789   0.00000  Uiso   1.00
C46    C     0.93431   0.81760   0.80789   0.00000  Uiso   1.00
C47    C     0.89049   0.74478   0.80789   0.00000  Uiso   1.00
C48    C     0.92088   0.70591   0.80789   0.00000  Uiso   1.00
C49    C     0.88283   0.63666   0.80789   0.00000  Uiso   1.00
C50    C     0.81367   0.60535   0.80789   0.00000  Uiso   1.00
C51    C     0.78268   0.64356   0.80789   0.00000  Uiso   1.00
C52    C     0.82051   0.71295   0.80789   0.00000  Uiso   1.00
C53    C     0.77465   0.53403   0.80789   0.00000  Uiso   1.00
C54    C     0.74224   0.47414   0.80789   0.00000  Uiso   1.00
C55    C     0.70392   0.40278   0.80789   0.00000  Uiso   1.00
C56    C     0.73599   0.36547   0.80789   0.00000  Uiso   1.00
F57    F     0.95965   0.21149   0.80789   0.00000  Uiso   1.00
H58    H     0.85698   0.84050   0.80789   0.00000  Uiso   1.00
H59    H     0.98980   0.83595   0.80789   0.00000  Uiso   1.00
H60    H     0.97733   0.73134   0.80789   0.00000  Uiso   1.00
H61    H     0.90827   0.60565   0.80789   0.00000  Uiso   1.00
H62    H     0.72625   0.61829   0.80789   0.00000  Uiso   1.00
H63    H     0.79247   0.39157   0.80789   0.00000  Uiso   1.00
loop_
_geom_bond_atom_site_label_1
_geom_bond_atom_site_label_2
_geom_bond_distance
_geom_bond_site_symmetry_2
_ccdc_geom_bond_type
N1     C2      1.361   .     S
N1     C23     1.358   1_455 D
C2     C3      1.471   .     S
C2     N43     1.358   1_545 D
C3     C4      1.333   .     D
C3     H16     1.140   .     S
C4     C5      1.478   .     S
C4     H17     1.140   .     S
C5     C6      1.400   .     D
C5     C10     1.413   .     S
C6     C7      1.399   .     S
C6     H18     1.140   .     S
C7     C8      1.397   .     D
C7     H19     1.140   .     S
C8     C9      1.398   .     S
C8     C11     1.440   .     S
C9     C10     1.401   .     D
C9     H20     1.140   .     S
C10    F36     1.356   .     S
C11    C12     1.209   .     T
C12    C13     1.440   .     S
C13    C14     1.400   .     D
C13    C35     1.400   .     S
C14    H21     1.140   .     S
C14    C55     1.400   .     S
F15    C52     1.356   .     S
N22    C44     1.358   .     D
N22    C23     1.361   1_565 S
C23    C24     1.471   .     S
C23    N1      1.358   1_655 D
C23    N22     1.361   1_545 S
C24    C25     1.333   .     D
C24    H37     1.140   .     S
C25    C26     1.478   .     S
C25    H38     1.140   .     S
C26    C27     1.400   .     D
C26    C31     1.413   .     S
C27    C28     1.399   .     S
C27    H39     1.140   .     S
C28    C29     1.397   .     D
C28    H40     1.140   .     S
C29    C30     1.398   .     S
C29    C32     1.440   .     S
C30    C31     1.401   .     D
C30    H41     1.140   .     S
C31    F57     1.356   .     S
C32    C33     1.209   .     T
C33    C34     1.440   .     S
C34    C35     1.400   .     D
C34    C56     1.400   .     S
C35    H42     1.140   .     S
N43    C2      1.358   1_565 D
N43    C44     1.361   1_455 S
C44    C45     1.471   .     S
C44    N43     1.361   1_655 S
C45    C46     1.333   .     D
C45    H58     1.140   .     S
C46    C47     1.478   .     S
C46    H59     1.140   .     S
C47    C48     1.400   .     D
C47    C52     1.413   .     S
C48    C49     1.399   .     S
C48    H60     1.140   .     S
C49    C50     1.397   .     D
C49    H61     1.140   .     S
C50    C51     1.398   .     S
C50    C53     1.440   .     S
C51    C52     1.401   .     D
C51    H62     1.140   .     S
C53    C54     1.209   .     T
C54    C55     1.440   .     S
C55    C56     1.400   .     D
C56    H63     1.140   .     S
