data_1064
_audit_creation_date              2023-09-08
_audit_creation_method            'Materials Studio'
_symmetry_space_group_name_H-M    'P1'
_symmetry_Int_Tables_number       1
_symmetry_cell_setting            triclinic
loop_
_symmetry_equiv_pos_as_xyz
  x,y,z
_cell_length_a                    23.2840
_cell_length_b                    23.2840
_cell_length_c                    3.4420
_cell_angle_alpha                 90.0000
_cell_angle_beta                  90.0000
_cell_angle_gamma                 120.0000
loop_
_atom_site_label
_atom_site_type_symbol
_atom_site_fract_x
_atom_site_fract_y
_atom_site_fract_z
_atom_site_U_iso_or_equiv
_atom_site_adp_type
_atom_site_occupancy
N1     N     0.04210   0.06649   0.80789   0.00000  Uiso   1.00
C2     C     0.06670   0.02441   0.80789   0.00000  Uiso   1.00
C3     C     0.13853   0.04980   0.80789   0.00000  Uiso   1.00
C4     C     0.18263   0.11442   0.80789   0.00000  Uiso   1.00
C5     C     0.25542   0.14293   0.80789   0.00000  Uiso   1.00
C6     C     0.29380   0.21223   0.80789   0.00000  Uiso   1.00
C7     C     0.36296   0.24414   0.80789   0.00000  Uiso   1.00
C8     C     0.39487   0.20700   0.80789   0.00000  Uiso   1.00
C9     C     0.35739   0.13786   0.80789   0.00000  Uiso   1.00
C10    C     0.28739   0.10467   0.80789   0.00000  Uiso   1.00
C11    C     0.46613   0.23986   0.80789   0.00000  Uiso   1.00
C12    C     0.52598   0.26765   0.80789   0.00000  Uiso   1.00
C13    C     0.59726   0.30092   0.80789   0.00000  Uiso   1.00
C14    C     0.63429   0.37028   0.80789   0.00000  Uiso   1.00
O15    O     0.78590   0.75092   0.80789   0.00000  Uiso   1.00
C16    C     0.71529   0.71491   0.80789   0.00000  Uiso   1.00
H17    H     0.15823   0.01376   0.80789   0.00000  Uiso   1.00
H18    H     0.16507   0.15218   0.80789   0.00000  Uiso   1.00
H19    H     0.26774   0.24264   0.80789   0.00000  Uiso   1.00
H20    H     0.39338   0.30062   0.80789   0.00000  Uiso   1.00
H21    H     0.38325   0.10725   0.80789   0.00000  Uiso   1.00
H22    H     0.60796   0.40044   0.80789   0.00000  Uiso   1.00
H23    H     0.69704   0.66101   0.88872   0.00000  Uiso   1.00
H24    H     0.69628   0.71716   0.50625   0.00000  Uiso   1.00
H25    H     0.69600   0.73772   1.02869   0.00000  Uiso   1.00
N26    N     0.93351   0.97561   0.80789   0.00000  Uiso   1.00
C27    C     0.97559   0.04229   0.80789   0.00000  Uiso   1.00
C28    C     0.95020   0.08873   0.80789   0.00000  Uiso   1.00
C29    C     0.88558   0.06821   0.80789   0.00000  Uiso   1.00
C30    C     0.85707   0.11249   0.80789   0.00000  Uiso   1.00
C31    C     0.78777   0.08157   0.80789   0.00000  Uiso   1.00
C32    C     0.75586   0.11882   0.80789   0.00000  Uiso   1.00
C33    C     0.79300   0.18787   0.80789   0.00000  Uiso   1.00
C34    C     0.86214   0.21953   0.80789   0.00000  Uiso   1.00
C35    C     0.89533   0.18272   0.80789   0.00000  Uiso   1.00
C36    C     0.76014   0.22627   0.80789   0.00000  Uiso   1.00
C37    C     0.73235   0.25833   0.80789   0.00000  Uiso   1.00
C38    C     0.69908   0.29634   0.80789   0.00000  Uiso   1.00
C39    C     0.62972   0.26401   0.80789   0.00000  Uiso   1.00
O40    O     0.24908   0.03498   0.80789   0.00000  Uiso   1.00
C41    C     0.28509   0.00038   0.80789   0.00000  Uiso   1.00
H42    H     0.98624   0.14447   0.80789   0.00000  Uiso   1.00
H43    H     0.84782   0.01289   0.80789   0.00000  Uiso   1.00
H44    H     0.75736   0.02510   0.80789   0.00000  Uiso   1.00
H45    H     0.69938   0.09276   0.80789   0.00000  Uiso   1.00
H46    H     0.89275   0.27600   0.80789   0.00000  Uiso   1.00
H47    H     0.59956   0.20752   0.80789   0.00000  Uiso   1.00
H48    H     0.33899   0.03603   0.88872   0.00000  Uiso   1.00
H49    H     0.28284   0.97912   0.50625   0.00000  Uiso   1.00
H50    H     0.26228   0.95828   1.02869   0.00000  Uiso   1.00
N51    N     0.02439   0.95790   0.80789   0.00000  Uiso   1.00
C52    C     0.95771   0.93330   0.80789   0.00000  Uiso   1.00
C53    C     0.91127   0.86147   0.80789   0.00000  Uiso   1.00
C54    C     0.93179   0.81737   0.80789   0.00000  Uiso   1.00
C55    C     0.88751   0.74458   0.80789   0.00000  Uiso   1.00
C56    C     0.91843   0.70620   0.80789   0.00000  Uiso   1.00
C57    C     0.88118   0.63704   0.80789   0.00000  Uiso   1.00
C58    C     0.81213   0.60513   0.80789   0.00000  Uiso   1.00
C59    C     0.78047   0.64261   0.80789   0.00000  Uiso   1.00
C60    C     0.81728   0.71261   0.80789   0.00000  Uiso   1.00
C61    C     0.77373   0.53387   0.80789   0.00000  Uiso   1.00
C62    C     0.74167   0.47402   0.80789   0.00000  Uiso   1.00
C63    C     0.70366   0.40274   0.80789   0.00000  Uiso   1.00
C64    C     0.73599   0.36571   0.80789   0.00000  Uiso   1.00
O65    O     0.96502   0.21410   0.80789   0.00000  Uiso   1.00
C66    C     0.99962   0.28471   0.80789   0.00000  Uiso   1.00
H67    H     0.85553   0.84177   0.80789   0.00000  Uiso   1.00
H68    H     0.98711   0.83493   0.80789   0.00000  Uiso   1.00
H69    H     0.97490   0.73226   0.80789   0.00000  Uiso   1.00
H70    H     0.90724   0.60662   0.80789   0.00000  Uiso   1.00
H71    H     0.72400   0.61675   0.80789   0.00000  Uiso   1.00
H72    H     0.79248   0.39204   0.80789   0.00000  Uiso   1.00
H73    H     0.96397   0.30296   0.88872   0.00000  Uiso   1.00
H74    H     0.02088   0.30372   0.50625   0.00000  Uiso   1.00
H75    H     0.04172   0.30400   1.02869   0.00000  Uiso   1.00
loop_
_geom_bond_atom_site_label_1
_geom_bond_atom_site_label_2
_geom_bond_distance
_geom_bond_site_symmetry_2
_ccdc_geom_bond_type
N1     C2      1.360   .     S
N1     C27     1.358   1_455 D
C2     C3      1.469   .     S
C2     N51     1.358   1_545 D
C3     C4      1.332   .     D
C3     H17     1.140   .     S
C4     C5      1.479   .     S
C4     H18     1.140   .     S
C5     C6      1.400   .     D
C5     C10     1.418   .     S
C6     C7      1.396   .     S
C6     H19     1.140   .     S
C7     C8      1.394   .     D
C7     H20     1.140   .     S
C8     C9      1.396   .     S
C8     C11     1.438   .     S
C9     C10     1.412   .     D
C9     H21     1.140   .     S
C10    O40     1.408   .     S
C11    C12     1.208   .     T
C12    C13     1.438   .     S
C13    C14     1.400   .     D
C13    C39     1.400   .     S
C14    H22     1.140   .     S
C14    C63     1.400   .     S
O15    C16     1.424   .     S
O15    C60     1.408   .     S
C16    H23     1.140   .     S
C16    H24     1.140   .     S
C16    H25     1.140   .     S
N26    C52     1.358   .     D
N26    C27     1.360   1_565 S
C27    C28     1.469   .     S
C27    N1      1.358   1_655 D
C27    N26     1.360   1_545 S
C28    C29     1.332   .     D
C28    H42     1.140   .     S
C29    C30     1.479   .     S
C29    H43     1.140   .     S
C30    C31     1.400   .     D
C30    C35     1.418   .     S
C31    C32     1.396   .     S
C31    H44     1.140   .     S
C32    C33     1.394   .     D
C32    H45     1.140   .     S
C33    C34     1.396   .     S
C33    C36     1.438   .     S
C34    C35     1.412   .     D
C34    H46     1.140   .     S
C35    O65     1.408   .     S
C36    C37     1.208   .     T
C37    C38     1.438   .     S
C38    C39     1.400   .     D
C38    C64     1.400   .     S
C39    H47     1.140   .     S
O40    C41     1.424   .     S
C41    H48     1.140   .     S
C41    H49     1.140   1_545 S
C41    H50     1.140   1_545 S
H49    C41     1.140   1_565 S
H50    C41     1.140   1_565 S
N51    C2      1.358   1_565 D
N51    C52     1.360   1_455 S
C52    C53     1.469   .     S
C52    N51     1.360   1_655 S
C53    C54     1.332   .     D
C53    H67     1.140   .     S
C54    C55     1.479   .     S
C54    H68     1.140   .     S
C55    C56     1.400   .     D
C55    C60     1.418   .     S
C56    C57     1.396   .     S
C56    H69     1.140   .     S
C57    C58     1.394   .     D
C57    H70     1.140   .     S
C58    C59     1.396   .     S
C58    C61     1.438   .     S
C59    C60     1.412   .     D
C59    H71     1.140   .     S
C61    C62     1.208   .     T
C62    C63     1.438   .     S
C63    C64     1.400   .     D
C64    H72     1.140   .     S
O65    C66     1.424   .     S
C66    H73     1.140   .     S
C66    H74     1.140   1_655 S
C66    H75     1.140   1_655 S
H74    C66     1.140   1_455 S
H75    C66     1.140   1_455 S
