data_1065
_audit_creation_date              2023-09-08
_audit_creation_method            'Materials Studio'
_symmetry_space_group_name_H-M    'P1'
_symmetry_Int_Tables_number       1
_symmetry_cell_setting            triclinic
loop_
_symmetry_equiv_pos_as_xyz
  x,y,z
_cell_length_a                    23.2820
_cell_length_b                    23.2820
_cell_length_c                    3.4350
_cell_angle_alpha                 90.0000
_cell_angle_beta                  90.0000
_cell_angle_gamma                 120.0000
loop_
_atom_site_label
_atom_site_type_symbol
_atom_site_fract_x
_atom_site_fract_y
_atom_site_fract_z
_atom_site_U_iso_or_equiv
_atom_site_adp_type
_atom_site_occupancy
N1     N     0.04008   0.06688   0.80788   0.00000  Uiso   1.00
C2     C     0.06717   0.02685   0.80788   0.00000  Uiso   1.00
C3     C     0.13969   0.05495   0.80788   0.00000  Uiso   1.00
C4     C     0.18208   0.12017   0.80788   0.00000  Uiso   1.00
C5     C     0.25487   0.14968   0.80788   0.00000  Uiso   1.00
C6     C     0.29459   0.21887   0.80788   0.00000  Uiso   1.00
C7     C     0.36384   0.24895   0.80788   0.00000  Uiso   1.00
C8     C     0.39419   0.21011   0.80788   0.00000  Uiso   1.00
C9     C     0.35481   0.14087   0.80788   0.00000  Uiso   1.00
C10    C     0.28544   0.11073   0.80788   0.00000  Uiso   1.00
C11    C     0.46563   0.24154   0.80788   0.00000  Uiso   1.00
C12    C     0.52560   0.26859   0.80788   0.00000  Uiso   1.00
C13    C     0.59712   0.30137   0.80788   0.00000  Uiso   1.00
C14    C     0.63481   0.37081   0.80788   0.00000  Uiso   1.00
H15    H     0.16141   0.02061   0.80788   0.00000  Uiso   1.00
H16    H     0.16259   0.15638   0.80788   0.00000  Uiso   1.00
H17    H     0.27009   0.25075   0.80788   0.00000  Uiso   1.00
H18    H     0.39572   0.30533   0.80788   0.00000  Uiso   1.00
H19    H     0.37912   0.10881   0.80788   0.00000  Uiso   1.00
H20    H     0.25356   0.05435   0.80788   0.00000  Uiso   1.00
H21    H     0.60899   0.40147   0.80788   0.00000  Uiso   1.00
N22    N     0.93312   0.97320   0.80788   0.00000  Uiso   1.00
C23    C     0.97315   0.04032   0.80788   0.00000  Uiso   1.00
C24    C     0.94505   0.08474   0.80788   0.00000  Uiso   1.00
C25    C     0.87983   0.06191   0.80788   0.00000  Uiso   1.00
C26    C     0.85032   0.10519   0.80788   0.00000  Uiso   1.00
C27    C     0.78113   0.07572   0.80788   0.00000  Uiso   1.00
C28    C     0.75105   0.11489   0.80788   0.00000  Uiso   1.00
C29    C     0.78989   0.18408   0.80788   0.00000  Uiso   1.00
C30    C     0.85913   0.21394   0.80788   0.00000  Uiso   1.00
C31    C     0.88927   0.17471   0.80788   0.00000  Uiso   1.00
C32    C     0.75846   0.22409   0.80788   0.00000  Uiso   1.00
C33    C     0.73141   0.25701   0.80788   0.00000  Uiso   1.00
C34    C     0.69863   0.29575   0.80788   0.00000  Uiso   1.00
C35    C     0.62919   0.26400   0.80788   0.00000  Uiso   1.00
H36    H     0.97939   0.14080   0.80788   0.00000  Uiso   1.00
H37    H     0.84362   0.00621   0.80788   0.00000  Uiso   1.00
H38    H     0.74925   0.01934   0.80788   0.00000  Uiso   1.00
H39    H     0.69467   0.09039   0.80788   0.00000  Uiso   1.00
H40    H     0.89119   0.27031   0.80788   0.00000  Uiso   1.00
H41    H     0.94565   0.19921   0.80788   0.00000  Uiso   1.00
H42    H     0.59853   0.20752   0.80788   0.00000  Uiso   1.00
N43    N     0.02680   0.95992   0.80788   0.00000  Uiso   1.00
C44    C     0.95968   0.93283   0.80788   0.00000  Uiso   1.00
C45    C     0.91526   0.86031   0.80788   0.00000  Uiso   1.00
C46    C     0.93809   0.81792   0.80788   0.00000  Uiso   1.00
C47    C     0.89481   0.74513   0.80788   0.00000  Uiso   1.00
C48    C     0.92428   0.70541   0.80788   0.00000  Uiso   1.00
C49    C     0.88511   0.63616   0.80788   0.00000  Uiso   1.00
C50    C     0.81592   0.60581   0.80788   0.00000  Uiso   1.00
C51    C     0.78606   0.64519   0.80788   0.00000  Uiso   1.00
C52    C     0.82529   0.71456   0.80788   0.00000  Uiso   1.00
C53    C     0.77591   0.53437   0.80788   0.00000  Uiso   1.00
C54    C     0.74299   0.47440   0.80788   0.00000  Uiso   1.00
C55    C     0.70425   0.40288   0.80788   0.00000  Uiso   1.00
C56    C     0.73600   0.36519   0.80788   0.00000  Uiso   1.00
H57    H     0.85920   0.83859   0.80788   0.00000  Uiso   1.00
H58    H     0.99379   0.83741   0.80788   0.00000  Uiso   1.00
H59    H     0.98066   0.72991   0.80788   0.00000  Uiso   1.00
H60    H     0.90961   0.60428   0.80788   0.00000  Uiso   1.00
H61    H     0.72969   0.62088   0.80788   0.00000  Uiso   1.00
H62    H     0.80079   0.74644   0.80788   0.00000  Uiso   1.00
H63    H     0.79248   0.39101   0.80788   0.00000  Uiso   1.00
loop_
_geom_bond_atom_site_label_1
_geom_bond_atom_site_label_2
_geom_bond_distance
_geom_bond_site_symmetry_2
_ccdc_geom_bond_type
N1     C2      1.362   .     S
N1     C23     1.359   1_455 D
C2     C3      1.474   .     S
C2     N43     1.359   1_545 D
C3     C4      1.335   .     D
C3     H15     1.140   .     S
C4     C5      1.476   .     S
C4     H16     1.140   .     S
C5     C6      1.400   .     D
C5     C10     1.405   .     S
C6     C7      1.400   .     S
C6     H17     1.140   .     S
C7     C8      1.399   .     D
C7     H18     1.140   .     S
C8     C9      1.400   .     S
C8     C11     1.444   .     S
C9     C10     1.403   .     D
C9     H19     1.140   .     S
C10    H20     1.140   .     S
C11    C12     1.211   .     T
C12    C13     1.444   .     S
C13    C14     1.402   .     D
C13    C35     1.401   .     S
C14    H21     1.140   .     S
C14    C55     1.401   .     S
N22    C44     1.359   .     D
N22    C23     1.362   1_565 S
C23    C24     1.474   .     S
C23    N1      1.359   1_655 D
C23    N22     1.362   1_545 S
C24    C25     1.335   .     D
C24    H36     1.140   .     S
C25    C26     1.476   .     S
C25    H37     1.140   .     S
C26    C27     1.400   .     D
C26    C31     1.405   .     S
C27    C28     1.400   .     S
C27    H38     1.140   .     S
C28    C29     1.399   .     D
C28    H39     1.140   .     S
C29    C30     1.400   .     S
C29    C32     1.444   .     S
C30    C31     1.403   .     D
C30    H40     1.140   .     S
C31    H41     1.140   .     S
C32    C33     1.211   .     T
C33    C34     1.444   .     S
C34    C35     1.402   .     D
C34    C56     1.401   .     S
C35    H42     1.140   .     S
N43    C2      1.359   1_565 D
N43    C44     1.362   1_455 S
C44    C45     1.474   .     S
C44    N43     1.362   1_655 S
C45    C46     1.335   .     D
C45    H57     1.140   .     S
C46    C47     1.476   .     S
C46    H58     1.140   .     S
C47    C48     1.400   .     D
C47    C52     1.405   .     S
C48    C49     1.400   .     S
C48    H59     1.140   .     S
C49    C50     1.399   .     D
C49    H60     1.140   .     S
C50    C51     1.400   .     S
C50    C53     1.444   .     S
C51    C52     1.403   .     D
C51    H61     1.140   .     S
C52    H62     1.140   .     S
C53    C54     1.211   .     T
C54    C55     1.444   .     S
C55    C56     1.402   .     D
C56    H63     1.140   .     S
