data_1067
_audit_creation_date              2023-09-08
_audit_creation_method            'Materials Studio'
_symmetry_space_group_name_H-M    'P1'
_symmetry_Int_Tables_number       1
_symmetry_cell_setting            triclinic
loop_
_symmetry_equiv_pos_as_xyz
  x,y,z
_cell_length_a                    16.0948
_cell_length_b                    16.0948
_cell_length_c                    3.5023
_cell_angle_alpha                 90.0000
_cell_angle_beta                  90.0000
_cell_angle_gamma                 120.0000
loop_
_atom_site_label
_atom_site_type_symbol
_atom_site_fract_x
_atom_site_fract_y
_atom_site_fract_z
_atom_site_U_iso_or_equiv
_atom_site_adp_type
_atom_site_occupancy
C1     C     0.46854   0.97548   0.69931   0.00000  Uiso   1.00
C2     C     0.49753   0.93070   0.82311   0.00000  Uiso   1.00
C3     C     0.45542   0.83294   0.82616   0.00000  Uiso   1.00
C4     C     0.38189   0.77806   0.70138   0.00000  Uiso   1.00
C5     C     0.35227   0.82444   0.57705   0.00000  Uiso   1.00
C6     C     0.39558   0.92228   0.57988   0.00000  Uiso   1.00
N7     N     0.56578   0.49051   0.69674   0.00000  Uiso   1.00
C8     C     0.53793   0.40347   0.73400   0.00000  Uiso   1.00
C9     C     0.60431   0.36818   0.73163   0.00000  Uiso   1.00
C10    C     0.57009   0.27146   0.73179   0.00000  Uiso   1.00
C11    C     0.48934   0.79014   0.96690   0.00000  Uiso   1.00
C12    C     0.27644   0.77268   0.43756   0.00000  Uiso   1.00
H13    H     0.55186   0.97225   0.92035   0.00000  Uiso   1.00
H14    H     0.37354   0.95838   0.48678   0.00000  Uiso   1.00
H15    H     0.46471   0.35463   0.76080   0.00000  Uiso   1.00
H16    H     0.52842   0.75987   0.89989   0.00000  Uiso   1.00
H17    H     0.42928   0.73479   1.04308   0.00000  Uiso   1.00
H18    H     0.53696   0.84245   1.06788   0.00000  Uiso   1.00
H19    H     0.29007   0.72279   0.36157   0.00000  Uiso   1.00
H20    H     0.27274   0.82075   0.33630   0.00000  Uiso   1.00
H21    H     0.20733   0.73424   0.50566   0.00000  Uiso   1.00
H22    H     0.49531   0.22347   0.73246   0.00000  Uiso   1.00
C23    C     0.02452   0.49306   0.69931   0.00000  Uiso   1.00
C24    C     0.06930   0.56683   0.82311   0.00000  Uiso   1.00
C25    C     0.16706   0.62248   0.82616   0.00000  Uiso   1.00
C26    C     0.22194   0.60383   0.70138   0.00000  Uiso   1.00
C27    C     0.17556   0.52783   0.57705   0.00000  Uiso   1.00
C28    C     0.07772   0.47330   0.57988   0.00000  Uiso   1.00
N29    N     0.50949   0.07527   0.69674   0.00000  Uiso   1.00
C30    C     0.59653   0.13446   0.73400   0.00000  Uiso   1.00
C31    C     0.63182   0.23613   0.73163   0.00000  Uiso   1.00
C32    C     0.72854   0.29863   0.73179   0.00000  Uiso   1.00
C33    C     0.20986   0.69920   0.96690   0.00000  Uiso   1.00
C34    C     0.22732   0.50376   0.43756   0.00000  Uiso   1.00
H35    H     0.02775   0.57961   0.92035   0.00000  Uiso   1.00
H36    H     0.04162   0.41516   0.48678   0.00000  Uiso   1.00
H37    H     0.64537   0.11008   0.76080   0.00000  Uiso   1.00
H38    H     0.24013   0.76855   0.89989   0.00000  Uiso   1.00
H39    H     0.26521   0.69449   1.04308   0.00000  Uiso   1.00
H40    H     0.15755   0.69451   1.06788   0.00000  Uiso   1.00
H41    H     0.27721   0.56728   0.36157   0.00000  Uiso   1.00
H42    H     0.17925   0.45199   0.33630   0.00000  Uiso   1.00
H43    H     0.26576   0.47309   0.50566   0.00000  Uiso   1.00
H44    H     0.77653   0.27184   0.73246   0.00000  Uiso   1.00
C45    C     0.50694   0.53146   0.69931   0.00000  Uiso   1.00
C46    C     0.43317   0.50247   0.82311   0.00000  Uiso   1.00
C47    C     0.37752   0.54458   0.82616   0.00000  Uiso   1.00
C48    C     0.39617   0.61811   0.70138   0.00000  Uiso   1.00
C49    C     0.47217   0.64773   0.57705   0.00000  Uiso   1.00
C50    C     0.52670   0.60442   0.57988   0.00000  Uiso   1.00
N51    N     0.92473   0.43422   0.69674   0.00000  Uiso   1.00
C52    C     0.86554   0.46207   0.73400   0.00000  Uiso   1.00
C53    C     0.76387   0.39569   0.73163   0.00000  Uiso   1.00
C54    C     0.70137   0.42991   0.73179   0.00000  Uiso   1.00
C55    C     0.30080   0.51066   0.96690   0.00000  Uiso   1.00
C56    C     0.49624   0.72356   0.43756   0.00000  Uiso   1.00
H57    H     0.42039   0.44814   0.92035   0.00000  Uiso   1.00
H58    H     0.58484   0.62646   0.48678   0.00000  Uiso   1.00
H59    H     0.88992   0.53529   0.76080   0.00000  Uiso   1.00
H60    H     0.23145   0.47158   0.89989   0.00000  Uiso   1.00
H61    H     0.30551   0.57072   1.04308   0.00000  Uiso   1.00
H62    H     0.30549   0.46304   1.06788   0.00000  Uiso   1.00
H63    H     0.43272   0.70993   0.36157   0.00000  Uiso   1.00
H64    H     0.54801   0.72726   0.33630   0.00000  Uiso   1.00
H65    H     0.52691   0.79267   0.50566   0.00000  Uiso   1.00
H66    H     0.72816   0.50469   0.73246   0.00000  Uiso   1.00
B67    B     0.33333   0.66667   0.70146   0.00000  Uiso   1.00
loop_
_geom_bond_atom_site_label_1
_geom_bond_atom_site_label_2
_geom_bond_distance
_geom_bond_site_symmetry_2
_ccdc_geom_bond_type
C1     C2      1.123   .     D
C1     C6      1.132   .     S
C1     N29     1.398   1_565 S
C2     C3      1.367   .     S
C2     H13     0.862   .     S
C3     C4      1.152   .     D
C3     C11     1.180   .     S
C4     C5      1.153   .     S
C4     B67     1.557   .     S
C5     C6      1.367   .     D
C5     C12     1.186   .     S
C6     H14     0.881   .     S
N7     C8      1.246   .     D
N7     C45     1.398   .     S
C8     C9      1.439   .     S
C8     H15     1.044   .     S
C9     C10     1.367   .     S
C9     C54     1.369   .     D
C10    H22     1.056   .     S
C10    C31     1.369   .     D
C11    H16     0.997   .     S
C11    H17     0.969   .     S
C11    H18     0.881   .     S
C12    H19     0.969   .     S
C12    H20     0.880   .     S
C12    H21     0.994   .     S
C23    C24     1.123   .     D
C23    C28     1.132   .     S
C23    N51     1.398   1_455 S
C24    C25     1.367   .     S
C24    H35     0.862   .     S
C25    C26     1.152   .     D
C25    C33     1.180   .     S
C26    C27     1.153   .     S
C26    B67     1.557   .     S
C27    C28     1.367   .     D
C27    C34     1.186   .     S
C28    H36     0.881   .     S
N29    C30     1.246   .     D
N29    C1      1.398   1_545 S
C30    C31     1.439   .     S
C30    H37     1.044   .     S
C31    C32     1.367   .     S
C32    H44     1.056   .     S
C32    C53     1.369   .     D
C33    H38     0.997   .     S
C33    H39     0.969   .     S
C33    H40     0.881   .     S
C34    H41     0.969   .     S
C34    H42     0.880   .     S
C34    H43     0.994   .     S
C45    C46     1.123   .     D
C45    C50     1.132   .     S
C46    C47     1.367   .     S
C46    H57     0.862   .     S
C47    C48     1.152   .     D
C47    C55     1.180   .     S
C48    C49     1.153   .     S
C48    B67     1.557   .     S
C49    C50     1.367   .     D
C49    C56     1.186   .     S
C50    H58     0.881   .     S
N51    C52     1.246   .     D
N51    C23     1.398   1_655 S
C52    C53     1.439   .     S
C52    H59     1.044   .     S
C53    C54     1.367   .     S
C54    H66     1.056   .     S
C55    H60     0.997   .     S
C55    H61     0.969   .     S
C55    H62     0.881   .     S
C56    H63     0.969   .     S
C56    H64     0.880   .     S
C56    H65     0.994   .     S
