data_1068
_audit_creation_date              2023-09-08
_audit_creation_method            'Materials Studio'
_symmetry_space_group_name_H-M    'P1'
_symmetry_Int_Tables_number       1
_symmetry_cell_setting            triclinic
loop_
_symmetry_equiv_pos_as_xyz
  x,y,z
_cell_length_a                    16.0908
_cell_length_b                    16.0908
_cell_length_c                    7.2132
_cell_angle_alpha                 90.0000
_cell_angle_beta                  90.0000
_cell_angle_gamma                 120.0000
loop_
_atom_site_label
_atom_site_type_symbol
_atom_site_fract_x
_atom_site_fract_y
_atom_site_fract_z
_atom_site_U_iso_or_equiv
_atom_site_adp_type
_atom_site_occupancy
C1     C     0.46839   0.97551   0.33369   0.00000  Uiso   1.00
C2     C     0.49830   0.93071   0.41884   0.00000  Uiso   1.00
C3     C     0.45637   0.83294   0.42055   0.00000  Uiso   1.00
C4     C     0.38196   0.77807   0.33445   0.00000  Uiso   1.00
C5     C     0.35139   0.82451   0.24899   0.00000  Uiso   1.00
C6     C     0.39466   0.92237   0.25126   0.00000  Uiso   1.00
N7     N     0.56601   0.49069   0.33221   0.00000  Uiso   1.00
C8     C     0.53790   0.40343   0.35729   0.00000  Uiso   1.00
C9     C     0.60429   0.36817   0.35599   0.00000  Uiso   1.00
C10    C     0.57005   0.27143   0.35613   0.00000  Uiso   1.00
C11    C     0.49173   0.79024   0.51712   0.00000  Uiso   1.00
C12    C     0.27423   0.77287   0.15322   0.00000  Uiso   1.00
H13    H     0.55329   0.97227   0.48606   0.00000  Uiso   1.00
H14    H     0.37193   0.95856   0.18732   0.00000  Uiso   1.00
H15    H     0.46449   0.35443   0.37488   0.00000  Uiso   1.00
H16    H     0.52963   0.75922   0.46911   0.00000  Uiso   1.00
H17    H     0.43277   0.73566   0.57324   0.00000  Uiso   1.00
H18    H     0.54131   0.84295   0.58558   0.00000  Uiso   1.00
H19    H     0.28698   0.72307   0.09805   0.00000  Uiso   1.00
H20    H     0.26956   0.82120   0.08391   0.00000  Uiso   1.00
H21    H     0.20569   0.73448   0.20208   0.00000  Uiso   1.00
H22    H     0.49523   0.22343   0.35646   0.00000  Uiso   1.00
C23    C     0.13555   0.30894   0.81560   0.00000  Uiso   1.00
C24    C     0.16485   0.26403   0.90152   0.00000  Uiso   1.00
C25    C     0.12247   0.16619   0.90370   0.00000  Uiso   1.00
C26    C     0.04879   0.11144   0.81633   0.00000  Uiso   1.00
C27    C     0.01919   0.15806   0.72953   0.00000  Uiso   1.00
C28    C     0.06237   0.25593   0.73225   0.00000  Uiso   1.00
N29    N     0.23222   0.82347   0.81412   0.00000  Uiso   1.00
C30    C     0.20427   0.73630   0.83929   0.00000  Uiso   1.00
C31    C     0.27080   0.70125   0.83766   0.00000  Uiso   1.00
C32    C     0.23679   0.60460   0.83763   0.00000  Uiso   1.00
C33    C     0.15641   0.12330   1.00232   0.00000  Uiso   1.00
C34    C     0.94350   0.10664   0.63136   0.00000  Uiso   1.00
H35    H     0.21963   0.30554   0.96904   0.00000  Uiso   1.00
H36    H     0.04020   0.29229   0.66767   0.00000  Uiso   1.00
H37    H     0.13096   0.68726   0.85731   0.00000  Uiso   1.00
H38    H     0.19379   0.09123   0.95529   0.00000  Uiso   1.00
H39    H     0.09671   0.06954   1.05827   0.00000  Uiso   1.00
H40    H     0.20605   0.17615   1.07086   0.00000  Uiso   1.00
H41    H     0.95834   0.05863   0.57518   0.00000  Uiso   1.00
H42    H     0.93831   0.15529   0.56301   0.00000  Uiso   1.00
H43    H     0.87448   0.06633   0.67882   0.00000  Uiso   1.00
H44    H     0.16199   0.55643   0.83793   0.00000  Uiso   1.00
C45    C     0.02449   0.49288   0.33369   0.00000  Uiso   1.00
C46    C     0.06929   0.56759   0.41884   0.00000  Uiso   1.00
C47    C     0.16706   0.62343   0.42055   0.00000  Uiso   1.00
C48    C     0.22193   0.60389   0.33445   0.00000  Uiso   1.00
C49    C     0.17549   0.52688   0.24899   0.00000  Uiso   1.00
C50    C     0.07763   0.47229   0.25126   0.00000  Uiso   1.00
N51    N     0.50931   0.07532   0.33221   0.00000  Uiso   1.00
C52    C     0.59657   0.13447   0.35729   0.00000  Uiso   1.00
C53    C     0.63183   0.23612   0.35599   0.00000  Uiso   1.00
C54    C     0.72857   0.29862   0.35613   0.00000  Uiso   1.00
C55    C     0.20976   0.70149   0.51712   0.00000  Uiso   1.00
C56    C     0.22713   0.50136   0.15322   0.00000  Uiso   1.00
H57    H     0.02773   0.58102   0.48606   0.00000  Uiso   1.00
H58    H     0.04144   0.41337   0.18732   0.00000  Uiso   1.00
H59    H     0.64557   0.11006   0.37488   0.00000  Uiso   1.00
H60    H     0.24078   0.77041   0.46911   0.00000  Uiso   1.00
H61    H     0.26434   0.69711   0.57324   0.00000  Uiso   1.00
H62    H     0.15705   0.69836   0.58558   0.00000  Uiso   1.00
H63    H     0.27693   0.56391   0.09805   0.00000  Uiso   1.00
H64    H     0.17880   0.44836   0.08391   0.00000  Uiso   1.00
H65    H     0.26552   0.47121   0.20208   0.00000  Uiso   1.00
H66    H     0.77657   0.27180   0.35646   0.00000  Uiso   1.00
C67    C     0.69106   0.82661   0.81560   0.00000  Uiso   1.00
C68    C     0.73597   0.90082   0.90152   0.00000  Uiso   1.00
C69    C     0.83381   0.95628   0.90370   0.00000  Uiso   1.00
C70    C     0.88856   0.93735   0.81633   0.00000  Uiso   1.00
C71    C     0.84194   0.86113   0.72953   0.00000  Uiso   1.00
C72    C     0.74407   0.80644   0.73225   0.00000  Uiso   1.00
N73    N     0.17653   0.40875   0.81412   0.00000  Uiso   1.00
C74    C     0.26370   0.46797   0.83929   0.00000  Uiso   1.00
C75    C     0.29875   0.56955   0.83766   0.00000  Uiso   1.00
C76    C     0.39540   0.63219   0.83763   0.00000  Uiso   1.00
C77    C     0.87670   0.03311   1.00232   0.00000  Uiso   1.00
C78    C     0.89336   0.83686   0.63136   0.00000  Uiso   1.00
H79    H     0.69446   0.91409   0.96904   0.00000  Uiso   1.00
H80    H     0.70771   0.74791   0.66767   0.00000  Uiso   1.00
H81    H     0.31274   0.44370   0.85731   0.00000  Uiso   1.00
H82    H     0.90877   0.10256   0.95529   0.00000  Uiso   1.00
H83    H     0.93046   0.02717   1.05827   0.00000  Uiso   1.00
H84    H     0.82385   0.02990   1.07086   0.00000  Uiso   1.00
H85    H     0.94137   0.89971   0.57518   0.00000  Uiso   1.00
H86    H     0.84471   0.78302   0.56301   0.00000  Uiso   1.00
H87    H     0.93367   0.80815   0.67882   0.00000  Uiso   1.00
H88    H     0.44357   0.60556   0.83793   0.00000  Uiso   1.00
C89    C     0.50712   0.53161   0.33369   0.00000  Uiso   1.00
C90    C     0.43241   0.50170   0.41884   0.00000  Uiso   1.00
C91    C     0.37657   0.54363   0.42055   0.00000  Uiso   1.00
C92    C     0.39611   0.61804   0.33445   0.00000  Uiso   1.00
C93    C     0.47312   0.64861   0.24899   0.00000  Uiso   1.00
C94    C     0.52771   0.60534   0.25126   0.00000  Uiso   1.00
N95    N     0.92468   0.43399   0.33221   0.00000  Uiso   1.00
C96    C     0.86553   0.46210   0.35729   0.00000  Uiso   1.00
C97    C     0.76388   0.39571   0.35599   0.00000  Uiso   1.00
C98    C     0.70138   0.42995   0.35613   0.00000  Uiso   1.00
C99    C     0.29851   0.50827   0.51712   0.00000  Uiso   1.00
C100   C     0.49864   0.72577   0.15322   0.00000  Uiso   1.00
H101   H     0.41898   0.44671   0.48606   0.00000  Uiso   1.00
H102   H     0.58663   0.62807   0.18732   0.00000  Uiso   1.00
H103   H     0.88994   0.53551   0.37488   0.00000  Uiso   1.00
H104   H     0.22959   0.47037   0.46911   0.00000  Uiso   1.00
H105   H     0.30289   0.56723   0.57324   0.00000  Uiso   1.00
H106   H     0.30164   0.45869   0.58558   0.00000  Uiso   1.00
H107   H     0.43609   0.71302   0.09805   0.00000  Uiso   1.00
H108   H     0.55164   0.73044   0.08391   0.00000  Uiso   1.00
H109   H     0.52879   0.79431   0.20208   0.00000  Uiso   1.00
H110   H     0.72820   0.50477   0.35646   0.00000  Uiso   1.00
C111   C     0.17339   0.86445   0.81560   0.00000  Uiso   1.00
C112   C     0.09918   0.83515   0.90152   0.00000  Uiso   1.00
C113   C     0.04372   0.87753   0.90370   0.00000  Uiso   1.00
C114   C     0.06265   0.95121   0.81633   0.00000  Uiso   1.00
C115   C     0.13887   0.98081   0.72953   0.00000  Uiso   1.00
C116   C     0.19356   0.93763   0.73225   0.00000  Uiso   1.00
N117   N     0.59125   0.76778   0.81412   0.00000  Uiso   1.00
C118   C     0.53203   0.79573   0.83929   0.00000  Uiso   1.00
C119   C     0.43045   0.72920   0.83766   0.00000  Uiso   1.00
C120   C     0.36781   0.76321   0.83763   0.00000  Uiso   1.00
C121   C     0.96689   0.84359   1.00232   0.00000  Uiso   1.00
C122   C     0.16314   0.05650   0.63136   0.00000  Uiso   1.00
H123   H     0.08591   0.78037   0.96904   0.00000  Uiso   1.00
H124   H     0.25209   0.95980   0.66767   0.00000  Uiso   1.00
H125   H     0.55630   0.86904   0.85731   0.00000  Uiso   1.00
H126   H     0.89744   0.80621   0.95529   0.00000  Uiso   1.00
H127   H     0.97283   0.90329   1.05827   0.00000  Uiso   1.00
H128   H     0.97010   0.79395   1.07086   0.00000  Uiso   1.00
H129   H     0.10029   0.04166   0.57518   0.00000  Uiso   1.00
H130   H     0.21698   0.06169   0.56301   0.00000  Uiso   1.00
H131   H     0.19185   0.12552   0.67882   0.00000  Uiso   1.00
H132   H     0.39444   0.83801   0.83793   0.00000  Uiso   1.00
B133   B     0.33333   0.66667   0.33437   0.00000  Uiso   1.00
B134   B     0.00000   0.00000   0.81618   0.00000  Uiso   1.00
loop_
_geom_bond_atom_site_label_1
_geom_bond_atom_site_label_2
_geom_bond_distance
_geom_bond_site_symmetry_2
_ccdc_geom_bond_type
C1     C2      1.215   .     D
C1     C6      1.216   .     S
C1     N51     1.398   1_565 S
C2     C3      1.367   .     S
C2     H13     0.935   .     S
C3     C4      1.242   .     D
C3     C11     1.293   .     S
C4     C5      1.244   .     S
C4     B133    1.557   .     S
C5     C6      1.367   .     D
C5     C12     1.295   .     S
C6     H14     0.948   .     S
N7     C8      1.254   .     D
N7     C89     1.398   .     S
C8     C9      1.438   .     S
C8     H15     1.050   .     S
C9     C10     1.367   .     S
C9     C98     1.370   .     D
C10    H22     1.056   .     S
C10    C53     1.370   .     D
C11    H16     1.022   .     S
C11    H17     1.001   .     S
C11    H18     0.961   .     S
C12    H19     1.003   .     S
C12    H20     0.959   .     S
C12    H21     1.020   .     S
C23    C24     1.212   .     D
C23    C28     1.213   .     S
C23    N73     1.398   .     S
C24    C25     1.368   .     S
C24    H35     0.934   .     S
C25    C26     1.239   .     D
C25    C33     1.287   .     S
C26    C27     1.241   .     S
C26    B134    1.557   .     S
C27    C28     1.367   .     D
C27    C34     1.289   1_455 S
C28    H36     0.946   .     S
N29    C30     1.254   .     D
N29    C111    1.398   .     S
C30    C31     1.438   .     S
C30    H37     1.049   .     S
C31    C32     1.366   .     S
C31    C120    1.369   .     D
C32    H44     1.057   .     S
C32    C75     1.369   .     D
C33    H38     1.026   .     S
C33    H39     1.001   .     S
C33    H40     0.962   .     S
C34    H41     1.001   .     S
C34    H42     0.963   .     S
C34    H43     1.025   .     S
C34    C27     1.289   1_655 S
C45    C46     1.215   .     D
C45    C50     1.216   .     S
C45    N95     1.398   1_455 S
C46    C47     1.367   .     S
C46    H57     0.935   .     S
C47    C48     1.242   .     D
C47    C55     1.293   .     S
C48    C49     1.244   .     S
C48    B133    1.557   .     S
C49    C50     1.367   .     D
C49    C56     1.295   .     S
C50    H58     0.948   .     S
N51    C52     1.254   .     D
N51    C1      1.398   1_545 S
C52    C53     1.438   .     S
C52    H59     1.050   .     S
C53    C54     1.367   .     S
C54    H66     1.056   .     S
C54    C97     1.370   .     D
C55    H60     1.022   .     S
C55    H61     1.001   .     S
C55    H62     0.961   .     S
C56    H63     1.003   .     S
C56    H64     0.959   .     S
C56    H65     1.020   .     S
C67    C68     1.212   .     D
C67    C72     1.213   .     S
C67    N117    1.398   .     S
C68    C69     1.368   .     S
C68    H79     0.934   .     S
C69    C70     1.239   .     D
C69    C77     1.287   1_565 S
C70    C71     1.241   .     S
C70    B134    1.557   1_665 S
C71    C72     1.367   .     D
C71    C78     1.289   .     S
C72    H80     0.946   .     S
N73    C74     1.254   .     D
C74    C75     1.438   .     S
C74    H81     1.049   .     S
C75    C76     1.366   .     S
C76    H88     1.057   .     S
C76    C119    1.369   .     D
C77    H82     1.026   .     S
C77    H83     1.001   .     S
C77    H84     0.962   .     S
C77    C69     1.287   1_545 S
C78    H85     1.001   .     S
C78    H86     0.963   .     S
C78    H87     1.025   .     S
C89    C90     1.215   .     D
C89    C94     1.216   .     S
C90    C91     1.367   .     S
C90    H101    0.935   .     S
C91    C92     1.242   .     D
C91    C99     1.293   .     S
C92    C93     1.244   .     S
C92    B133    1.557   .     S
C93    C94     1.367   .     D
C93    C100    1.295   .     S
C94    H102    0.948   .     S
N95    C96     1.254   .     D
N95    C45     1.398   1_655 S
C96    C97     1.438   .     S
C96    H103    1.050   .     S
C97    C98     1.367   .     S
C98    H110    1.056   .     S
C99    H104    1.022   .     S
C99    H105    1.001   .     S
C99    H106    0.961   .     S
C100   H107    1.003   .     S
C100   H108    0.959   .     S
C100   H109    1.020   .     S
C111   C112    1.212   .     D
C111   C116    1.213   .     S
C112   C113    1.368   .     S
C112   H123    0.934   .     S
C113   C114    1.239   .     D
C113   C121    1.287   1_455 S
C114   C115    1.241   .     S
C114   B134    1.557   1_565 S
C115   C116    1.367   .     D
C115   C122    1.289   1_565 S
C116   H124    0.946   .     S
N117   C118    1.254   .     D
C118   C119    1.438   .     S
C118   H125    1.049   .     S
C119   C120    1.366   .     S
C120   H132    1.057   .     S
C121   H126    1.026   .     S
C121   H127    1.001   .     S
C121   H128    0.962   .     S
C121   C113    1.287   1_655 S
C122   H129    1.001   .     S
C122   H130    0.963   .     S
C122   H131    1.025   .     S
C122   C115    1.289   1_545 S
B134   C70     1.557   1_445 S
B134   C114    1.557   1_545 S
