data_1069
_audit_creation_date              2023-09-08
_audit_creation_method            'Materials Studio'
_symmetry_space_group_name_H-M    'P1'
_symmetry_Int_Tables_number       1
_symmetry_cell_setting            triclinic
loop_
_symmetry_equiv_pos_as_xyz
  x,y,z
_cell_length_a                    15.9597
_cell_length_b                    15.9597
_cell_length_c                    3.5032
_cell_angle_alpha                 90.0000
_cell_angle_beta                  90.0000
_cell_angle_gamma                 120.0000
loop_
_atom_site_label
_atom_site_type_symbol
_atom_site_fract_x
_atom_site_fract_y
_atom_site_fract_z
_atom_site_U_iso_or_equiv
_atom_site_adp_type
_atom_site_occupancy
C1     C     0.45310   0.97340   0.46658   0.00000  Uiso   1.00
C2     C     0.48499   0.93176   0.59139   0.00000  Uiso   1.00
C3     C     0.44825   0.83483   0.59370   0.00000  Uiso   1.00
C4     C     0.37632   0.77730   0.46801   0.00000  Uiso   1.00
C5     C     0.34324   0.82032   0.34275   0.00000  Uiso   1.00
C6     C     0.38204   0.91753   0.34490   0.00000  Uiso   1.00
N7     N     0.58210   0.50955   0.46564   0.00000  Uiso   1.00
C8     C     0.54985   0.41279   0.50529   0.00000  Uiso   1.00
C9     C     0.60694   0.37722   0.53424   0.00000  Uiso   1.00
C10    C     0.56458   0.27467   0.55157   0.00000  Uiso   1.00
O11    O     0.48130   0.22788   0.58537   0.00000  Uiso   1.00
C12    C     0.48640   0.79569   0.73392   0.00000  Uiso   1.00
C13    C     0.26807   0.76552   0.20353   0.00000  Uiso   1.00
H14    H     0.53785   0.97535   0.68949   0.00000  Uiso   1.00
H15    H     0.35756   0.95069   0.24993   0.00000  Uiso   1.00
H16    H     0.65054   0.55297   0.41981   0.00000  Uiso   1.00
H17    H     0.47491   0.36455   0.50253   0.00000  Uiso   1.00
H18    H     0.52887   0.76976   0.66519   0.00000  Uiso   1.00
H19    H     0.42839   0.73748   0.80877   0.00000  Uiso   1.00
H20    H     0.53165   0.84872   0.83635   0.00000  Uiso   1.00
H21    H     0.28419   0.71708   0.12896   0.00000  Uiso   1.00
H22    H     0.26138   0.81128   0.10068   0.00000  Uiso   1.00
H23    H     0.19964   0.72484   0.27313   0.00000  Uiso   1.00
C24    C     0.02660   0.47970   0.46658   0.00000  Uiso   1.00
C25    C     0.06824   0.55323   0.59139   0.00000  Uiso   1.00
C26    C     0.16517   0.61342   0.59370   0.00000  Uiso   1.00
C27    C     0.22270   0.59902   0.46801   0.00000  Uiso   1.00
C28    C     0.17968   0.52292   0.34275   0.00000  Uiso   1.00
C29    C     0.08247   0.46451   0.34490   0.00000  Uiso   1.00
N30    N     0.49045   0.07255   0.46564   0.00000  Uiso   1.00
C31    C     0.58721   0.13706   0.50529   0.00000  Uiso   1.00
C32    C     0.62278   0.22972   0.53424   0.00000  Uiso   1.00
C33    C     0.72533   0.28991   0.55157   0.00000  Uiso   1.00
O34    O     0.77212   0.25342   0.58537   0.00000  Uiso   1.00
C35    C     0.20431   0.69071   0.73392   0.00000  Uiso   1.00
C36    C     0.23448   0.50255   0.20353   0.00000  Uiso   1.00
H37    H     0.02465   0.56250   0.68949   0.00000  Uiso   1.00
H38    H     0.04931   0.40687   0.24993   0.00000  Uiso   1.00
H39    H     0.44703   0.09757   0.41981   0.00000  Uiso   1.00
H40    H     0.63545   0.11036   0.50253   0.00000  Uiso   1.00
H41    H     0.23024   0.75911   0.66519   0.00000  Uiso   1.00
H42    H     0.26252   0.69091   0.80877   0.00000  Uiso   1.00
H43    H     0.15128   0.68293   0.83635   0.00000  Uiso   1.00
H44    H     0.28292   0.56711   0.12896   0.00000  Uiso   1.00
H45    H     0.18872   0.45010   0.10068   0.00000  Uiso   1.00
H46    H     0.27516   0.47480   0.27313   0.00000  Uiso   1.00
C47    C     0.52030   0.54690   0.46658   0.00000  Uiso   1.00
C48    C     0.44677   0.51501   0.59139   0.00000  Uiso   1.00
C49    C     0.38658   0.55175   0.59370   0.00000  Uiso   1.00
C50    C     0.40098   0.62368   0.46801   0.00000  Uiso   1.00
C51    C     0.47708   0.65676   0.34275   0.00000  Uiso   1.00
C52    C     0.53549   0.61796   0.34490   0.00000  Uiso   1.00
N53    N     0.92745   0.41790   0.46564   0.00000  Uiso   1.00
C54    C     0.86294   0.45015   0.50529   0.00000  Uiso   1.00
C55    C     0.77028   0.39306   0.53424   0.00000  Uiso   1.00
C56    C     0.71009   0.43542   0.55157   0.00000  Uiso   1.00
O57    O     0.74658   0.51870   0.58537   0.00000  Uiso   1.00
C58    C     0.30929   0.51360   0.73392   0.00000  Uiso   1.00
C59    C     0.49745   0.73193   0.20353   0.00000  Uiso   1.00
H60    H     0.43750   0.46215   0.68949   0.00000  Uiso   1.00
H61    H     0.59313   0.64244   0.24993   0.00000  Uiso   1.00
H62    H     0.90243   0.34946   0.41981   0.00000  Uiso   1.00
H63    H     0.88964   0.52509   0.50253   0.00000  Uiso   1.00
H64    H     0.24089   0.47113   0.66519   0.00000  Uiso   1.00
H65    H     0.30909   0.57161   0.80877   0.00000  Uiso   1.00
H66    H     0.31707   0.46835   0.83635   0.00000  Uiso   1.00
H67    H     0.43289   0.71581   0.12896   0.00000  Uiso   1.00
H68    H     0.54990   0.73862   0.10068   0.00000  Uiso   1.00
H69    H     0.52520   0.80036   0.27313   0.00000  Uiso   1.00
B70    B     0.33333   0.66667   0.46804   0.00000  Uiso   1.00
loop_
_geom_bond_atom_site_label_1
_geom_bond_atom_site_label_2
_geom_bond_distance
_geom_bond_site_symmetry_2
_ccdc_geom_bond_type
C1     C2      1.109   .     S
C1     C6      1.119   .     S
C1     N30     1.384   1_565 D
C2     C3      1.353   .     S
C2     H14     0.853   .     S
C2     C6      1.767   .     S
C3     C4      1.140   .     S
C3     C12     1.176   .     S
C4     C5      1.142   .     D
C4     B70     1.542   .     S
C5     C6      1.353   .     S
C5     C13     1.180   .     S
C6     H15     0.866   .     S
N7     C8      1.369   .     S
N7     H16     0.971   .     S
N7     C47     1.384   .     D
C8     C9      1.296   .     D
C8     H17     1.050   .     S
C9     C10     1.426   .     S
C9     C56     1.431   .     S
C10    O11     1.160   .     D
C10    C32     1.431   .     S
C12    H18     0.984   .     S
C12    H19     0.964   .     S
C12    H20     0.869   .     S
C13    H21     0.965   .     S
C13    H22     0.868   .     S
C13    H23     0.982   .     S
C24    C25     1.109   .     S
C24    C29     1.119   .     S
C24    N53     1.384   1_455 D
C25    C26     1.353   .     S
C25    H37     0.853   .     S
C25    C29     1.767   .     S
C26    C27     1.140   .     S
C26    C35     1.176   .     S
C27    C28     1.142   .     D
C27    B70     1.542   .     S
C28    C29     1.353   .     S
C28    C36     1.180   .     S
C29    H38     0.866   .     S
N30    C31     1.369   .     S
N30    H39     0.971   .     S
N30    C1      1.384   1_545 D
C31    C32     1.296   .     D
C31    H40     1.050   .     S
C32    C33     1.426   .     S
C33    O34     1.160   .     D
C33    C55     1.431   .     S
C35    H41     0.984   .     S
C35    H42     0.964   .     S
C35    H43     0.869   .     S
C36    H44     0.965   .     S
C36    H45     0.868   .     S
C36    H46     0.982   .     S
C47    C48     1.109   .     S
C47    C52     1.119   .     S
C48    C49     1.353   .     S
C48    H60     0.853   .     S
C48    C52     1.767   .     S
C49    C50     1.140   .     S
C49    C58     1.176   .     S
C50    C51     1.142   .     D
C50    B70     1.542   .     S
C51    C52     1.353   .     S
C51    C59     1.180   .     S
C52    H61     0.866   .     S
N53    C54     1.369   .     S
N53    H62     0.971   .     S
N53    C24     1.384   1_655 D
C54    C55     1.296   .     D
C54    H63     1.050   .     S
C55    C56     1.426   .     S
C56    O57     1.160   .     D
C58    H64     0.984   .     S
C58    H65     0.964   .     S
C58    H66     0.869   .     S
C59    H67     0.965   .     S
C59    H68     0.868   .     S
C59    H69     0.982   .     S
