data_107
_audit_creation_date              2023-09-08
_audit_creation_method            'Materials Studio'
_symmetry_space_group_name_H-M    'P1'
_symmetry_Int_Tables_number       1
_symmetry_cell_setting            triclinic
loop_
_symmetry_equiv_pos_as_xyz
  x,y,z
_cell_length_a                    26.2260
_cell_length_b                    26.2260
_cell_length_c                    7.5743
_cell_angle_alpha                 90.0000
_cell_angle_beta                  90.0000
_cell_angle_gamma                 90.0000
loop_
_atom_site_label
_atom_site_type_symbol
_atom_site_fract_x
_atom_site_fract_y
_atom_site_fract_z
_atom_site_U_iso_or_equiv
_atom_site_adp_type
_atom_site_occupancy
C1     C     0.45336   0.24465   0.99860   0.00000  Uiso   1.00
N2     N     0.32911   0.23528   0.35100   0.00000  Uiso   1.00
C3     C     0.41940   0.20496   0.99540   0.00000  Uiso   1.00
H4     H     0.42350   0.17920   0.91230   0.00000  Uiso   1.00
C5     C     0.37901   0.20239   0.11300   0.00000  Uiso   1.00
H6     H     0.35600   0.17540   0.10620   0.00000  Uiso   1.00
C7     C     0.37271   0.23917   0.23880   0.00000  Uiso   1.00
C8     C     0.44659   0.28160   0.12840   0.00000  Uiso   1.00
H9     H     0.46980   0.30840   0.13550   0.00000  Uiso   1.00
C10    C     0.40700   0.27990   0.24600   0.00000  Uiso   1.00
H11    H     0.40300   0.30550   0.32960   0.00000  Uiso   1.00
C12    C     0.29011   0.25133   0.63310   0.00000  Uiso   1.00
C13    C     0.33309   0.25192   0.50500   0.00000  Uiso   1.00
H14    H     0.36430   0.26530   0.54100   0.00000  Uiso   1.00
C15    C     0.29867   0.26501   0.80440   0.00000  Uiso   1.00
H16    H     0.33090   0.27550   0.84020   0.00000  Uiso   1.00
C17    C     0.24129   0.23692   0.57500   0.00000  Uiso   1.00
H18    H     0.23580   0.22880   0.45700   0.00000  Uiso   1.00
C19    C     0.95336   0.74465   0.49860   0.00000  Uiso   1.00
N20    N     0.82911   0.73528   0.85100   0.00000  Uiso   1.00
C21    C     0.91940   0.70496   0.49540   0.00000  Uiso   1.00
H22    H     0.92350   0.67920   0.41230   0.00000  Uiso   1.00
C23    C     0.87901   0.70239   0.61300   0.00000  Uiso   1.00
H24    H     0.85600   0.67540   0.60620   0.00000  Uiso   1.00
C25    C     0.87271   0.73917   0.73880   0.00000  Uiso   1.00
C26    C     0.94659   0.78160   0.62840   0.00000  Uiso   1.00
H27    H     0.96980   0.80840   0.63550   0.00000  Uiso   1.00
C28    C     0.90700   0.77990   0.74600   0.00000  Uiso   1.00
H29    H     0.90300   0.80550   0.82960   0.00000  Uiso   1.00
C30    C     0.79011   0.75133   0.13310   0.00000  Uiso   1.00
C31    C     0.83309   0.75192   0.00500   0.00000  Uiso   1.00
H32    H     0.86430   0.76530   0.04100   0.00000  Uiso   1.00
C33    C     0.79867   0.76501   0.30440   0.00000  Uiso   1.00
H34    H     0.83090   0.77550   0.34020   0.00000  Uiso   1.00
C35    C     0.74129   0.73692   0.07500   0.00000  Uiso   1.00
H36    H     0.73580   0.72880   0.95700   0.00000  Uiso   1.00
C37    C     0.04664   0.75535   0.49860   0.00000  Uiso   1.00
N38    N     0.17089   0.76472   0.85100   0.00000  Uiso   1.00
C39    C     0.08060   0.79504   0.49540   0.00000  Uiso   1.00
H40    H     0.07650   0.82080   0.41230   0.00000  Uiso   1.00
C41    C     0.12099   0.79761   0.61300   0.00000  Uiso   1.00
H42    H     0.14400   0.82460   0.60620   0.00000  Uiso   1.00
C43    C     0.12729   0.76083   0.73880   0.00000  Uiso   1.00
C44    C     0.05341   0.71840   0.62840   0.00000  Uiso   1.00
H45    H     0.03020   0.69160   0.63550   0.00000  Uiso   1.00
C46    C     0.09300   0.72010   0.74600   0.00000  Uiso   1.00
H47    H     0.09700   0.69450   0.82960   0.00000  Uiso   1.00
C48    C     0.20989   0.74867   0.13310   0.00000  Uiso   1.00
C49    C     0.16691   0.74808   0.00500   0.00000  Uiso   1.00
H50    H     0.13570   0.73470   0.04100   0.00000  Uiso   1.00
C51    C     0.20133   0.73499   0.30440   0.00000  Uiso   1.00
H52    H     0.16910   0.72450   0.34020   0.00000  Uiso   1.00
C53    C     0.25871   0.76308   0.07500   0.00000  Uiso   1.00
H54    H     0.26420   0.77120   0.95700   0.00000  Uiso   1.00
C55    C     0.54664   0.25535   0.99860   0.00000  Uiso   1.00
N56    N     0.67089   0.26472   0.35100   0.00000  Uiso   1.00
C57    C     0.58060   0.29504   0.99540   0.00000  Uiso   1.00
H58    H     0.57650   0.32080   0.91230   0.00000  Uiso   1.00
C59    C     0.62099   0.29761   0.11300   0.00000  Uiso   1.00
H60    H     0.64400   0.32460   0.10620   0.00000  Uiso   1.00
C61    C     0.62729   0.26083   0.23880   0.00000  Uiso   1.00
C62    C     0.55341   0.21840   0.12840   0.00000  Uiso   1.00
H63    H     0.53020   0.19160   0.13550   0.00000  Uiso   1.00
C64    C     0.59300   0.22010   0.24600   0.00000  Uiso   1.00
H65    H     0.59700   0.19450   0.32960   0.00000  Uiso   1.00
C66    C     0.70989   0.24867   0.63310   0.00000  Uiso   1.00
C67    C     0.66691   0.24808   0.50500   0.00000  Uiso   1.00
H68    H     0.63570   0.23470   0.54100   0.00000  Uiso   1.00
C69    C     0.70133   0.23499   0.80440   0.00000  Uiso   1.00
H70    H     0.66910   0.22450   0.84020   0.00000  Uiso   1.00
C71    C     0.75871   0.26308   0.57500   0.00000  Uiso   1.00
H72    H     0.76420   0.27120   0.45700   0.00000  Uiso   1.00
C73    C     0.50535   0.70336   0.24860   0.00000  Uiso   1.00
N74    N     0.51472   0.57911   0.60100   0.00000  Uiso   1.00
C75    C     0.54504   0.66940   0.24540   0.00000  Uiso   1.00
H76    H     0.57080   0.67350   0.16230   0.00000  Uiso   1.00
C77    C     0.54761   0.62901   0.36300   0.00000  Uiso   1.00
H78    H     0.57460   0.60600   0.35620   0.00000  Uiso   1.00
C79    C     0.51083   0.62271   0.48880   0.00000  Uiso   1.00
C80    C     0.46840   0.69659   0.37840   0.00000  Uiso   1.00
H81    H     0.44160   0.71980   0.38550   0.00000  Uiso   1.00
C82    C     0.47010   0.65700   0.49600   0.00000  Uiso   1.00
H83    H     0.44450   0.65300   0.57960   0.00000  Uiso   1.00
C84    C     0.49867   0.54011   0.88310   0.00000  Uiso   1.00
C85    C     0.49808   0.58309   0.75500   0.00000  Uiso   1.00
H86    H     0.48470   0.61430   0.79100   0.00000  Uiso   1.00
C87    C     0.48499   0.54867   0.05440   0.00000  Uiso   1.00
H88    H     0.47450   0.58090   0.09020   0.00000  Uiso   1.00
C89    C     0.51308   0.49129   0.82500   0.00000  Uiso   1.00
H90    H     0.52120   0.48580   0.70700   0.00000  Uiso   1.00
C91    C     0.00535   0.20336   0.74860   0.00000  Uiso   1.00
N92    N     0.01472   0.07911   0.10100   0.00000  Uiso   1.00
C93    C     0.04504   0.16940   0.74540   0.00000  Uiso   1.00
H94    H     0.07080   0.17350   0.66230   0.00000  Uiso   1.00
C95    C     0.04761   0.12901   0.86300   0.00000  Uiso   1.00
H96    H     0.07460   0.10600   0.85620   0.00000  Uiso   1.00
C97    C     0.01083   0.12271   0.98880   0.00000  Uiso   1.00
C98    C     0.96840   0.19659   0.87840   0.00000  Uiso   1.00
H99    H     0.94160   0.21980   0.88550   0.00000  Uiso   1.00
C100   C     0.97010   0.15700   0.99600   0.00000  Uiso   1.00
H101   H     0.94450   0.15300   0.07960   0.00000  Uiso   1.00
C102   C     0.99867   0.04011   0.38310   0.00000  Uiso   1.00
C103   C     0.99808   0.08309   0.25500   0.00000  Uiso   1.00
H104   H     0.98470   0.11430   0.29100   0.00000  Uiso   1.00
C105   C     0.98499   0.04867   0.55440   0.00000  Uiso   1.00
H106   H     0.97450   0.08090   0.59020   0.00000  Uiso   1.00
C107   C     0.01308   0.99129   0.32500   0.00000  Uiso   1.00
H108   H     0.02120   0.98580   0.20700   0.00000  Uiso   1.00
C109   C     0.99465   0.29664   0.74860   0.00000  Uiso   1.00
N110   N     0.98528   0.42089   0.10100   0.00000  Uiso   1.00
C111   C     0.95496   0.33060   0.74540   0.00000  Uiso   1.00
H112   H     0.92920   0.32650   0.66230   0.00000  Uiso   1.00
C113   C     0.95239   0.37099   0.86300   0.00000  Uiso   1.00
H114   H     0.92540   0.39400   0.85620   0.00000  Uiso   1.00
C115   C     0.98917   0.37729   0.98880   0.00000  Uiso   1.00
C116   C     0.03160   0.30341   0.87840   0.00000  Uiso   1.00
H117   H     0.05840   0.28020   0.88550   0.00000  Uiso   1.00
C118   C     0.02990   0.34300   0.99600   0.00000  Uiso   1.00
H119   H     0.05550   0.34700   0.07960   0.00000  Uiso   1.00
C120   C     0.00133   0.45989   0.38310   0.00000  Uiso   1.00
C121   C     0.00192   0.41691   0.25500   0.00000  Uiso   1.00
H122   H     0.01530   0.38570   0.29100   0.00000  Uiso   1.00
C123   C     0.01501   0.45133   0.55440   0.00000  Uiso   1.00
H124   H     0.02550   0.41910   0.59020   0.00000  Uiso   1.00
C125   C     0.98692   0.50871   0.32500   0.00000  Uiso   1.00
H126   H     0.97880   0.51420   0.20700   0.00000  Uiso   1.00
C127   C     0.49465   0.79664   0.24860   0.00000  Uiso   1.00
N128   N     0.48528   0.92089   0.60100   0.00000  Uiso   1.00
C129   C     0.45496   0.83060   0.24540   0.00000  Uiso   1.00
H130   H     0.42920   0.82650   0.16230   0.00000  Uiso   1.00
C131   C     0.45239   0.87099   0.36300   0.00000  Uiso   1.00
H132   H     0.42540   0.89400   0.35620   0.00000  Uiso   1.00
C133   C     0.48917   0.87729   0.48880   0.00000  Uiso   1.00
C134   C     0.53160   0.80341   0.37840   0.00000  Uiso   1.00
H135   H     0.55840   0.78020   0.38550   0.00000  Uiso   1.00
C136   C     0.52990   0.84300   0.49600   0.00000  Uiso   1.00
H137   H     0.55550   0.84700   0.57960   0.00000  Uiso   1.00
C138   C     0.50133   0.95989   0.88310   0.00000  Uiso   1.00
C139   C     0.50192   0.91691   0.75500   0.00000  Uiso   1.00
H140   H     0.51530   0.88570   0.79100   0.00000  Uiso   1.00
C141   C     0.51501   0.95133   0.05440   0.00000  Uiso   1.00
H142   H     0.52550   0.91910   0.09020   0.00000  Uiso   1.00
C143   C     0.48692   0.00871   0.82500   0.00000  Uiso   1.00
H144   H     0.47880   0.01420   0.70700   0.00000  Uiso   1.00
C145   C     0.54664   0.75535   0.00140   0.00000  Uiso   1.00
N146   N     0.67089   0.76472   0.64900   0.00000  Uiso   1.00
C147   C     0.58060   0.79504   0.00460   0.00000  Uiso   1.00
H148   H     0.57650   0.82080   0.08770   0.00000  Uiso   1.00
C149   C     0.62099   0.79761   0.88700   0.00000  Uiso   1.00
H150   H     0.64400   0.82460   0.89380   0.00000  Uiso   1.00
C151   C     0.62729   0.76083   0.76120   0.00000  Uiso   1.00
C152   C     0.55341   0.71840   0.87160   0.00000  Uiso   1.00
H153   H     0.53020   0.69160   0.86450   0.00000  Uiso   1.00
C154   C     0.59300   0.72010   0.75400   0.00000  Uiso   1.00
H155   H     0.59700   0.69450   0.67040   0.00000  Uiso   1.00
C156   C     0.70989   0.74867   0.36690   0.00000  Uiso   1.00
C157   C     0.66691   0.74808   0.49500   0.00000  Uiso   1.00
H158   H     0.63570   0.73470   0.45900   0.00000  Uiso   1.00
C159   C     0.70133   0.73499   0.19560   0.00000  Uiso   1.00
H160   H     0.66910   0.72450   0.15980   0.00000  Uiso   1.00
C161   C     0.75871   0.76308   0.42500   0.00000  Uiso   1.00
H162   H     0.76420   0.77120   0.54300   0.00000  Uiso   1.00
C163   C     0.04664   0.25535   0.50140   0.00000  Uiso   1.00
N164   N     0.17089   0.26472   0.14900   0.00000  Uiso   1.00
C165   C     0.08060   0.29504   0.50460   0.00000  Uiso   1.00
H166   H     0.07650   0.32080   0.58770   0.00000  Uiso   1.00
C167   C     0.12099   0.29761   0.38700   0.00000  Uiso   1.00
H168   H     0.14400   0.32460   0.39380   0.00000  Uiso   1.00
C169   C     0.12729   0.26083   0.26120   0.00000  Uiso   1.00
C170   C     0.05341   0.21840   0.37160   0.00000  Uiso   1.00
H171   H     0.03020   0.19160   0.36450   0.00000  Uiso   1.00
C172   C     0.09300   0.22010   0.25400   0.00000  Uiso   1.00
H173   H     0.09700   0.19450   0.17040   0.00000  Uiso   1.00
C174   C     0.20989   0.24867   0.86690   0.00000  Uiso   1.00
C175   C     0.16691   0.24808   0.99500   0.00000  Uiso   1.00
H176   H     0.13570   0.23470   0.95900   0.00000  Uiso   1.00
C177   C     0.20133   0.23499   0.69560   0.00000  Uiso   1.00
H178   H     0.16910   0.22450   0.65980   0.00000  Uiso   1.00
C179   C     0.25871   0.26308   0.92500   0.00000  Uiso   1.00
H180   H     0.26420   0.27120   0.04300   0.00000  Uiso   1.00
C181   C     0.95336   0.24465   0.50140   0.00000  Uiso   1.00
N182   N     0.82911   0.23528   0.14900   0.00000  Uiso   1.00
C183   C     0.91940   0.20496   0.50460   0.00000  Uiso   1.00
H184   H     0.92350   0.17920   0.58770   0.00000  Uiso   1.00
C185   C     0.87901   0.20239   0.38700   0.00000  Uiso   1.00
H186   H     0.85600   0.17540   0.39380   0.00000  Uiso   1.00
C187   C     0.87271   0.23917   0.26120   0.00000  Uiso   1.00
C188   C     0.94659   0.28160   0.37160   0.00000  Uiso   1.00
H189   H     0.96980   0.30840   0.36450   0.00000  Uiso   1.00
C190   C     0.90700   0.27990   0.25400   0.00000  Uiso   1.00
H191   H     0.90300   0.30550   0.17040   0.00000  Uiso   1.00
C192   C     0.79011   0.25133   0.86690   0.00000  Uiso   1.00
C193   C     0.83309   0.25192   0.99500   0.00000  Uiso   1.00
H194   H     0.86430   0.26530   0.95900   0.00000  Uiso   1.00
C195   C     0.79867   0.26501   0.69560   0.00000  Uiso   1.00
H196   H     0.83090   0.27550   0.65980   0.00000  Uiso   1.00
C197   C     0.74129   0.23692   0.92500   0.00000  Uiso   1.00
H198   H     0.73580   0.22880   0.04300   0.00000  Uiso   1.00
C199   C     0.45336   0.74465   0.00140   0.00000  Uiso   1.00
N200   N     0.32911   0.73528   0.64900   0.00000  Uiso   1.00
C201   C     0.41940   0.70496   0.00460   0.00000  Uiso   1.00
H202   H     0.42350   0.67920   0.08770   0.00000  Uiso   1.00
C203   C     0.37901   0.70239   0.88700   0.00000  Uiso   1.00
H204   H     0.35600   0.67540   0.89380   0.00000  Uiso   1.00
C205   C     0.37271   0.73917   0.76120   0.00000  Uiso   1.00
C206   C     0.44659   0.78160   0.87160   0.00000  Uiso   1.00
H207   H     0.46980   0.80840   0.86450   0.00000  Uiso   1.00
C208   C     0.40700   0.77990   0.75400   0.00000  Uiso   1.00
H209   H     0.40300   0.80550   0.67040   0.00000  Uiso   1.00
C210   C     0.29011   0.75133   0.36690   0.00000  Uiso   1.00
C211   C     0.33309   0.75192   0.49500   0.00000  Uiso   1.00
H212   H     0.36430   0.76530   0.45900   0.00000  Uiso   1.00
C213   C     0.29867   0.76501   0.19560   0.00000  Uiso   1.00
H214   H     0.33090   0.77550   0.15980   0.00000  Uiso   1.00
C215   C     0.24129   0.73692   0.42500   0.00000  Uiso   1.00
H216   H     0.23580   0.72880   0.54300   0.00000  Uiso   1.00
C217   C     0.49465   0.29664   0.75140   0.00000  Uiso   1.00
N218   N     0.48528   0.42089   0.39900   0.00000  Uiso   1.00
C219   C     0.45496   0.33060   0.75460   0.00000  Uiso   1.00
H220   H     0.42920   0.32650   0.83770   0.00000  Uiso   1.00
C221   C     0.45239   0.37099   0.63700   0.00000  Uiso   1.00
H222   H     0.42540   0.39400   0.64380   0.00000  Uiso   1.00
C223   C     0.48917   0.37729   0.51120   0.00000  Uiso   1.00
C224   C     0.53160   0.30341   0.62160   0.00000  Uiso   1.00
H225   H     0.55840   0.28020   0.61450   0.00000  Uiso   1.00
C226   C     0.52990   0.34300   0.50400   0.00000  Uiso   1.00
H227   H     0.55550   0.34700   0.42040   0.00000  Uiso   1.00
C228   C     0.50133   0.45989   0.11690   0.00000  Uiso   1.00
C229   C     0.50192   0.41691   0.24500   0.00000  Uiso   1.00
H230   H     0.51530   0.38570   0.20900   0.00000  Uiso   1.00
C231   C     0.51501   0.45133   0.94560   0.00000  Uiso   1.00
H232   H     0.52550   0.41910   0.90980   0.00000  Uiso   1.00
C233   C     0.48692   0.50871   0.17500   0.00000  Uiso   1.00
H234   H     0.47880   0.51420   0.29300   0.00000  Uiso   1.00
C235   C     0.99465   0.79664   0.25140   0.00000  Uiso   1.00
N236   N     0.98528   0.92089   0.89900   0.00000  Uiso   1.00
C237   C     0.95496   0.83060   0.25460   0.00000  Uiso   1.00
H238   H     0.92920   0.82650   0.33770   0.00000  Uiso   1.00
C239   C     0.95239   0.87099   0.13700   0.00000  Uiso   1.00
H240   H     0.92540   0.89400   0.14380   0.00000  Uiso   1.00
C241   C     0.98917   0.87729   0.01120   0.00000  Uiso   1.00
C242   C     0.03160   0.80341   0.12160   0.00000  Uiso   1.00
H243   H     0.05840   0.78020   0.11450   0.00000  Uiso   1.00
C244   C     0.02990   0.84300   0.00400   0.00000  Uiso   1.00
H245   H     0.05550   0.84700   0.92040   0.00000  Uiso   1.00
C246   C     0.00133   0.95989   0.61690   0.00000  Uiso   1.00
C247   C     0.00192   0.91691   0.74500   0.00000  Uiso   1.00
H248   H     0.01530   0.88570   0.70900   0.00000  Uiso   1.00
C249   C     0.01501   0.95133   0.44560   0.00000  Uiso   1.00
H250   H     0.02550   0.91910   0.40980   0.00000  Uiso   1.00
C251   C     0.98692   0.00871   0.67500   0.00000  Uiso   1.00
H252   H     0.97880   0.01420   0.79300   0.00000  Uiso   1.00
C253   C     0.00535   0.70336   0.25140   0.00000  Uiso   1.00
N254   N     0.01472   0.57911   0.89900   0.00000  Uiso   1.00
C255   C     0.04504   0.66940   0.25460   0.00000  Uiso   1.00
H256   H     0.07080   0.67350   0.33770   0.00000  Uiso   1.00
C257   C     0.04761   0.62901   0.13700   0.00000  Uiso   1.00
H258   H     0.07460   0.60600   0.14380   0.00000  Uiso   1.00
C259   C     0.01083   0.62271   0.01120   0.00000  Uiso   1.00
C260   C     0.96840   0.69659   0.12160   0.00000  Uiso   1.00
H261   H     0.94160   0.71980   0.11450   0.00000  Uiso   1.00
C262   C     0.97010   0.65700   0.00400   0.00000  Uiso   1.00
H263   H     0.94450   0.65300   0.92040   0.00000  Uiso   1.00
C264   C     0.99867   0.54011   0.61690   0.00000  Uiso   1.00
C265   C     0.99808   0.58309   0.74500   0.00000  Uiso   1.00
H266   H     0.98470   0.61430   0.70900   0.00000  Uiso   1.00
C267   C     0.98499   0.54867   0.44560   0.00000  Uiso   1.00
H268   H     0.97450   0.58090   0.40980   0.00000  Uiso   1.00
C269   C     0.01308   0.49129   0.67500   0.00000  Uiso   1.00
H270   H     0.02120   0.48580   0.79300   0.00000  Uiso   1.00
C271   C     0.50535   0.20336   0.75140   0.00000  Uiso   1.00
N272   N     0.51472   0.07911   0.39900   0.00000  Uiso   1.00
C273   C     0.54504   0.16940   0.75460   0.00000  Uiso   1.00
H274   H     0.57080   0.17350   0.83770   0.00000  Uiso   1.00
C275   C     0.54761   0.12901   0.63700   0.00000  Uiso   1.00
H276   H     0.57460   0.10600   0.64380   0.00000  Uiso   1.00
C277   C     0.51083   0.12271   0.51120   0.00000  Uiso   1.00
C278   C     0.46840   0.19659   0.62160   0.00000  Uiso   1.00
H279   H     0.44160   0.21980   0.61450   0.00000  Uiso   1.00
C280   C     0.47010   0.15700   0.50400   0.00000  Uiso   1.00
H281   H     0.44450   0.15300   0.42040   0.00000  Uiso   1.00
C282   C     0.49867   0.04011   0.11690   0.00000  Uiso   1.00
C283   C     0.49808   0.08309   0.24500   0.00000  Uiso   1.00
H284   H     0.48470   0.11430   0.20900   0.00000  Uiso   1.00
C285   C     0.48499   0.04867   0.94560   0.00000  Uiso   1.00
H286   H     0.47450   0.08090   0.90980   0.00000  Uiso   1.00
C287   C     0.51308   0.99129   0.17500   0.00000  Uiso   1.00
H288   H     0.52120   0.98580   0.29300   0.00000  Uiso   1.00
C289   C     0.50000   0.25000   0.87500   0.00000  Uiso   1.00
C290   C     0.00000   0.75000   0.37500   0.00000  Uiso   1.00
C291   C     0.50000   0.75000   0.12500   0.00000  Uiso   1.00
C292   C     0.00000   0.25000   0.62500   0.00000  Uiso   1.00
loop_
_geom_bond_atom_site_label_1
_geom_bond_atom_site_label_2
_geom_bond_distance
_geom_bond_site_symmetry_2
_ccdc_geom_bond_type
C1     C3      1.370   .     D
C1     C8      1.392   1_556 S
C1     C289    1.547   .     S
N2     C7      1.428   .     S
N2     C13     1.250   .     D
C3     H4      0.930   .     S
C3     C5      1.386   1_556 S
C5     C3      1.386   1_554 S
C5     H6      0.932   .     S
C5     C7      1.366   .     D
C7     C10     1.397   .     S
C8     C1      1.392   1_554 S
C8     H9      0.931   .     S
C8     C10     1.369   .     D
C10    H11     0.929   .     S
C12    C13     1.487   .     S
C12    C15     1.365   .     D
C12    C17     1.406   .     S
C13    H14     0.931   .     S
C15    H16     0.929   .     S
C15    C179    1.391   .     S
C17    H18     0.930   .     S
C17    C177    1.391   .     D
C19    C21     1.370   .     S
C19    C26     1.392   .     D
C19    C290    1.547   1_655 S
N20    C25     1.428   .     S
N20    C31     1.250   1_556 D
C21    H22     0.930   .     S
C21    C23     1.386   .     D
C23    H24     0.932   .     S
C23    C25     1.366   .     S
C25    C28     1.397   .     D
C26    H27     0.931   .     S
C26    C28     1.369   .     S
C28    H29     0.929   .     S
C30    C31     1.487   .     S
C30    C33     1.365   .     D
C30    C35     1.406   .     S
C31    N20     1.250   1_554 D
C31    H32     0.931   .     S
C33    H34     0.929   .     S
C33    C161    1.391   .     S
C35    H36     0.930   1_554 S
C35    C159    1.391   .     D
H36    C35     0.930   1_556 S
C37    C39     1.370   .     S
C37    C44     1.392   .     D
C37    C290    1.547   .     S
N38    C43     1.428   .     S
N38    C49     1.250   1_556 D
C39    H40     0.930   .     S
C39    C41     1.386   .     D
C41    H42     0.932   .     S
C41    C43     1.366   .     S
C43    C46     1.397   .     D
C44    H45     0.931   .     S
C44    C46     1.369   .     S
C46    H47     0.929   .     S
C48    C49     1.487   .     S
C48    C51     1.365   .     D
C48    C53     1.406   .     S
C49    N38     1.250   1_554 D
C49    H50     0.931   .     S
C51    H52     0.929   .     S
C51    C215    1.391   .     S
C53    H54     0.930   1_554 S
C53    C213    1.391   .     D
H54    C53     0.930   1_556 S
C55    C57     1.370   .     S
C55    C62     1.392   1_556 D
C55    C289    1.547   .     S
N56    C61     1.428   .     S
N56    C67     1.250   .     D
C57    H58     0.930   .     S
C57    C59     1.386   1_556 D
C59    C57     1.386   1_554 D
C59    H60     0.932   .     S
C59    C61     1.366   .     S
C61    C64     1.397   .     D
C62    C55     1.392   1_554 D
C62    H63     0.931   .     S
C62    C64     1.369   .     S
C64    H65     0.929   .     S
C66    C67     1.487   .     S
C66    C69     1.365   .     D
C66    C71     1.406   .     S
C67    H68     0.931   .     S
C69    H70     0.929   .     S
C69    C197    1.391   .     S
C71    H72     0.930   .     S
C71    C195    1.391   .     D
C73    C75     1.370   .     S
C73    C80     1.392   .     D
C73    C291    1.547   .     S
N74    C79     1.428   .     S
N74    C85     1.250   .     D
C75    H76     0.930   .     S
C75    C77     1.386   .     D
C77    H78     0.932   .     S
C77    C79     1.366   .     S
C79    C82     1.397   .     D
C80    H81     0.931   .     S
C80    C82     1.369   .     S
C82    H83     0.929   .     S
C84    C85     1.487   .     S
C84    C87     1.365   1_556 D
C84    C89     1.406   .     S
C85    H86     0.931   .     S
C87    C84     1.365   1_554 D
C87    H88     0.929   .     S
C87    C233    1.391   .     S
C89    H90     0.930   .     S
C89    C231    1.391   .     D
C91    C93     1.370   .     S
C91    C98     1.392   1_455 D
C91    C292    1.547   .     S
N92    C97     1.428   1_554 S
N92    C103    1.250   1_455 D
C93    H94     0.930   .     S
C93    C95     1.386   .     D
C95    H96     0.932   .     S
C95    C97     1.366   .     S
C97    N92     1.428   1_556 S
C97    C100    1.397   1_455 D
C98    C91     1.392   1_655 D
C98    H99     0.931   .     S
C98    C100    1.369   .     S
C100   C97     1.397   1_655 D
C100   H101    0.929   1_556 S
H101   C100    0.929   1_554 S
C102   C103    1.487   .     S
C102   C105    1.365   .     D
C102   C107    1.406   1_645 S
C103   N92     1.250   1_655 D
C103   H104    0.931   .     S
C105   H106    0.929   .     S
C105   C251    1.391   .     S
C107   C102    1.406   1_465 S
C107   H108    0.930   .     S
C107   C249    1.391   .     D
C109   C111    1.370   .     D
C109   C116    1.392   1_655 S
C109   C292    1.547   1_655 S
N110   C115    1.428   1_554 S
N110   C121    1.250   1_655 D
C111   H112    0.930   .     S
C111   C113    1.386   .     S
C113   H114    0.932   .     S
C113   C115    1.366   .     D
C115   N110    1.428   1_556 S
C115   C118    1.397   1_655 S
C116   C109    1.392   1_455 S
C116   H117    0.931   .     S
C116   C118    1.369   .     D
C118   C115    1.397   1_455 S
C118   H119    0.929   1_556 S
H119   C118    0.929   1_554 S
C120   C121    1.487   .     S
C120   C123    1.365   .     D
C120   C125    1.406   1_455 S
C121   N110    1.250   1_455 D
C121   H122    0.931   .     S
C123   H124    0.929   .     S
C123   C269    1.391   .     S
C125   C120    1.406   1_655 S
C125   H126    0.930   .     S
C125   C267    1.391   .     D
C127   C129    1.370   .     S
C127   C134    1.392   .     D
C127   C291    1.547   .     S
N128   C133    1.428   .     S
N128   C139    1.250   .     D
C129   H130    0.930   .     S
C129   C131    1.386   .     D
C131   H132    0.932   .     S
C131   C133    1.366   .     S
C133   C136    1.397   .     D
C134   H135    0.931   .     S
C134   C136    1.369   .     S
C136   H137    0.929   .     S
C138   C139    1.487   .     S
C138   C141    1.365   1_556 D
C138   C143    1.406   1_565 S
C139   H140    0.931   .     S
C141   C138    1.365   1_554 D
C141   H142    0.929   .     S
C141   C287    1.391   .     S
C143   C138    1.406   1_545 S
C143   H144    0.930   .     S
C143   C285    1.391   .     D
C145   C147    1.370   .     S
C145   C152    1.392   1_554 D
C145   C291    1.547   .     S
N146   C151    1.428   .     S
N146   C157    1.250   .     D
C147   H148    0.930   .     S
C147   C149    1.386   1_554 D
C149   C147    1.386   1_556 D
C149   H150    0.932   .     S
C149   C151    1.366   .     S
C151   C154    1.397   .     D
C152   C145    1.392   1_556 D
C152   H153    0.931   .     S
C152   C154    1.369   .     S
C154   H155    0.929   .     S
C156   C157    1.487   .     S
C156   C159    1.365   .     S
C156   C161    1.406   .     D
C157   H158    0.931   .     S
C159   H160    0.929   .     S
C161   H162    0.930   .     S
C163   C165    1.370   .     D
C163   C170    1.392   .     S
C163   C292    1.547   .     S
N164   C169    1.428   .     S
N164   C175    1.250   1_554 D
C165   H166    0.930   .     S
C165   C167    1.386   .     S
C167   H168    0.932   .     S
C167   C169    1.366   .     D
C169   C172    1.397   .     S
C170   H171    0.931   .     S
C170   C172    1.369   .     D
C172   H173    0.929   .     S
C174   C175    1.487   .     S
C174   C177    1.365   .     S
C174   C179    1.406   .     D
C175   N164    1.250   1_556 D
C175   H176    0.931   .     S
C177   H178    0.929   .     S
C179   H180    0.930   1_556 S
H180   C179    0.930   1_554 S
C181   C183    1.370   .     S
C181   C188    1.392   .     D
C181   C292    1.547   1_655 S
N182   C187    1.428   .     S
N182   C193    1.250   1_554 D
C183   H184    0.930   .     S
C183   C185    1.386   .     D
C185   H186    0.932   .     S
C185   C187    1.366   .     S
C187   C190    1.397   .     D
C188   H189    0.931   .     S
C188   C190    1.369   .     S
C190   H191    0.929   .     S
C192   C193    1.487   .     S
C192   C195    1.365   .     S
C192   C197    1.406   .     D
C193   N182    1.250   1_556 D
C193   H194    0.931   .     S
C195   H196    0.929   .     S
C197   H198    0.930   1_556 S
H198   C197    0.930   1_554 S
C199   C201    1.370   .     S
C199   C206    1.392   1_554 D
C199   C291    1.547   .     S
N200   C205    1.428   .     S
N200   C211    1.250   .     D
C201   H202    0.930   .     S
C201   C203    1.386   1_554 D
C203   C201    1.386   1_556 D
C203   H204    0.932   .     S
C203   C205    1.366   .     S
C205   C208    1.397   .     D
C206   C199    1.392   1_556 D
C206   H207    0.931   .     S
C206   C208    1.369   .     S
C208   H209    0.929   .     S
C210   C211    1.487   .     S
C210   C213    1.365   .     S
C210   C215    1.406   .     D
C211   H212    0.931   .     S
C213   H214    0.929   .     S
C215   H216    0.930   .     S
C217   C219    1.370   .     S
C217   C224    1.392   .     D
C217   C289    1.547   .     S
N218   C223    1.428   .     S
N218   C229    1.250   .     D
C219   H220    0.930   .     S
C219   C221    1.386   .     D
C221   H222    0.932   .     S
C221   C223    1.366   .     S
C223   C226    1.397   .     D
C224   H225    0.931   .     S
C224   C226    1.369   .     S
C226   H227    0.929   .     S
C228   C229    1.487   .     S
C228   C231    1.365   1_554 S
C228   C233    1.406   .     D
C229   H230    0.931   .     S
C231   C228    1.365   1_556 S
C231   H232    0.929   .     S
C233   H234    0.930   .     S
C235   C237    1.370   .     S
C235   C242    1.392   1_655 D
C235   C290    1.547   1_655 S
N236   C241    1.428   1_556 S
N236   C247    1.250   1_655 D
C237   H238    0.930   .     S
C237   C239    1.386   .     D
C239   H240    0.932   .     S
C239   C241    1.366   .     S
C241   N236    1.428   1_554 S
C241   C244    1.397   1_655 D
C242   C235    1.392   1_455 D
C242   H243    0.931   .     S
C242   C244    1.369   .     S
C244   C241    1.397   1_455 D
C244   H245    0.929   1_554 S
H245   C244    0.929   1_556 S
C246   C247    1.487   .     S
C246   C249    1.365   .     S
C246   C251    1.406   1_465 D
C247   N236    1.250   1_455 D
C247   H248    0.931   .     S
C249   H250    0.929   .     S
C251   C246    1.406   1_645 D
C251   H252    0.930   .     S
C253   C255    1.370   .     D
C253   C260    1.392   1_455 S
C253   C290    1.547   .     S
N254   C259    1.428   1_556 S
N254   C265    1.250   1_455 D
C255   H256    0.930   .     S
C255   C257    1.386   .     S
C257   H258    0.932   .     S
C257   C259    1.366   .     D
C259   N254    1.428   1_554 S
C259   C262    1.397   1_455 S
C260   C253    1.392   1_655 S
C260   H261    0.931   .     S
C260   C262    1.369   .     D
C262   C259    1.397   1_655 S
C262   H263    0.929   1_554 S
H263   C262    0.929   1_556 S
C264   C265    1.487   .     S
C264   C267    1.365   .     S
C264   C269    1.406   1_655 D
C265   N254    1.250   1_655 D
C265   H266    0.931   .     S
C267   H268    0.929   .     S
C269   C264    1.406   1_455 D
C269   H270    0.930   .     S
C271   C273    1.370   .     S
C271   C278    1.392   .     D
C271   C289    1.547   .     S
N272   C277    1.428   .     S
N272   C283    1.250   .     D
C273   H274    0.930   .     S
C273   C275    1.386   .     D
C275   H276    0.932   .     S
C275   C277    1.366   .     S
C277   C280    1.397   .     D
C278   H279    0.931   .     S
C278   C280    1.369   .     S
C280   H281    0.929   .     S
C282   C283    1.487   .     S
C282   C285    1.365   1_554 S
C282   C287    1.406   1_545 D
C283   H284    0.931   .     S
C285   C282    1.365   1_556 S
C285   H286    0.929   .     S
C287   C282    1.406   1_565 D
C287   H288    0.930   .     S
C290   C235    1.547   1_455 S
C290   C19     1.547   1_455 S
C292   C181    1.547   1_455 S
C292   C109    1.547   1_455 S
