data_1070
_audit_creation_date              2023-09-08
_audit_creation_method            'Materials Studio'
_symmetry_space_group_name_H-M    'P1'
_symmetry_Int_Tables_number       1
_symmetry_cell_setting            triclinic
loop_
_symmetry_equiv_pos_as_xyz
  x,y,z
_cell_length_a                    15.9491
_cell_length_b                    15.9491
_cell_length_c                    7.2979
_cell_angle_alpha                 90.0000
_cell_angle_beta                  90.0000
_cell_angle_gamma                 120.0000
loop_
_atom_site_label
_atom_site_type_symbol
_atom_site_fract_x
_atom_site_fract_y
_atom_site_fract_z
_atom_site_U_iso_or_equiv
_atom_site_adp_type
_atom_site_occupancy
C1     C     0.45434   0.97388   0.21417   0.00000  Uiso   1.00
C2     C     0.48673   0.93173   0.29872   0.00000  Uiso   1.00
C3     C     0.44948   0.83469   0.29979   0.00000  Uiso   1.00
C4     C     0.37689   0.77755   0.21346   0.00000  Uiso   1.00
C5     C     0.34348   0.82116   0.12839   0.00000  Uiso   1.00
C6     C     0.38243   0.91843   0.13100   0.00000  Uiso   1.00
N7     N     0.58111   0.50801   0.21431   0.00000  Uiso   1.00
C8     C     0.54882   0.41148   0.24278   0.00000  Uiso   1.00
C9     C     0.60632   0.37635   0.26116   0.00000  Uiso   1.00
C10    C     0.56481   0.27407   0.27422   0.00000  Uiso   1.00
O11    O     0.48241   0.22706   0.30224   0.00000  Uiso   1.00
C12    C     0.48829   0.79516   0.39514   0.00000  Uiso   1.00
C13    C     0.26734   0.76691   0.03311   0.00000  Uiso   1.00
H14    H     0.54055   0.97496   0.36549   0.00000  Uiso   1.00
H15    H     0.35721   0.95196   0.06713   0.00000  Uiso   1.00
H16    H     0.64929   0.55086   0.18122   0.00000  Uiso   1.00
H17    H     0.47384   0.36318   0.24243   0.00000  Uiso   1.00
H18    H     0.53019   0.76930   0.34603   0.00000  Uiso   1.00
H19    H     0.43076   0.73671   0.44728   0.00000  Uiso   1.00
H20    H     0.53445   0.84802   0.46530   0.00000  Uiso   1.00
H21    H     0.28316   0.71919  -0.02096   0.00000  Uiso   1.00
H22    H     0.25898   0.81315  -0.03527   0.00000  Uiso   1.00
H23    H     0.19961   0.72547   0.08241   0.00000  Uiso   1.00
C24    C     0.78810   0.64037   0.74570   0.00000  Uiso   1.00
C25    C     0.82050   0.59926   0.83203   0.00000  Uiso   1.00
C26    C     0.78343   0.50227   0.83510   0.00000  Uiso   1.00
C27    C     0.71002   0.44405   0.75074   0.00000  Uiso   1.00
C28    C     0.67615   0.48649   0.66455   0.00000  Uiso   1.00
C29    C     0.71603   0.58384   0.66340   0.00000  Uiso   1.00
N30    N     0.91365   0.17401   0.74301   0.00000  Uiso   1.00
C31    C     0.88180   0.07768   0.77243   0.00000  Uiso   1.00
C32    C     0.93942   0.04289   0.79274   0.00000  Uiso   1.00
C33    C     0.89792   0.94043   0.80449   0.00000  Uiso   1.00
O34    O     0.81450   0.89272   0.82677   0.00000  Uiso   1.00
C35    C     0.82312   0.46383   0.93055   0.00000  Uiso   1.00
C36    C     0.59852   0.43113   0.57190   0.00000  Uiso   1.00
H37    H     0.87432   0.64330   0.89841   0.00000  Uiso   1.00
H38    H     0.69143   0.61649   0.59706   0.00000  Uiso   1.00
H39    H     0.98091   0.21596   0.70665   0.00000  Uiso   1.00
H40    H     0.80692   0.02927   0.77115   0.00000  Uiso   1.00
H41    H     0.86343   0.43597   0.88203   0.00000  Uiso   1.00
H42    H     0.76610   0.40719   0.98579   0.00000  Uiso   1.00
H43    H     0.87139   0.51806   0.99765   0.00000  Uiso   1.00
H44    H     0.60881   0.37685   0.52605   0.00000  Uiso   1.00
H45    H     0.59631   0.47592   0.49530   0.00000  Uiso   1.00
H46    H     0.53028   0.39716   0.62128   0.00000  Uiso   1.00
C47    C     0.02612   0.48046   0.21417   0.00000  Uiso   1.00
C48    C     0.06827   0.55500   0.29872   0.00000  Uiso   1.00
C49    C     0.16531   0.61479   0.29979   0.00000  Uiso   1.00
C50    C     0.22245   0.59934   0.21346   0.00000  Uiso   1.00
C51    C     0.17884   0.52232   0.12839   0.00000  Uiso   1.00
C52    C     0.08157   0.46400   0.13100   0.00000  Uiso   1.00
N53    N     0.49199   0.07310   0.21431   0.00000  Uiso   1.00
C54    C     0.58852   0.13734   0.24278   0.00000  Uiso   1.00
C55    C     0.62365   0.22997   0.26116   0.00000  Uiso   1.00
C56    C     0.72593   0.29074   0.27422   0.00000  Uiso   1.00
O57    O     0.77294   0.25535   0.30224   0.00000  Uiso   1.00
C58    C     0.20484   0.69313   0.39514   0.00000  Uiso   1.00
C59    C     0.23309   0.50043   0.03311   0.00000  Uiso   1.00
H60    H     0.02504   0.56559   0.36549   0.00000  Uiso   1.00
H61    H     0.04804   0.40525   0.06713   0.00000  Uiso   1.00
H62    H     0.44914   0.09843   0.18122   0.00000  Uiso   1.00
H63    H     0.63682   0.11066   0.24243   0.00000  Uiso   1.00
H64    H     0.23070   0.76089   0.34603   0.00000  Uiso   1.00
H65    H     0.26329   0.69405   0.44728   0.00000  Uiso   1.00
H66    H     0.15198   0.68643   0.46530   0.00000  Uiso   1.00
H67    H     0.28081   0.56397  -0.02096   0.00000  Uiso   1.00
H68    H     0.18685   0.44583  -0.03527   0.00000  Uiso   1.00
H69    H     0.27453   0.47414   0.08241   0.00000  Uiso   1.00
C70    C     0.35963   0.14773   0.74570   0.00000  Uiso   1.00
C71    C     0.40074   0.22124   0.83203   0.00000  Uiso   1.00
C72    C     0.49773   0.28116   0.83510   0.00000  Uiso   1.00
C73    C     0.55595   0.26597   0.75074   0.00000  Uiso   1.00
C74    C     0.51351   0.18966   0.66455   0.00000  Uiso   1.00
C75    C     0.41616   0.13219   0.66340   0.00000  Uiso   1.00
N76    N     0.82599   0.73964   0.74301   0.00000  Uiso   1.00
C77    C     0.92232   0.80412   0.77243   0.00000  Uiso   1.00
C78    C     0.95711   0.89653   0.79274   0.00000  Uiso   1.00
C79    C     0.05957   0.95749   0.80449   0.00000  Uiso   1.00
O80    O     0.10728   0.92178   0.82677   0.00000  Uiso   1.00
C81    C     0.53617   0.35929   0.93055   0.00000  Uiso   1.00
C82    C     0.56887   0.16739   0.57190   0.00000  Uiso   1.00
H83    H     0.35670   0.23102   0.89841   0.00000  Uiso   1.00
H84    H     0.38351   0.07494   0.59706   0.00000  Uiso   1.00
H85    H     0.78404   0.76495   0.70665   0.00000  Uiso   1.00
H86    H     0.97073   0.77765   0.77115   0.00000  Uiso   1.00
H87    H     0.56403   0.42746   0.88203   0.00000  Uiso   1.00
H88    H     0.59281   0.35891   0.98579   0.00000  Uiso   1.00
H89    H     0.48194   0.35333   0.99765   0.00000  Uiso   1.00
H90    H     0.62315   0.23196   0.52605   0.00000  Uiso   1.00
H91    H     0.52408   0.12039   0.49530   0.00000  Uiso   1.00
H92    H     0.60284   0.13312   0.62128   0.00000  Uiso   1.00
C93    C     0.51954   0.54566   0.21417   0.00000  Uiso   1.00
C94    C     0.44500   0.51327   0.29872   0.00000  Uiso   1.00
C95    C     0.38521   0.55052   0.29979   0.00000  Uiso   1.00
C96    C     0.40066   0.62311   0.21346   0.00000  Uiso   1.00
C97    C     0.47768   0.65652   0.12839   0.00000  Uiso   1.00
C98    C     0.53600   0.61757   0.13100   0.00000  Uiso   1.00
N99    N     0.92690   0.41889   0.21431   0.00000  Uiso   1.00
C100   C     0.86266   0.45118   0.24278   0.00000  Uiso   1.00
C101   C     0.77003   0.39368   0.26116   0.00000  Uiso   1.00
C102   C     0.70926   0.43519   0.27422   0.00000  Uiso   1.00
O103   O     0.74465   0.51759   0.30224   0.00000  Uiso   1.00
C104   C     0.30687   0.51171   0.39514   0.00000  Uiso   1.00
C105   C     0.49957   0.73266   0.03311   0.00000  Uiso   1.00
H106   H     0.43441   0.45945   0.36549   0.00000  Uiso   1.00
H107   H     0.59475   0.64279   0.06713   0.00000  Uiso   1.00
H108   H     0.90157   0.35071   0.18122   0.00000  Uiso   1.00
H109   H     0.88934   0.52616   0.24243   0.00000  Uiso   1.00
H110   H     0.23911   0.46981   0.34603   0.00000  Uiso   1.00
H111   H     0.30595   0.56924   0.44728   0.00000  Uiso   1.00
H112   H     0.31357   0.46555   0.46530   0.00000  Uiso   1.00
H113   H     0.43603   0.71684  -0.02096   0.00000  Uiso   1.00
H114   H     0.55417   0.74102  -0.03527   0.00000  Uiso   1.00
H115   H     0.52586   0.80039   0.08241   0.00000  Uiso   1.00
C116   C     0.85227   0.21190   0.74570   0.00000  Uiso   1.00
C117   C     0.77876   0.17950   0.83203   0.00000  Uiso   1.00
C118   C     0.71884   0.21657   0.83510   0.00000  Uiso   1.00
C119   C     0.73403   0.28998   0.75074   0.00000  Uiso   1.00
C120   C     0.81034   0.32385   0.66455   0.00000  Uiso   1.00
C121   C     0.86781   0.28397   0.66340   0.00000  Uiso   1.00
N122   N     0.26036   0.08635   0.74301   0.00000  Uiso   1.00
C123   C     0.19588   0.11820   0.77243   0.00000  Uiso   1.00
C124   C     0.10347   0.06058   0.79274   0.00000  Uiso   1.00
C125   C     0.04251   0.10208   0.80449   0.00000  Uiso   1.00
O126   O     0.07822   0.18550   0.82677   0.00000  Uiso   1.00
C127   C     0.64071   0.17688   0.93055   0.00000  Uiso   1.00
C128   C     0.83261   0.40148   0.57190   0.00000  Uiso   1.00
H129   H     0.76898   0.12568   0.89841   0.00000  Uiso   1.00
H130   H     0.92506   0.30857   0.59706   0.00000  Uiso   1.00
H131   H     0.23505   0.01909   0.70665   0.00000  Uiso   1.00
H132   H     0.22235   0.19308   0.77115   0.00000  Uiso   1.00
H133   H     0.57254   0.13657   0.88203   0.00000  Uiso   1.00
H134   H     0.64109   0.23390   0.98579   0.00000  Uiso   1.00
H135   H     0.64667   0.12861   0.99765   0.00000  Uiso   1.00
H136   H     0.76804   0.39119   0.52605   0.00000  Uiso   1.00
H137   H     0.87961   0.40369   0.49530   0.00000  Uiso   1.00
H138   H     0.86688   0.46972   0.62128   0.00000  Uiso   1.00
B139   B     0.33333   0.66667   0.21271   0.00000  Uiso   1.00
B140   B     0.66667   0.33333   0.75274   0.00000  Uiso   1.00
loop_
_geom_bond_atom_site_label_1
_geom_bond_atom_site_label_2
_geom_bond_distance
_geom_bond_site_symmetry_2
_ccdc_geom_bond_type
C1     C2      1.203   .     D
C1     C6      1.205   .     S
C1     N53     1.384   1_565 S
C2     C3      1.352   .     S
C2     H14     0.926   .     S
C3     C4      1.230   .     D
C3     C12     1.287   .     S
C4     C5      1.234   .     S
C4     B139    1.543   .     S
C5     C6      1.353   .     D
C5     C13     1.287   .     S
C6     H15     0.938   .     S
N7     C8      1.373   .     S
N7     H16     0.982   .     S
N7     C93     1.384   .     S
C8     C9      1.299   .     D
C8     H17     1.050   .     S
C9     C10     1.424   .     S
C9     C102    1.430   .     S
C10    O11     1.160   .     D
C10    C55     1.430   .     S
C12    H18     1.010   .     S
C12    H19     1.000   .     S
C12    H20     0.946   .     S
C13    H21     0.995   .     S
C13    H22     0.953   .     S
C13    H23     1.010   .     S
C24    C25     1.197   .     D
C24    C29     1.208   .     S
C24    N76     1.384   .     S
C25    C26     1.352   .     S
C25    H37     0.928   .     S
C26    C27     1.235   .     D
C26    C35     1.284   .     S
C27    C28     1.229   .     S
C27    B140    1.541   .     S
C28    C29     1.352   .     D
C28    C36     1.295   .     S
C29    H38     0.929   .     S
N30    C31     1.373   .     S
N30    H39     0.975   .     S
N30    C116    1.384   .     S
C31    C32     1.298   .     D
C31    H40     1.049   .     S
C32    C33     1.426   1_545 S
C32    C125    1.432   1_655 S
C33    O34     1.168   .     D
C33    C78     1.432   .     S
C33    C32     1.426   1_565 S
C35    H41     1.011   .     S
C35    H42     0.992   .     S
C35    H43     0.956   .     S
C36    H44     1.015   .     S
C36    H45     0.922   .     S
C36    H46     1.009   .     S
C47    C48     1.203   .     D
C47    C52     1.205   .     S
C47    N99     1.384   1_455 S
C48    C49     1.352   .     S
C48    H60     0.926   .     S
C49    C50     1.230   .     D
C49    C58     1.287   .     S
C50    C51     1.234   .     S
C50    B139    1.543   .     S
C51    C52     1.353   .     D
C51    C59     1.287   .     S
C52    H61     0.938   .     S
N53    C54     1.373   .     S
N53    H62     0.982   .     S
N53    C1      1.384   1_545 S
C54    C55     1.299   .     D
C54    H63     1.050   .     S
C55    C56     1.424   .     S
C56    O57     1.160   .     D
C56    C101    1.430   .     S
C58    H64     1.010   .     S
C58    H65     1.000   .     S
C58    H66     0.946   .     S
C59    H67     0.995   .     S
C59    H68     0.953   .     S
C59    H69     1.010   .     S
C70    C71     1.197   .     D
C70    C75     1.208   .     S
C70    N122    1.384   .     S
C71    C72     1.352   .     S
C71    H83     0.928   .     S
C72    C73     1.235   .     D
C72    C81     1.284   .     S
C73    C74     1.229   .     S
C73    B140    1.541   .     S
C74    C75     1.352   .     D
C74    C82     1.295   .     S
C75    H84     0.929   .     S
N76    C77     1.373   .     S
N76    H85     0.975   .     S
C77    C78     1.298   .     D
C77    H86     1.049   .     S
C78    C79     1.426   1_655 S
C79    O80     1.168   .     D
C79    C78     1.426   1_455 S
C79    C124    1.432   1_565 S
C81    H87     1.011   .     S
C81    H88     0.992   .     S
C81    H89     0.956   .     S
C82    H90     1.015   .     S
C82    H91     0.922   .     S
C82    H92     1.009   .     S
C93    C94     1.203   .     D
C93    C98     1.205   .     S
C94    C95     1.352   .     S
C94    H106    0.926   .     S
C95    C96     1.230   .     D
C95    C104    1.287   .     S
C96    C97     1.234   .     S
C96    B139    1.543   .     S
C97    C98     1.353   .     D
C97    C105    1.287   .     S
C98    H107    0.938   .     S
N99    C100    1.373   .     S
N99    H108    0.982   .     S
N99    C47     1.384   1_655 S
C100   C101    1.299   .     D
C100   H109    1.050   .     S
C101   C102    1.424   .     S
C102   O103    1.160   .     D
C104   H110    1.010   .     S
C104   H111    1.000   .     S
C104   H112    0.946   .     S
C105   H113    0.995   .     S
C105   H114    0.953   .     S
C105   H115    1.010   .     S
C116   C117    1.197   .     D
C116   C121    1.208   .     S
C117   C118    1.352   .     S
C117   H129    0.928   .     S
C118   C119    1.235   .     D
C118   C127    1.284   .     S
C119   C120    1.229   .     S
C119   B140    1.541   .     S
C120   C121    1.352   .     D
C120   C128    1.295   .     S
C121   H130    0.929   .     S
N122   C123    1.373   .     S
N122   H131    0.975   .     S
C123   C124    1.298   .     D
C123   H132    1.049   .     S
C124   C125    1.426   .     S
C124   C79     1.432   1_545 S
C125   O126    1.168   .     D
C125   C32     1.432   1_455 S
C127   H133    1.011   .     S
C127   H134    0.992   .     S
C127   H135    0.956   .     S
C128   H136    1.015   .     S
C128   H137    0.922   .     S
C128   H138    1.009   .     S
