data_1071
_audit_creation_date              2023-09-08
_audit_creation_method            'Materials Studio'
_symmetry_space_group_name_H-M    'P1'
_symmetry_Int_Tables_number       1
_symmetry_cell_setting            triclinic
loop_
_symmetry_equiv_pos_as_xyz
  x,y,z
_cell_length_a                    44.7306
_cell_length_b                    44.7306
_cell_length_c                    3.5746
_cell_angle_alpha                 90.0000
_cell_angle_beta                  90.0000
_cell_angle_gamma                 120.0000
loop_
_atom_site_label
_atom_site_type_symbol
_atom_site_fract_x
_atom_site_fract_y
_atom_site_fract_z
_atom_site_U_iso_or_equiv
_atom_site_adp_type
_atom_site_occupancy
C1     C     0.34911   0.70220   0.00000   0.00000  Uiso   1.00
C2     C     0.36882   0.68582   0.00000   0.00000  Uiso   1.00
C3     C     0.37423   0.63282   0.00000   0.00000  Uiso   1.00
C4     C     0.41038   0.65256   0.00000   0.00000  Uiso   1.00
C5     C     0.43033   0.63658   0.00000   0.00000  Uiso   1.00
C6     C     0.41454   0.60064   0.00000   0.00000  Uiso   1.00
C7     C     0.37841   0.58073   0.00000   0.00000  Uiso   1.00
C8     C     0.35847   0.59672   0.00000   0.00000  Uiso   1.00
N9     N     0.43572   0.58505   0.00000   0.00000  Uiso   1.00
C10    C     0.42327   0.55197   0.00000   0.00000  Uiso   1.00
C11    C     0.44589   0.53709   0.00000   0.00000  Uiso   1.00
C12    C     0.43120   0.50127   0.00000   0.00000  Uiso   1.00
C13    C     0.45224   0.48646   0.00000   0.00000  Uiso   1.00
C14    C     0.48830   0.50730   0.00000   0.00000  Uiso   1.00
C15    C     0.50285   0.54328   0.00000   0.00000  Uiso   1.00
C16    C     0.48183   0.55809   0.00000   0.00000  Uiso   1.00
C17    C     0.29780   0.64691   0.00000   0.00000  Uiso   1.00
C18    C     0.31418   0.68300   0.00000   0.00000  Uiso   1.00
C19    C     0.36718   0.74141   0.00000   0.00000  Uiso   1.00
C20    C     0.34744   0.75782   0.00000   0.00000  Uiso   1.00
C21    C     0.36342   0.79375   0.00000   0.00000  Uiso   1.00
C22    C     0.39936   0.81390   0.00000   0.00000  Uiso   1.00
C23    C     0.41927   0.79768   0.00000   0.00000  Uiso   1.00
C24    C     0.40328   0.76175   0.00000   0.00000  Uiso   1.00
N25    N     0.41495   0.85067   0.00000   0.00000  Uiso   1.00
C26    C     0.44803   0.87130   0.00000   0.00000  Uiso   1.00
C27    C     0.46291   0.90880   0.00000   0.00000  Uiso   1.00
C28    C     0.49873   0.92993   0.00000   0.00000  Uiso   1.00
C29    C     0.51354   0.96578   0.00000   0.00000  Uiso   1.00
C30    C     0.49270   0.98100   0.00000   0.00000  Uiso   1.00
C31    C     0.45672   0.95957   0.00000   0.00000  Uiso   1.00
C32    C     0.44191   0.92374   0.00000   0.00000  Uiso   1.00
C33    C     0.35309   0.65089   0.00000   0.00000  Uiso   1.00
C34    C     0.31700   0.63118   0.00000   0.00000  Uiso   1.00
C35    C     0.25859   0.62577   0.00000   0.00000  Uiso   1.00
C36    C     0.24218   0.58962   0.00000   0.00000  Uiso   1.00
C37    C     0.20625   0.56967   0.00000   0.00000  Uiso   1.00
C38    C     0.18610   0.58546   0.00000   0.00000  Uiso   1.00
C39    C     0.20232   0.62159   0.00000   0.00000  Uiso   1.00
C40    C     0.23825   0.64153   0.00000   0.00000  Uiso   1.00
N41    N     0.14933   0.56428   0.00000   0.00000  Uiso   1.00
C42    C     0.12870   0.57673   0.00000   0.00000  Uiso   1.00
C43    C     0.09120   0.55411   0.00000   0.00000  Uiso   1.00
C44    C     0.07007   0.56880   0.00000   0.00000  Uiso   1.00
C45    C     0.03422   0.54776   0.00000   0.00000  Uiso   1.00
C46    C     0.01900   0.51170   0.00000   0.00000  Uiso   1.00
C47    C     0.04043   0.49715   0.00000   0.00000  Uiso   1.00
C48    C     0.07626   0.51817   0.00000   0.00000  Uiso   1.00
C49    C     0.65089   0.29780   0.00000   0.00000  Uiso   1.00
C50    C     0.63118   0.31418   0.00000   0.00000  Uiso   1.00
C51    C     0.62577   0.36718   0.00000   0.00000  Uiso   1.00
C52    C     0.58962   0.34744   0.00000   0.00000  Uiso   1.00
C53    C     0.56967   0.36342   0.00000   0.00000  Uiso   1.00
C54    C     0.58546   0.39936   0.00000   0.00000  Uiso   1.00
C55    C     0.62159   0.41927   0.00000   0.00000  Uiso   1.00
C56    C     0.64153   0.40328   0.00000   0.00000  Uiso   1.00
N57    N     0.56428   0.41495   0.00000   0.00000  Uiso   1.00
C58    C     0.57673   0.44803   0.00000   0.00000  Uiso   1.00
C59    C     0.55411   0.46291   0.00000   0.00000  Uiso   1.00
C60    C     0.56880   0.49873   0.00000   0.00000  Uiso   1.00
C61    C     0.54776   0.51354   0.00000   0.00000  Uiso   1.00
C62    C     0.51170   0.49270   0.00000   0.00000  Uiso   1.00
C63    C     0.49715   0.45672   0.00000   0.00000  Uiso   1.00
C64    C     0.51817   0.44191   0.00000   0.00000  Uiso   1.00
C65    C     0.70220   0.35309   0.00000   0.00000  Uiso   1.00
C66    C     0.68582   0.31700   0.00000   0.00000  Uiso   1.00
C67    C     0.63282   0.25859   0.00000   0.00000  Uiso   1.00
C68    C     0.65256   0.24218   0.00000   0.00000  Uiso   1.00
C69    C     0.63658   0.20625   0.00000   0.00000  Uiso   1.00
C70    C     0.60064   0.18610   0.00000   0.00000  Uiso   1.00
C71    C     0.58073   0.20232   0.00000   0.00000  Uiso   1.00
C72    C     0.59672   0.23825   0.00000   0.00000  Uiso   1.00
N73    N     0.58505   0.14933   0.00000   0.00000  Uiso   1.00
C74    C     0.55197   0.12870   0.00000   0.00000  Uiso   1.00
C75    C     0.53709   0.09120   0.00000   0.00000  Uiso   1.00
C76    C     0.50127   0.07007   0.00000   0.00000  Uiso   1.00
C77    C     0.48646   0.03422   0.00000   0.00000  Uiso   1.00
C78    C     0.50730   0.01900   0.00000   0.00000  Uiso   1.00
C79    C     0.54328   0.04043   0.00000   0.00000  Uiso   1.00
C80    C     0.55809   0.07626   0.00000   0.00000  Uiso   1.00
C81    C     0.64691   0.34911   0.00000   0.00000  Uiso   1.00
C82    C     0.68300   0.36882   0.00000   0.00000  Uiso   1.00
C83    C     0.74141   0.37423   0.00000   0.00000  Uiso   1.00
C84    C     0.75782   0.41038   0.00000   0.00000  Uiso   1.00
C85    C     0.79375   0.43033   0.00000   0.00000  Uiso   1.00
C86    C     0.81390   0.41454   0.00000   0.00000  Uiso   1.00
C87    C     0.79768   0.37841   0.00000   0.00000  Uiso   1.00
C88    C     0.76175   0.35847   0.00000   0.00000  Uiso   1.00
N89    N     0.85067   0.43572   0.00000   0.00000  Uiso   1.00
C90    C     0.87130   0.42327   0.00000   0.00000  Uiso   1.00
C91    C     0.90880   0.44589   0.00000   0.00000  Uiso   1.00
C92    C     0.92993   0.43120   0.00000   0.00000  Uiso   1.00
C93    C     0.96578   0.45224   0.00000   0.00000  Uiso   1.00
C94    C     0.98100   0.48830   0.00000   0.00000  Uiso   1.00
C95    C     0.95957   0.50285   0.00000   0.00000  Uiso   1.00
C96    C     0.92374   0.48183   0.00000   0.00000  Uiso   1.00
H97    H     0.39821   0.70187   0.00000   0.00000  Uiso   1.00
H98    H     0.42372   0.68195   0.00000   0.00000  Uiso   1.00
H99    H     0.45970   0.65289   0.00000   0.00000  Uiso   1.00
H100   H     0.36522   0.55135   0.00000   0.00000  Uiso   1.00
H101   H     0.32912   0.58018   0.00000   0.00000  Uiso   1.00
H102   H     0.39414   0.53380   0.00000   0.00000  Uiso   1.00
H103   H     0.40193   0.48400   0.00000   0.00000  Uiso   1.00
H104   H     0.44014   0.45718   0.00000   0.00000  Uiso   1.00
H105   H     0.53210   0.56070   0.00000   0.00000  Uiso   1.00
H106   H     0.49393   0.58737   0.00000   0.00000  Uiso   1.00
H107   H     0.29803   0.69623   0.00000   0.00000  Uiso   1.00
H108   H     0.31805   0.74177   0.00000   0.00000  Uiso   1.00
H109   H     0.34711   0.80681   0.00000   0.00000  Uiso   1.00
H110   H     0.44865   0.81387   0.00000   0.00000  Uiso   1.00
H111   H     0.41982   0.74894   0.00000   0.00000  Uiso   1.00
H112   H     0.46620   0.86034   0.00000   0.00000  Uiso   1.00
H113   H     0.51600   0.91793   0.00000   0.00000  Uiso   1.00
H114   H     0.54282   0.98297   0.00000   0.00000  Uiso   1.00
H115   H     0.43930   0.97140   0.00000   0.00000  Uiso   1.00
H116   H     0.41262   0.90663   0.00000   0.00000  Uiso   1.00
H117   H     0.30366   0.60179   0.00000   0.00000  Uiso   1.00
H118   H     0.25823   0.57628   0.00000   0.00000  Uiso   1.00
H119   H     0.19319   0.54030   0.00000   0.00000  Uiso   1.00
H120   H     0.18613   0.63478   0.00000   0.00000  Uiso   1.00
H121   H     0.25132   0.67090   0.00000   0.00000  Uiso   1.00
H122   H     0.13966   0.60586   0.00000   0.00000  Uiso   1.00
H123   H     0.08207   0.59807   0.00000   0.00000  Uiso   1.00
H124   H     0.01703   0.55986   0.00000   0.00000  Uiso   1.00
H125   H     0.02860   0.46790   0.00000   0.00000  Uiso   1.00
H126   H     0.09337   0.50599   0.00000   0.00000  Uiso   1.00
H127   H     0.60179   0.29813   0.00000   0.00000  Uiso   1.00
H128   H     0.57628   0.31805   0.00000   0.00000  Uiso   1.00
H129   H     0.54030   0.34711   0.00000   0.00000  Uiso   1.00
H130   H     0.63478   0.44865   0.00000   0.00000  Uiso   1.00
H131   H     0.67090   0.41958   0.00000   0.00000  Uiso   1.00
H132   H     0.60586   0.46620   0.00000   0.00000  Uiso   1.00
H133   H     0.59807   0.51600   0.00000   0.00000  Uiso   1.00
H134   H     0.55986   0.54282   0.00000   0.00000  Uiso   1.00
H135   H     0.46790   0.43930   0.00000   0.00000  Uiso   1.00
H136   H     0.50599   0.41262   0.00000   0.00000  Uiso   1.00
H137   H     0.70197   0.30377   0.00000   0.00000  Uiso   1.00
H138   H     0.68195   0.25823   0.00000   0.00000  Uiso   1.00
H139   H     0.65289   0.19319   0.00000   0.00000  Uiso   1.00
H140   H     0.55135   0.18613   0.00000   0.00000  Uiso   1.00
H141   H     0.58018   0.25106   0.00000   0.00000  Uiso   1.00
H142   H     0.53380   0.13966   0.00000   0.00000  Uiso   1.00
H143   H     0.48400   0.08207   0.00000   0.00000  Uiso   1.00
H144   H     0.45718   0.01703   0.00000   0.00000  Uiso   1.00
H145   H     0.56070   0.02860   0.00000   0.00000  Uiso   1.00
H146   H     0.58737   0.09344   0.00000   0.00000  Uiso   1.00
H147   H     0.69634   0.39821   0.00000   0.00000  Uiso   1.00
H148   H     0.74177   0.42372   0.00000   0.00000  Uiso   1.00
H149   H     0.80681   0.45970   0.00000   0.00000  Uiso   1.00
H150   H     0.81387   0.36522   0.00000   0.00000  Uiso   1.00
H151   H     0.74868   0.32910   0.00000   0.00000  Uiso   1.00
H152   H     0.86034   0.39414   0.00000   0.00000  Uiso   1.00
H153   H     0.91793   0.40193   0.00000   0.00000  Uiso   1.00
H154   H     0.98297   0.44014   0.00000   0.00000  Uiso   1.00
H155   H     0.97140   0.53210   0.00000   0.00000  Uiso   1.00
H156   H     0.90656   0.49393   0.00000   0.00000  Uiso   1.00
loop_
_geom_bond_atom_site_label_1
_geom_bond_atom_site_label_2
_geom_bond_distance
_geom_bond_site_symmetry_2
_ccdc_geom_bond_type
C1     C2      1.400   .     D
C1     C18     1.355   .     S
C1     C19     1.520   .     S
C2     C33     1.355   .     S
C2     H97     1.140   .     S
C3     C4      1.402   .     D
C3     C8      1.402   .     S
C3     C33     1.520   .     S
C4     C5      1.395   .     S
C4     H98     1.140   .     S
C5     C6      1.396   .     D
C5     H99     1.140   .     S
C6     C7      1.402   .     S
C6     N9      1.430   .     S
C7     C8      1.395   .     D
C7     H100    1.140   .     S
C8     H101    1.140   .     S
N9     C10     1.294   .     D
C10    C11     1.463   .     S
C10    H102    1.140   .     S
C11    C12     1.395   .     D
C11    C16     1.399   .     S
C12    C13     1.396   .     S
C12    H103    1.140   .     S
C13    C14     1.403   .     D
C13    H104    1.140   .     S
C14    C15     1.402   .     S
C14    C62     1.485   .     S
C15    C16     1.395   .     D
C15    H105    1.140   .     S
C16    H106    1.140   .     S
C17    C18     1.400   .     D
C17    C34     1.355   .     S
C17    C35     1.520   .     S
C18    H107    1.140   .     S
C19    C20     1.402   .     D
C19    C24     1.402   .     S
C20    C21     1.395   .     S
C20    H108    1.140   .     S
C21    C22     1.396   .     D
C21    H109    1.140   .     S
C22    C23     1.402   .     S
C22    N25     1.430   .     S
C23    C24     1.395   .     D
C23    H110    1.140   .     S
C24    H111    1.140   .     S
N25    C26     1.294   .     D
C26    C27     1.463   .     S
C26    H112    1.140   .     S
C27    C28     1.395   .     D
C27    C32     1.399   .     S
C28    C29     1.396   .     S
C28    H113    1.140   .     S
C29    C30     1.403   .     D
C29    H114    1.140   .     S
C30    C31     1.402   .     S
C30    C78     1.485   1_565 S
C31    C32     1.395   .     D
C31    H115    1.140   .     S
C32    H116    1.140   .     S
C33    C34     1.400   .     D
C34    H117    1.140   .     S
C35    C36     1.402   .     D
C35    C40     1.402   .     S
C36    C37     1.395   .     S
C36    H118    1.140   .     S
C37    C38     1.396   .     D
C37    H119    1.140   .     S
C38    C39     1.402   .     S
C38    N41     1.430   .     S
C39    C40     1.395   .     D
C39    H120    1.140   .     S
C40    H121    1.140   .     S
N41    C42     1.294   .     D
C42    C43     1.463   .     S
C42    H122    1.140   .     S
C43    C44     1.395   .     D
C43    C48     1.399   .     S
C44    C45     1.396   .     S
C44    H123    1.140   .     S
C45    C46     1.403   .     D
C45    H124    1.140   .     S
C46    C47     1.402   .     S
C46    C94     1.485   1_455 S
C47    C48     1.395   .     D
C47    H125    1.140   .     S
C48    H126    1.140   .     S
C49    C50     1.400   .     D
C49    C66     1.355   .     S
C49    C67     1.520   .     S
C50    C81     1.355   .     S
C50    H127    1.140   .     S
C51    C52     1.402   .     D
C51    C56     1.402   .     S
C51    C81     1.520   .     S
C52    C53     1.395   .     S
C52    H128    1.140   .     S
C53    C54     1.396   .     D
C53    H129    1.140   .     S
C54    C55     1.402   .     S
C54    N57     1.430   .     S
C55    C56     1.395   .     D
C55    H130    1.140   .     S
C56    H131    1.140   .     S
N57    C58     1.294   .     D
C58    C59     1.463   .     S
C58    H132    1.140   .     S
C59    C60     1.395   .     D
C59    C64     1.399   .     S
C60    C61     1.396   .     S
C60    H133    1.140   .     S
C61    C62     1.403   .     D
C61    H134    1.140   .     S
C62    C63     1.402   .     S
C63    C64     1.395   .     D
C63    H135    1.140   .     S
C64    H136    1.140   .     S
C65    C66     1.400   .     D
C65    C82     1.355   .     S
C65    C83     1.520   .     S
C66    H137    1.140   .     S
C67    C68     1.402   .     D
C67    C72     1.402   .     S
C68    C69     1.395   .     S
C68    H138    1.140   .     S
C69    C70     1.396   .     D
C69    H139    1.140   .     S
C70    C71     1.402   .     S
C70    N73     1.430   .     S
C71    C72     1.395   .     D
C71    H140    1.140   .     S
C72    H141    1.140   .     S
N73    C74     1.294   .     D
C74    C75     1.463   .     S
C74    H142    1.140   .     S
C75    C76     1.395   .     D
C75    C80     1.399   .     S
C76    C77     1.396   .     S
C76    H143    1.140   .     S
C77    C78     1.403   .     D
C77    H144    1.140   .     S
C78    C79     1.402   .     S
C78    C30     1.485   1_545 S
C79    C80     1.395   .     D
C79    H145    1.140   .     S
C80    H146    1.140   .     S
C81    C82     1.400   .     D
C82    H147    1.140   .     S
C83    C84     1.402   .     D
C83    C88     1.402   .     S
C84    C85     1.395   .     S
C84    H148    1.140   .     S
C85    C86     1.396   .     D
C85    H149    1.140   .     S
C86    C87     1.402   .     S
C86    N89     1.430   .     S
C87    C88     1.395   .     D
C87    H150    1.140   .     S
C88    H151    1.140   .     S
N89    C90     1.294   .     D
C90    C91     1.463   .     S
C90    H152    1.140   .     S
C91    C92     1.395   .     S
C91    C96     1.399   .     D
C92    C93     1.396   .     D
C92    H153    1.140   .     S
C93    C94     1.403   .     S
C93    H154    1.140   .     S
C94    C95     1.402   .     D
C94    C46     1.485   1_655 S
C95    C96     1.395   .     S
C95    H155    1.140   .     S
C96    H156    1.140   .     S
