data_1072
_audit_creation_date              2023-09-08
_audit_creation_method            'Materials Studio'
_symmetry_space_group_name_H-M    'P1'
_symmetry_Int_Tables_number       1
_symmetry_cell_setting            triclinic
loop_
_symmetry_equiv_pos_as_xyz
  x,y,z
_cell_length_a                    23.1700
_cell_length_b                    23.1700
_cell_length_c                    4.8900
_cell_angle_alpha                 90.0000
_cell_angle_beta                  90.0000
_cell_angle_gamma                 90.0000
loop_
_atom_site_label
_atom_site_type_symbol
_atom_site_fract_x
_atom_site_fract_y
_atom_site_fract_z
_atom_site_U_iso_or_equiv
_atom_site_adp_type
_atom_site_occupancy
N11    N    -0.52260  -0.17070  -0.93800   0.00000  Uiso   1.00
O22    O    -0.47890  -0.14070  -0.55360   0.00000  Uiso   1.00
C33    C    -0.50490  -0.12810  -0.76180   0.00000  Uiso   1.00
O44    O    -0.61570  -0.08650  -0.97340   0.00000  Uiso   1.00
C55    C    -0.57200  -0.04680  -0.90610   0.00000  Uiso   1.00
C66    C    -0.51760  -0.06620  -0.81490   0.00000  Uiso   1.00
C77    C    -0.47520  -0.02520  -0.75020   0.00000  Uiso   1.00
O88    O    -0.87460  -0.49580  -0.26810   0.00000  Uiso   1.00
N99    N    -0.86460  -0.55620   0.08870   0.00000  Uiso   1.00
C1010  C    -0.89710  -0.52210  -0.08030   0.00000  Uiso   1.00
O1111  O    -0.97970  -0.59050  -0.39790   0.00000  Uiso   1.00
C1212  C    -0.95980  -0.51750  -0.04220   0.00000  Uiso   1.00
C1313  C    -0.98110  -0.47680   0.14360   0.00000  Uiso   1.00
C1414  C    -0.99860  -0.54950  -0.20610   0.00000  Uiso   1.00
C1515  C    -0.70970  -0.52180  -0.01460   0.00000  Uiso   1.00
C1616  C    -0.68650  -0.57200  -0.13880   0.00000  Uiso   1.00
C1717  C    -0.63080  -0.56850  -0.24640   0.00000  Uiso   1.00
C1818  C    -0.59870  -0.51830  -0.23140   0.00000  Uiso   1.00
C1919  C    -0.61960  -0.46960  -0.09880   0.00000  Uiso   1.00
C2020  C    -0.67550  -0.47150   0.00940   0.00000  Uiso   1.00
C2121  C    -0.59740  -0.60790  -0.38850   0.00000  Uiso   1.00
C2222  C    -0.54710  -0.57930  -0.45630   0.00000  Uiso   1.00
N2323  N    -0.54740  -0.52460  -0.35930   0.00000  Uiso   1.00
C2424  C    -0.60610  -0.66590  -0.45610   0.00000  Uiso   1.00
C2525  C    -0.56200  -0.69480  -0.60240   0.00000  Uiso   1.00
C2626  C    -0.51160  -0.66400  -0.68060   0.00000  Uiso   1.00
C2727  C    -0.50380  -0.60620  -0.60640   0.00000  Uiso   1.00
N2828  N    -0.50190  -0.48430  -0.36920   0.00000  Uiso   1.00
C2929  C    -0.44690  -0.49260  -0.28560   0.00000  Uiso   1.00
C3030  C    -0.41340  -0.44450  -0.33740   0.00000  Uiso   1.00
C3131  C    -0.44970  -0.40420  -0.45660   0.00000  Uiso   1.00
C3232  C    -0.50330  -0.43010  -0.47300   0.00000  Uiso   1.00
C3333  C    -0.44020  -0.34790  -0.54970   0.00000  Uiso   1.00
C3434  C    -0.48740  -0.31760  -0.66390   0.00000  Uiso   1.00
C3535  C    -0.54200  -0.34510  -0.68320   0.00000  Uiso   1.00
C3636  C    -0.55020  -0.40150  -0.58750   0.00000  Uiso   1.00
C3737  C    -0.42370  -0.54160  -0.16310   0.00000  Uiso   1.00
C3838  C    -0.36470  -0.54200  -0.10220   0.00000  Uiso   1.00
C3939  C    -0.32950  -0.49370  -0.16350   0.00000  Uiso   1.00
C4040  C    -0.35450  -0.44350  -0.27920   0.00000  Uiso   1.00
C4141  C    -0.77070  -0.51830   0.06660   0.00000  Uiso   1.00
C4242  C    -0.56600  -0.75740  -0.65700   0.00000  Uiso   1.00
C4343  C    -0.48050  -0.25690  -0.75180   0.00000  Uiso   1.00
C4444  C    -0.26680  -0.49880  -0.12040   0.00000  Uiso   1.00
N4545  N    -0.80490  -0.56250   0.05040   0.00000  Uiso   1.00
N4646  N    -0.52320  -0.22970  -0.86740   0.00000  Uiso   1.00
N4747  N    -0.52190  -0.84090  -0.87480   0.00000  Uiso   1.00
O4848  O    -0.61020  -0.87240  -0.75740   0.00000  Uiso   1.00
C4949  C    -0.56040  -0.88410  -0.81480   0.00000  Uiso   1.00
O5050  O    -0.44080  -0.92840  -0.70140   0.00000  Uiso   1.00
N5151  N    -0.52920  -0.78140  -0.82250   0.00000  Uiso   1.00
C5252  C    -0.48670  -0.96590  -0.75910   0.00000  Uiso   1.00
C5353  C    -0.54280  -0.94620  -0.82810   0.00000  Uiso   1.00
C5454  C    -0.58460  -0.98740  -0.90070   0.00000  Uiso   1.00
N5555  N    -0.17140  -0.46220  -0.17840   0.00000  Uiso   1.00
O5656  O    -0.16680  -0.50950   0.22410   0.00000  Uiso   1.00
C5757  C    -0.14200  -0.49100   0.02290   0.00000  Uiso   1.00
O5858  O    -0.05850  -0.42210   0.34310   0.00000  Uiso   1.00
N5959  N    -0.23190  -0.45780  -0.19400   0.00000  Uiso   1.00
C6060  C    -0.04030  -0.46560   0.16230   0.00000  Uiso   1.00
C6161  C    -0.07910  -0.49800   0.00020   0.00000  Uiso   1.00
C6262  C    -0.05770  -0.53870  -0.18590   0.00000  Uiso   1.00
H6363  H    -0.54370  -0.15910  -1.11740   0.00000  Uiso   1.00
H6464  H    -0.43260  -0.03930  -0.68720   0.00000  Uiso   1.00
H6565  H    -0.88520  -0.58270   0.23080   0.00000  Uiso   1.00
H6666  H    -0.95140  -0.45180   0.26720   0.00000  Uiso   1.00
H6767  H    -0.71160  -0.61110  -0.16070   0.00000  Uiso   1.00
H6868  H    -0.59440  -0.43050  -0.08630   0.00000  Uiso   1.00
H6969  H    -0.69280  -0.43310   0.10500   0.00000  Uiso   1.00
H7070  H    -0.64500  -0.68820  -0.39300   0.00000  Uiso   1.00
H7171  H    -0.47720  -0.68530  -0.78980   0.00000  Uiso   1.00
H7272  H    -0.46450  -0.58380  -0.65850   0.00000  Uiso   1.00
H7373  H    -0.39810  -0.32820  -0.53120   0.00000  Uiso   1.00
H7474  H    -0.57880  -0.32250  -0.76710   0.00000  Uiso   1.00
H7575  H    -0.59210  -0.42160  -0.59910   0.00000  Uiso   1.00
H7676  H    -0.44990  -0.57900  -0.12150   0.00000  Uiso   1.00
H7777  H    -0.34600  -0.58050  -0.01310   0.00000  Uiso   1.00
H7878  H    -0.32880  -0.40590  -0.32860   0.00000  Uiso   1.00
H7979  H    -0.78830  -0.47660   0.12480   0.00000  Uiso   1.00
H8080  H    -0.59650  -0.78270  -0.54030   0.00000  Uiso   1.00
H8181  H    -0.43980  -0.23520  -0.71680   0.00000  Uiso   1.00
H8282  H    -0.24990  -0.53950  -0.04780   0.00000  Uiso   1.00
H8383  H    -0.48300  -0.85210  -0.96530   0.00000  Uiso   1.00
H8484  H    -0.62800  -0.97330  -0.94980   0.00000  Uiso   1.00
H8585  H    -0.14750  -0.43960  -0.32360   0.00000  Uiso   1.00
H8686  H    -0.08730  -0.56300  -0.31320   0.00000  Uiso   1.00
C8787  C    -0.44240  -0.90500  -0.43230   0.00000  Uiso   1.00
C10188 C    -0.38720  -0.87120  -0.36980   0.00000  Uiso   1.00
C10289 C    -0.37040  -0.82850  -0.59660   0.00000  Uiso   1.00
C10390 C    -0.32760  -0.78210  -0.49550   0.00000  Uiso   1.00
C10491 C    -0.35520  -0.72250  -0.44730   0.00000  Uiso   1.00
C10592 C    -0.40490  -0.72390  -0.24330   0.00000  Uiso   1.00
H11693 H    -0.39420  -0.84740  -0.17690   0.00000  Uiso   1.00
H11794 H    -0.40960  -0.80790  -0.68360   0.00000  Uiso   1.00
H11895 H    -0.29350  -0.77650  -0.65320   0.00000  Uiso   1.00
H11996 H    -0.37080  -0.70410  -0.64270   0.00000  Uiso   1.00
H12097 H    -0.39090  -0.74520  -0.05260   0.00000  Uiso   1.00
H13198 H    -0.44630  -0.94040  -0.28020   0.00000  Uiso   1.00
H13299 H    -0.48010  -0.87590  -0.41050   0.00000  Uiso   1.00
H151100 H    -0.35100  -0.90190  -0.33640   0.00000  Uiso   1.00
H152101 H    -0.34940  -0.85360  -0.76240   0.00000  Uiso   1.00
H153102 H    -0.30520  -0.79640  -0.30610   0.00000  Uiso   1.00
H154103 H    -0.32140  -0.69290  -0.36790   0.00000  Uiso   1.00
H155104 H    -0.44270  -0.74730  -0.32790   0.00000  Uiso   1.00
H156105 H    -0.41840  -0.67910  -0.19630   0.00000  Uiso   1.00
C88106 C    -0.63850  -0.08040  -1.24470   0.00000  Uiso   1.00
C106107 C    -0.70020  -0.10470  -1.25930   0.00000  Uiso   1.00
C107108 C    -0.70420  -0.16200  -1.41580   0.00000  Uiso   1.00
C108109 C    -0.68000  -0.21300  -1.25240   0.00000  Uiso   1.00
C109110 C    -0.68720  -0.26940  -1.41260   0.00000  Uiso   1.00
C110111 C    -0.66370  -0.32070  -1.25300   0.00000  Uiso   1.00
H121112 H    -0.71870  -0.10950  -1.05110   0.00000  Uiso   1.00
H122113 H    -0.68130  -0.15820  -1.61460   0.00000  Uiso   1.00
H123114 H    -0.70330  -0.21640  -1.05460   0.00000  Uiso   1.00
H124115 H    -0.66390  -0.26620  -1.61040   0.00000  Uiso   1.00
H125116 H    -0.67100  -0.36090  -1.37160   0.00000  Uiso   1.00
H133117 H    -0.60940  -0.10270  -1.39070   0.00000  Uiso   1.00
H134118 H    -0.64010  -0.03440  -1.31070   0.00000  Uiso   1.00
H157119 H    -0.72780  -0.07280  -1.36840   0.00000  Uiso   1.00
H158120 H    -0.75050  -0.17040  -1.46090   0.00000  Uiso   1.00
H159121 H    -0.63350  -0.20570  -1.21000   0.00000  Uiso   1.00
H160122 H    -0.73370  -0.27690  -1.45600   0.00000  Uiso   1.00
H161123 H    -0.68590  -0.32470  -1.05290   0.00000  Uiso   1.00
H162124 H    -0.61660  -0.31540  -1.21900   0.00000  Uiso   1.00
C89125 C    -0.94510  -0.63640  -0.29010   0.00000  Uiso   1.00
C96126 C    -0.96450  -0.69420  -0.40990   0.00000  Uiso   1.00
C97127 C    -0.92700  -0.74460  -0.30440   0.00000  Uiso   1.00
C98128 C    -0.88430  -0.76860  -0.51680   0.00000  Uiso   1.00
C99129 C    -0.83810  -0.72550  -0.61370   0.00000  Uiso   1.00
C100130 C    -0.79500  -0.70940  -0.39020   0.00000  Uiso   1.00
H111131 H    -1.01010  -0.70150  -0.34700   0.00000  Uiso   1.00
H112132 H    -0.95620  -0.78050  -0.24490   0.00000  Uiso   1.00
H113133 H    -0.90920  -0.78400  -0.69670   0.00000  Uiso   1.00
H114134 H    -0.85840  -0.68600  -0.69790   0.00000  Uiso   1.00
H115135 H    -0.81620  -0.68450  -0.22490   0.00000  Uiso   1.00
H135136 H    -0.94820  -0.63900  -0.06340   0.00000  Uiso   1.00
H136137 H    -0.89950  -0.62850  -0.34610   0.00000  Uiso   1.00
H145138 H    -0.96400  -0.69210  -0.63670   0.00000  Uiso   1.00
H146139 H    -0.90340  -0.73230  -0.11620   0.00000  Uiso   1.00
H147140 H    -0.86260  -0.80710  -0.42850   0.00000  Uiso   1.00
H148141 H    -0.81360  -0.74610  -0.78320   0.00000  Uiso   1.00
H149142 H    -0.76050  -0.68200  -0.47970   0.00000  Uiso   1.00
H150143 H    -0.77480  -0.74870  -0.30260   0.00000  Uiso   1.00
C90144 C    -0.09430  -0.37800   0.22670   0.00000  Uiso   1.00
C91145 C    -0.08040  -0.31990   0.35800   0.00000  Uiso   1.00
C92146 C    -0.11900  -0.27090   0.24970   0.00000  Uiso   1.00
C93147 C    -0.18330  -0.27810   0.32650   0.00000  Uiso   1.00
C94148 C    -0.22030  -0.29660   0.08130   0.00000  Uiso   1.00
C95149 C    -0.28220  -0.31000   0.16780   0.00000  Uiso   1.00
H137150 H    -0.14000  -0.38880   0.26880   0.00000  Uiso   1.00
H138151 H    -0.08790  -0.37450   0.00190   0.00000  Uiso   1.00
H139152 H    -0.08530  -0.32320   0.58320   0.00000  Uiso   1.00
H140153 H    -0.10310  -0.23000   0.34140   0.00000  Uiso   1.00
H141154 H    -0.18830  -0.30990   0.49490   0.00000  Uiso   1.00
H142155 H    -0.22110  -0.26110  -0.07150   0.00000  Uiso   1.00
H143156 H    -0.30180  -0.27210   0.27060   0.00000  Uiso   1.00
H144157 H    -0.30840  -0.32090  -0.01500   0.00000  Uiso   1.00
H126158 H    -0.03460  -0.30900   0.31430   0.00000  Uiso   1.00
H127159 H    -0.11330  -0.26650   0.02490   0.00000  Uiso   1.00
H128160 H    -0.20000  -0.23620   0.40360   0.00000  Uiso   1.00
H129161 H    -0.20170  -0.33550  -0.01740   0.00000  Uiso   1.00
H130162 H    -0.28270  -0.34750   0.30930   0.00000  Uiso   1.00
loop_
_geom_bond_atom_site_label_1
_geom_bond_atom_site_label_2
_geom_bond_distance
_geom_bond_site_symmetry_2
_ccdc_geom_bond_type
N11    C33     1.373   .     S
N11    N4646   1.410   .     S
N11    H6363   1.040   .     S
O22    C33     1.218   .     D
C33    C66     1.487   .     S
O44    C55     1.407   .     S
O44    C88106  1.435   .     S
C55    C66     1.411   .     D
C55    C5454   1.407   1_565 S
C66    C77     1.403   .     S
C77    H6464   1.084   .     S
C77    C5252   1.400   1_565 D
O88    C1010   1.219   .     D
N99    C1010   1.369   .     S
N99    N4545   1.403   .     S
N99    H6565   1.043   .     S
C1010  C1212   1.469   .     S
O1111  C1414   1.405   .     S
O1111  C89125  1.432   .     S
C1212  C1313   1.399   .     D
C1212  C1414   1.414   .     S
C1313  H6666   1.084   .     S
C1313  C6060   1.399   1_455 S
C1414  C6262   1.396   1_455 D
C1515  C1616   1.418   .     D
C1515  C2020   1.414   .     S
C1515  C4141   1.470   .     S
C1616  C1717   1.396   .     S
C1616  H6767   1.082   .     S
C1717  C1818   1.383   .     D
C1717  C2121   1.384   .     S
C1818  C1919   1.389   .     S
C1818  N2323   1.351   .     S
C1919  C2020   1.400   .     D
C1919  H6868   1.080   .     S
C2020  H6969   1.082   .     S
C2121  C2222   1.381   .     D
C2121  C2424   1.399   .     S
C2222  N2323   1.353   .     S
C2222  C2727   1.391   .     S
N2323  N2828   1.409   .     S
C2424  C2525   1.416   .     D
C2424  H7070   1.084   .     S
C2525  C2626   1.421   .     S
C2525  C4242   1.478   .     S
C2626  C2727   1.399   .     D
C2626  H7171   1.079   .     S
C2727  H7272   1.079   .     S
N2828  C2929   1.352   .     S
N2828  C3232   1.355   .     S
C2929  C3030   1.382   .     S
C2929  C3737   1.392   .     D
C3030  C3131   1.385   .     S
C3030  C4040   1.394   .     D
C3131  C3232   1.382   .     S
C3131  C3333   1.399   .     D
C3232  C3636   1.390   .     D
C3333  C3434   1.414   .     S
C3333  H7373   1.081   .     S
C3434  C3535   1.420   .     D
C3434  C4343   1.479   .     S
C3535  C3636   1.401   .     S
C3535  H7474   1.081   .     S
C3636  H7575   1.078   .     S
C3737  C3838   1.399   .     S
C3737  H7676   1.077   .     S
C3838  C3939   1.417   .     D
C3838  H7777   1.083   .     S
C3939  C4040   1.417   .     S
C3939  C4444   1.473   .     S
C4040  H7878   1.083   .     S
C4141  N4545   1.297   .     D
C4141  H7979   1.087   .     S
C4242  N5151   1.300   .     D
C4242  H8080   1.081   .     S
C4343  N4646   1.302   .     D
C4343  H8181   1.082   .     S
C4444  N5959   1.298   .     D
C4444  H8282   1.081   .     S
N4747  C4949   1.372   .     S
N4747  N5151   1.412   .     S
N4747  H8383   1.037   .     S
O4848  C4949   1.218   .     D
C4949  C5353   1.497   .     S
O5050  C5252   1.402   .     S
O5050  C8787   1.424   .     S
C5252  C5353   1.418   .     S
C5252  C77     1.400   1_545 D
C5353  C5454   1.405   .     D
C5454  H8484   1.084   .     S
C5454  C55     1.407   1_545 S
N5555  C5757   1.371   .     S
N5555  N5959   1.408   .     S
N5555  H8585   1.042   .     S
O5656  C5757   1.217   .     D
C5757  C6161   1.471   .     S
O5858  C6060   1.405   .     S
O5858  C90144  1.434   .     S
C6060  C6161   1.414   .     D
C6060  C1313   1.399   1_655 S
C6161  C6262   1.401   .     S
C6262  H8686   1.084   .     S
C6262  C1414   1.396   1_655 D
C8787  C10188  1.531   .     S
C8787  H13198  1.111   .     S
C8787  H13299  1.109   .     S
C10188 C10289  1.536   .     S
C10188 H11693  1.105   .     S
C10188 H151100  1.112   .     S
C10289 C10390  1.544   .     S
C10289 H11794  1.111   .     S
C10289 H152101  1.110   .     S
C10390 C10491  1.540   .     S
C10390 H11895  1.112   .     S
C10390 H153102  1.112   .     S
C10491 C10592  1.524   .     S
C10491 H11996  1.107   .     S
C10491 H154103  1.111   .     S
C10592 H12097  1.104   .     S
C10592 H155104  1.110   .     S
C10592 H156105  1.108   .     S
C88106 C106107  1.538   .     S
C88106 H133117  1.110   .     S
C88106 H134118  1.114   .     S
C106107 C107108  1.535   .     S
C106107 H121112  1.110   .     S
C106107 H157119  1.113   .     S
C107108 C108109  1.533   .     S
C107108 H122113  1.111   .     S
C107108 H158120  1.112   .     S
C108109 C109110  1.533   .     S
C108109 H123114  1.111   .     S
C108109 H159121  1.110   .     S
C109110 C110111  1.523   .     S
C109110 H124115  1.110   .     S
C109110 H160122  1.112   .     S
C110111 H125116  1.110   .     S
C110111 H161123  1.109   .     S
C110111 H162124  1.111   .     S
C89125 C96126  1.529   .     S
C89125 H135136  1.113   .     S
C89125 H136137  1.107   .     S
C96126 C97127  1.544   .     S
C96126 H111131  1.113   .     S
C96126 H145138  1.110   .     S
C97127 C98128  1.538   .     S
C97127 H112132  1.111   .     S
C97127 H146139  1.108   .     S
C98128 C99129  1.539   .     S
C98128 H113133  1.111   .     S
C98128 H147140  1.111   .     S
C99129 C100130  1.527   .     S
C99129 H114134  1.108   .     S
C99129 H148141  1.112   .     S
C100130 H115135  1.108   .     S
C100130 H149142  1.111   .     S
C100130 H150143  1.110   .     S
C90144 C91145  1.526   .     S
C90144 H137150  1.107   .     S
C90144 H138151  1.112   .     S
C91145 C92146  1.539   .     S
C91145 H139152  1.110   .     S
C91145 H126158  1.112   .     S
C92146 C93147  1.545   .     S
C92146 H140153  1.111   .     S
C92146 H127159  1.112   .     S
C93147 C94148  1.535   .     S
C93147 H141154  1.111   .     S
C93147 H128160  1.111   .     S
C94148 C95149  1.527   .     S
C94148 H142155  1.111   .     S
C94148 H129161  1.110   .     S
C95149 H143156  1.109   .     S
C95149 H144157  1.110   .     S
C95149 H130162  1.111   .     S
