data_1073
_audit_creation_date              2023-09-08
_audit_creation_method            'Materials Studio'
_symmetry_space_group_name_H-M    'P1'
_symmetry_Int_Tables_number       1
_symmetry_cell_setting            triclinic
loop_
_symmetry_equiv_pos_as_xyz
  x,y,z
_cell_length_a                    30.0184
_cell_length_b                    30.0093
_cell_length_c                    3.7154
_cell_angle_alpha                 89.9433
_cell_angle_beta                  90.0838
_cell_angle_gamma                 59.9869
loop_
_atom_site_label
_atom_site_type_symbol
_atom_site_fract_x
_atom_site_fract_y
_atom_site_fract_z
_atom_site_U_iso_or_equiv
_atom_site_adp_type
_atom_site_occupancy
C1     C     0.02427   0.02981   0.98314   0.00000  Uiso   1.00
C2     C     0.97008   0.05449   0.98420   0.00000  Uiso   1.00
C3     C     0.94484   0.02545   0.00851   0.00000  Uiso   1.00
C4     C     0.97434   0.97125   0.00671   0.00000  Uiso   1.00
C5     C     0.02862   0.94596   0.98790   0.00000  Uiso   1.00
C6     C     0.05359   0.97530   0.99717   0.00000  Uiso   1.00
C7     C     0.10953   0.95202   0.03970   0.00000  Uiso   1.00
C8     C     0.93764   0.11057   0.94356   0.00000  Uiso   1.00
C9     C     0.95041   0.93909   0.04998   0.00000  Uiso   1.00
C10    C     0.91535   0.19617   0.04291   0.00000  Uiso   1.00
C11    C     0.93721   0.22831   0.02330   0.00000  Uiso   1.00
C12    C     0.86144   0.21918   0.04283   0.00000  Uiso   1.00
C13    C     0.90477   0.28136   0.00387   0.00000  Uiso   1.00
C14    C     0.83004   0.27220   0.02586   0.00000  Uiso   1.00
C15    C     0.85082   0.30510   0.00800   0.00000  Uiso   1.00
C16    C     0.19601   0.88731   0.98619   0.00000  Uiso   1.00
C17    C     0.22864   0.83328   0.00475   0.00000  Uiso   1.00
C18    C     0.21874   0.91850   0.98345   0.00000  Uiso   1.00
C19    C     0.28166   0.81300   0.01824   0.00000  Uiso   1.00
C20    C     0.27169   0.89725   0.99730   0.00000  Uiso   1.00
C21    C     0.30501   0.84356   0.01328   0.00000  Uiso   1.00
C22    C     0.88762   0.91635   0.94977   0.00000  Uiso   1.00
C23    C     0.83376   0.93784   0.97665   0.00000  Uiso   1.00
C24    C     0.91878   0.86246   0.94522   0.00000  Uiso   1.00
C25    C     0.81358   0.90509   0.00082   0.00000  Uiso   1.00
C26    C     0.89761   0.83074   0.96881   0.00000  Uiso   1.00
C27    C     0.84409   0.85114   0.99768   0.00000  Uiso   1.00
C28    C     0.81772   0.36178   0.01020   0.00000  Uiso   1.00
C29    C     0.83821   0.39486   0.03778   0.00000  Uiso   1.00
C30    C     0.76380   0.38536   0.00013   0.00000  Uiso   1.00
C31    C     0.80654   0.44788   0.05615   0.00000  Uiso   1.00
C32    C     0.73116   0.43832   0.02243   0.00000  Uiso   1.00
C33    C     0.75267   0.47068   0.04965   0.00000  Uiso   1.00
C34    C     0.36158   0.82029   0.01206   0.00000  Uiso   1.00
C35    C     0.38489   0.85087   0.02796   0.00000  Uiso   1.00
C36    C     0.44790   0.74564   0.96747   0.00000  Uiso   1.00
C37    C     0.43778   0.83081   0.00679   0.00000  Uiso   1.00
C38    C     0.47047   0.77694   0.97562   0.00000  Uiso   1.00
C39    C     0.82084   0.81780   0.01699   0.00000  Uiso   1.00
C40    C     0.76739   0.83809   0.05031   0.00000  Uiso   1.00
C41    C     0.85130   0.76387   0.00714   0.00000  Uiso   1.00
C42    C     0.74620   0.80628   0.06912   0.00000  Uiso   1.00
C43    C     0.83117   0.73106   0.02897   0.00000  Uiso   1.00
C44    C     0.77734   0.75243   0.05752   0.00000  Uiso   1.00
C45    C     0.64316   0.63651   0.97274   0.00000  Uiso   1.00
C46    C     0.61337   0.69085   0.98613   0.00000  Uiso   1.00
C47    C     0.63760   0.72096   0.96516   0.00000  Uiso   1.00
C48    C     0.55747   0.71353   0.03747   0.00000  Uiso   1.00
C49    C     0.69189   0.69626   0.95508   0.00000  Uiso   1.00
C50    C     0.71616   0.72846   0.92753   0.00000  Uiso   1.00
C51    C     0.72211   0.64188   0.95641   0.00000  Uiso   1.00
C52    C     0.69745   0.61215   0.96023   0.00000  Uiso   1.00
C53    C     0.72948   0.55585   0.93114   0.00000  Uiso   1.00
C54    C     0.88741   0.05312   0.05727   0.00000  Uiso   1.00
C55    C     0.05140   0.06019   0.93618   0.00000  Uiso   1.00
C56    C     0.05855   0.88834   0.95134   0.00000  Uiso   1.00
C57    C     0.60601   0.77870   0.97931   0.00000  Uiso   1.00
C58    C     0.77984   0.61597   0.95332   0.00000  Uiso   1.00
C59    C     0.61647   0.60551   0.94103   0.00000  Uiso   1.00
C60    C     0.67396   0.46075   0.00764   0.00000  Uiso   1.00
C61    C     0.99451   0.20534   0.01560   0.00000  Uiso   1.00
C62    C     0.79911   0.99508   0.99082   0.00000  Uiso   1.00
C63    C     0.86601   0.67387   0.00891   0.00000  Uiso   1.00
C64    C     0.20651   0.79823   0.01351   0.00000  Uiso   1.00
C65    C     0.45968   0.86613   0.00976   0.00000  Uiso   1.00
C66    C     0.39493   0.76676   0.98391   0.00000  Uiso   1.00
H1     H     0.12151   0.97714   0.17437   0.00000  Uiso   1.00
H2     H     0.90285   0.12367   0.77599   0.00000  Uiso   1.00
H3     H     0.97145   0.90488   0.22367   0.00000  Uiso   1.00
H4     H     0.92298   0.30493   0.98902   0.00000  Uiso   1.00
H5     H     0.78856   0.28808   0.03535   0.00000  Uiso   1.00
H6     H     0.30552   0.77121   0.02907   0.00000  Uiso   1.00
H7     H     0.28719   0.92318   0.98643   0.00000  Uiso   1.00
H8     H     0.77187   0.92304   0.02085   0.00000  Uiso   1.00
H9     H     0.92347   0.78929   0.95889   0.00000  Uiso   1.00
H10    H     0.87964   0.37916   0.05364   0.00000  Uiso   1.00
H11    H     0.74583   0.36166   0.97700   0.00000  Uiso   1.00
H12    H     0.37940   0.74089   0.96620   0.00000  Uiso   1.00
H13    H     0.36099   0.89251   0.05273   0.00000  Uiso   1.00
H14    H     0.74150   0.87948   0.06676   0.00000  Uiso   1.00
H15    H     0.89295   0.74598   0.98206   0.00000  Uiso   1.00
H16    H     0.54613   0.68891   0.18659   0.00000  Uiso   1.00
H17    H     0.69718   0.76175   0.74408   0.00000  Uiso   1.00
H18    H     0.76335   0.54147   0.75452   0.00000  Uiso   1.00
H19    H     0.87383   0.09017   0.19272   0.00000  Uiso   1.00
H20    H     0.86711   0.06041   0.79852   0.00000  Uiso   1.00
H21    H     0.87603   0.02976   0.21693   0.00000  Uiso   1.00
H22    H     0.05967   0.07193   0.19649   0.00000  Uiso   1.00
H23    H     0.08777   0.03792   0.79087   0.00000  Uiso   1.00
H24    H     0.02696   0.09577   0.78744   0.00000  Uiso   1.00
H25    H     0.07602   0.86954   0.20883   0.00000  Uiso   1.00
H26    H     0.03404   0.87340   0.85482   0.00000  Uiso   1.00
H27    H     0.09055   0.87711   0.76509   0.00000  Uiso   1.00
H28    H     0.79470   0.61292   0.22807   0.00000  Uiso   1.00
H29    H     0.79782   0.57705   0.84201   0.00000  Uiso   1.00
H30    H     0.79267   0.63869   0.80091   0.00000  Uiso   1.00
H31    H     0.60941   0.59384   0.20560   0.00000  Uiso   1.00
H32    H     0.57949   0.62735   0.80096   0.00000  Uiso   1.00
H33    H     0.64057   0.56990   0.79283   0.00000  Uiso   1.00
H34    H     0.59061   0.79104   0.25235   0.00000  Uiso   1.00
H35    H     0.62831   0.79728   0.91224   0.00000  Uiso   1.00
H36    H     0.57247   0.79286   0.80281   0.00000  Uiso   1.00
H37    H     0.65454   0.49570   0.17225   0.00000  Uiso   1.00
H38    H     0.65954   0.47198   0.73103   0.00000  Uiso   1.00
H39    H     0.66314   0.43272   0.10056   0.00000  Uiso   1.00
H40    H     0.01321   0.17011   0.17880   0.00000  Uiso   1.00
H41    H     0.00942   0.19427   0.74038   0.00000  Uiso   1.00
H42    H     0.00563   0.23287   0.11452   0.00000  Uiso   1.00
H43    H     0.79596   0.00928   0.26763   0.00000  Uiso   1.00
H44    H     0.81491   0.01441   0.82765   0.00000  Uiso   1.00
H45    H     0.76023   0.00613   0.89677   0.00000  Uiso   1.00
H46    H     0.85095   0.65400   0.17358   0.00000  Uiso   1.00
H47    H     0.86862   0.66007   0.73139   0.00000  Uiso   1.00
H48    H     0.90506   0.66290   0.09844   0.00000  Uiso   1.00
H49    H     0.19500   0.79480   0.28835   0.00000  Uiso   1.00
H50    H     0.17171   0.81364   0.84695   0.00000  Uiso   1.00
H51    H     0.23480   0.75953   0.92024   0.00000  Uiso   1.00
H52    H     0.49389   0.85129   0.18185   0.00000  Uiso   1.00
H53    H     0.47173   0.86993   0.73754   0.00000  Uiso   1.00
H54    H     0.43085   0.90460   0.10356   0.00000  Uiso   1.00
H55    H     0.96027   0.84538   0.91172   0.00000  Uiso   1.00
H56    H     0.70475   0.82313   0.10418   0.00000  Uiso   1.00
H57    H     0.82361   0.47231   0.08955   0.00000  Uiso   1.00
H58    H     0.84405   0.19495   0.06898   0.00000  Uiso   1.00
H59    H     0.19438   0.96014   0.95754   0.00000  Uiso   1.00
H60    H     0.47234   0.70414   0.93471   0.00000  Uiso   1.00
N1     N     0.14333   0.90607   0.94481   0.00000  Uiso   1.00
N2     N     0.94847   0.14321   0.08328   0.00000  Uiso   1.00
N3     N     0.90718   0.94968   0.90680   0.00000  Uiso   1.00
N4     N     0.52302   0.75852   0.92877   0.00000  Uiso   1.00
N5     N     0.75762   0.71905   0.09306   0.00000  Uiso   1.00
N6     N     0.71940   0.52371   0.08860   0.00000  Uiso   1.00
loop_
_geom_bond_atom_site_label_1
_geom_bond_atom_site_label_2
_geom_bond_distance
_geom_bond_site_symmetry_2
_ccdc_geom_bond_type
C1     C55     1.506   .     S
C1     C2      1.410   1_455 D
C1     C6      1.419   1_545 S
C2     C8      1.471   .     S
C2     C1      1.410   1_655 D
C2     C3      1.415   1_556 S
C3     C54     1.504   .     S
C3     C2      1.415   1_554 S
C3     C4      1.410   1_545 D
C4     C9      1.472   .     S
C4     C3      1.410   1_565 D
C4     C5      1.414   1_654 S
C5     C6      1.414   .     D
C5     C56     1.504   .     S
C5     C4      1.414   1_456 S
C6     C1      1.419   1_565 S
C6     C7      1.469   1_556 S
C7     H1      1.104   .     S
C7     C6      1.469   1_554 S
C7     N1      1.287   1_554 D
C8     H2      1.104   .     S
C8     N2      1.286   1_556 D
C9     H3      1.104   .     S
C9     N3      1.286   1_554 D
C10    N2      1.398   .     S
C10    C11     1.414   .     D
C10    C12     1.406   .     S
C11    C61     1.500   .     S
C11    C13     1.392   .     S
C12    C14     1.387   .     D
C12    H58     1.091   .     S
C13    C15     1.406   .     D
C13    H4      1.090   1_554 S
C14    H5      1.089   .     S
C14    C15     1.409   .     S
C15    C28     1.480   .     S
C16    C18     1.407   .     D
C16    N1      1.396   .     S
C16    C17     1.416   1_556 S
C17    C64     1.499   .     S
C17    C19     1.392   .     D
C17    C16     1.416   1_554 S
C18    C20     1.386   .     S
C18    H59     1.091   .     S
C19    H6      1.090   .     S
C19    C21     1.406   .     S
C20    H7      1.089   .     S
C20    C21     1.410   1_556 D
C21    C34     1.478   .     S
C21    C20     1.410   1_554 D
C22    N3      1.399   .     S
C22    C24     1.406   .     D
C22    C23     1.413   .     S
C23    C62     1.499   .     S
C23    C25     1.392   1_556 D
C24    H55     1.091   .     S
C24    C26     1.387   .     S
C25    H8      1.090   .     S
C25    C23     1.392   1_554 D
C25    C27     1.406   1_554 S
C26    C27     1.409   .     D
C26    H9      1.089   .     S
C27    C25     1.406   1_556 S
C27    C39     1.480   1_556 S
C28    C30     1.406   .     D
C28    C29     1.409   .     S
C29    H10     1.089   .     S
C29    C31     1.388   .     D
C30    C32     1.391   .     S
C30    H11     1.090   1_554 S
C31    H57     1.091   .     S
C31    C33     1.406   .     S
C32    C33     1.413   .     D
C32    C60     1.499   .     S
C33    N6      1.401   .     S
C34    C35     1.406   .     D
C34    C66     1.409   1_554 S
C35    C37     1.391   .     S
C35    H13     1.090   .     S
C36    C66     1.388   .     D
C36    C38     1.407   .     S
C36    H60     1.091   .     S
C37    C65     1.501   .     S
C37    C38     1.415   1_554 D
C38    N4      1.397   .     S
C38    C37     1.415   1_556 D
C39    C41     1.406   .     D
C39    C40     1.408   .     S
C39    C27     1.480   1_554 S
C40    H14     1.089   .     S
C40    C42     1.389   .     D
C41    C43     1.392   .     S
C41    H15     1.090   1_554 S
C42    C44     1.406   .     S
C42    H56     1.092   .     S
C43    C44     1.413   .     D
C43    C63     1.500   .     S
C44    N5      1.402   .     S
C45    C46     1.415   .     S
C45    C52     1.415   .     D
C45    C59     1.506   .     S
C46    C47     1.417   .     D
C46    C48     1.474   1_556 S
C47    C49     1.414   .     S
C47    C57     1.504   .     S
C48    H16     1.105   .     S
C48    C46     1.474   1_554 S
C48    N4      1.287   1_554 D
C49    C51     1.416   .     D
C49    C50     1.476   .     S
C50    H17     1.102   .     S
C50    N5      1.286   1_556 D
C51    C52     1.416   .     S
C51    C58     1.503   .     S
C52    C53     1.472   .     S
C53    H18     1.102   .     S
C53    N6      1.287   1_556 D
C54    H21     1.095   .     S
C54    H19     1.097   .     S
C54    H20     1.099   1_554 S
C55    H23     1.097   .     S
C55    H24     1.094   .     S
C55    H22     1.099   1_556 S
C56    H27     1.093   .     S
C56    H26     1.096   .     S
C56    H25     1.100   1_556 S
C57    H36     1.093   .     S
C57    H35     1.093   .     S
C57    H34     1.100   1_556 S
C58    H30     1.094   .     S
C58    H29     1.094   .     S
C58    H28     1.099   1_556 S
C59    H33     1.094   .     S
C59    H32     1.097   .     S
C59    H31     1.099   1_556 S
C60    H39     1.098   .     S
C60    H37     1.098   .     S
C60    H38     1.100   1_554 S
C61    H40     1.098   1_655 S
C61    H41     1.100   1_654 S
C61    H42     1.098   1_655 S
C62    H43     1.100   1_566 S
C62    H44     1.097   1_565 S
C62    H45     1.098   1_565 S
C63    H48     1.098   .     S
C63    H46     1.097   .     S
C63    H47     1.100   1_554 S
C64    H49     1.100   .     S
C64    H50     1.097   1_554 S
C64    H51     1.098   1_554 S
C65    H52     1.096   .     S
C65    H54     1.098   .     S
C65    H53     1.099   1_554 S
C66    H12     1.089   .     S
C66    C34     1.409   1_556 S
H4     C13     1.090   1_556 S
H11    C30     1.090   1_556 S
H15    C41     1.090   1_556 S
H20    C54     1.099   1_556 S
H22    C55     1.099   1_554 S
H25    C56     1.100   1_554 S
H28    C58     1.099   1_554 S
H31    C59     1.099   1_554 S
H34    C57     1.100   1_554 S
H38    C60     1.100   1_556 S
H40    C61     1.098   1_455 S
H41    C61     1.100   1_456 S
H42    C61     1.098   1_455 S
H43    C62     1.100   1_544 S
H44    C62     1.097   1_545 S
H45    C62     1.098   1_545 S
H47    C63     1.100   1_556 S
H50    C64     1.097   1_556 S
H51    C64     1.098   1_556 S
H53    C65     1.099   1_556 S
N1     C7      1.287   1_556 D
N2     C8      1.286   1_554 D
N3     C9      1.286   1_556 D
N4     C48     1.287   1_556 D
N5     C50     1.286   1_554 D
N6     C53     1.287   1_554 D
