data_1074
_audit_creation_date              2023-09-08
_audit_creation_method            'Materials Studio'
_symmetry_space_group_name_H-M    'P1'
_symmetry_Int_Tables_number       1
_symmetry_cell_setting            triclinic
loop_
_symmetry_equiv_pos_as_xyz
  x,y,z
_cell_length_a                    29.9031
_cell_length_b                    30.0001
_cell_length_c                    6.8919
_cell_angle_alpha                 90.7842
_cell_angle_beta                  91.4169
_cell_angle_gamma                 60.1239
loop_
_atom_site_label
_atom_site_type_symbol
_atom_site_fract_x
_atom_site_fract_y
_atom_site_fract_z
_atom_site_U_iso_or_equiv
_atom_site_adp_type
_atom_site_occupancy
C1     C     0.02570   0.02974   0.00537   0.00000  Uiso   1.00
C2     C     0.97132   0.05521   1.01155   0.00000  Uiso   1.00
C3     C     0.94483   0.02684   0.00974   0.00000  Uiso   1.00
C4     C     0.97359   0.97254   0.00931   0.00000  Uiso   1.00
C5     C     0.02834   0.94645   0.01492   0.00000  Uiso   1.00
C6     C     0.05414   0.97504   1.00325   0.00000  Uiso   1.00
C7     C     0.10984   0.95140   0.98161   0.00000  Uiso   1.00
C8     C     0.93910   0.11116   1.02798   0.00000  Uiso   1.00
C9     C     0.94982   0.94020   0.98408   0.00000  Uiso   1.00
C10    C     0.91736   0.19687   0.98605   0.00000  Uiso   1.00
C11    C     0.93864   0.22981   0.99877   0.00000  Uiso   1.00
C12    C     0.86331   0.21898   0.98073   0.00000  Uiso   1.00
C13    C     0.90528   0.28269   0.00910   0.00000  Uiso   1.00
C14    C     0.83102   0.27187   0.98683   0.00000  Uiso   1.00
C15    C     0.85115   0.30547   0.00098   0.00000  Uiso   1.00
C16    C     0.19619   0.88560   0.99408   0.00000  Uiso   1.00
C17    C     0.22937   0.83153   0.99356   0.00000  Uiso   1.00
C18    C     0.21861   0.91729   0.99158   0.00000  Uiso   1.00
C19    C     0.28258   0.81186  -0.00686   0.00000  Uiso   1.00
C20    C     0.27161   0.89667   0.98765   0.00000  Uiso   1.00
C21    C     0.30544   0.84305  -0.01052   0.00000  Uiso   1.00
C22    C     0.88607   0.91736   1.01403   0.00000  Uiso   1.00
C23    C     0.83187   0.93831   1.00232   0.00000  Uiso   1.00
C24    C     0.91800   0.86355   1.01196   0.00000  Uiso   1.00
C25    C     0.81219   0.90489  -0.01071   0.00000  Uiso   1.00
C26    C     0.89730   0.83120   0.99997   0.00000  Uiso   1.00
C27    C     0.84354   0.85095   0.98980   0.00000  Uiso   1.00
C28    C     0.81737   0.36196  -0.00024   0.00000  Uiso   1.00
C29    C     0.83755   0.39530   0.98345   0.00000  Uiso   1.00
C30    C     0.76328   0.38496   0.00699   0.00000  Uiso   1.00
C31    C     0.80542   0.44823   0.97493   0.00000  Uiso   1.00
C32    C     0.73007   0.43782   0.99418   0.00000  Uiso   1.00
C33    C     0.75147   0.47042   0.98005   0.00000  Uiso   1.00
C34    C     0.36211   0.82057  -0.01264   0.00000  Uiso   1.00
C35    C     0.38523   0.85161  -0.00316   0.00000  Uiso   1.00
C36    C     0.44857   0.74653   0.96137   0.00000  Uiso   1.00
C37    C     0.43823   0.83206   0.98545   0.00000  Uiso   1.00
C38    C     0.47085   0.77823   0.96894   0.00000  Uiso   1.00
C39    C     0.82088   0.81690   0.98948   0.00000  Uiso   1.00
C40    C     0.76723   0.83674   1.00114   0.00000  Uiso   1.00
C41    C     0.85208   0.76297  -0.01258   0.00000  Uiso   1.00
C42    C     0.74654   0.80451   1.01222   0.00000  Uiso   1.00
C43    C     0.83243   0.72966   1.00001   0.00000  Uiso   1.00
C44    C     0.77840   0.75068   1.01215   0.00000  Uiso   1.00
C45    C     0.64157   0.63650   0.01594   0.00000  Uiso   1.00
C46    C     0.61229   0.69099   1.01351   0.00000  Uiso   1.00
C47    C     0.63712   0.72054   0.00247   0.00000  Uiso   1.00
C48    C     0.55603   0.71590   1.03220   0.00000  Uiso   1.00
C49    C     0.69153   0.69524  -0.00762   0.00000  Uiso   1.00
C50    C     0.71520   0.72737   0.96366   0.00000  Uiso   1.00
C51    C     0.72145   0.64105   0.00350   0.00000  Uiso   1.00
C52    C     0.69610   0.61204   1.01593   0.00000  Uiso   1.00
C53    C     0.72848   0.55588   1.03766   0.00000  Uiso   1.00
C54    C     0.88687   0.05606  -0.00145   0.00000  Uiso   1.00
C55    C     0.05439   0.05909   0.01293   0.00000  Uiso   1.00
C56    C     0.05780   0.88901   0.03769   0.00000  Uiso   1.00
C57    C     0.60733   0.77839   0.01582   0.00000  Uiso   1.00
C58    C     0.77936   0.61398  -0.00980   0.00000  Uiso   1.00
C59    C     0.61519   0.60491   0.01563   0.00000  Uiso   1.00
C60    C     0.39554   0.76718   0.96955   0.00000  Uiso   1.00
C61    C     0.79652   0.99553   0.00342   0.00000  Uiso   1.00
C62    C     0.20770   0.79585   0.99286   0.00000  Uiso   1.00
C63    C     0.86770   0.67245   0.99881   0.00000  Uiso   1.00
C64    C     0.67259   0.46014   0.99575   0.00000  Uiso   1.00
C65    C     0.99604   0.20862   0.99840   0.00000  Uiso   1.00
C66    C     0.46054   0.86722   0.99270   0.00000  Uiso   1.00
C67    C     0.97470   0.96974   0.51542   0.00000  Uiso   1.00
C68    C     0.02931   0.94513   0.51561   0.00000  Uiso   1.00
C69    C     0.05476   0.97420   0.50543   0.00000  Uiso   1.00
C70    C     0.02487   0.02841   0.50140   0.00000  Uiso   1.00
C71    C     0.97041   0.05378   0.51067   0.00000  Uiso   1.00
C72    C     0.94550   0.02428   0.51478   0.00000  Uiso   1.00
C73    C     0.88939   0.04894   0.53038   0.00000  Uiso   1.00
C74    C     0.06179   0.88923   0.53455   0.00000  Uiso   1.00
C75    C     0.04802   0.06087   0.47611   0.00000  Uiso   1.00
C76    C     0.08316   0.80374   0.48759   0.00000  Uiso   1.00
C77    C     0.06185   0.77102   0.50260   0.00000  Uiso   1.00
C78    C     0.13701   0.78162   0.47573   0.00000  Uiso   1.00
C79    C     0.09513   0.71811   0.51064   0.00000  Uiso   1.00
C80    C     0.16915   0.72870   0.48060   0.00000  Uiso   1.00
C81    C     0.14914   0.69526   0.49889   0.00000  Uiso   1.00
C82    C     0.80423   0.11237   0.47291   0.00000  Uiso   1.00
C83    C     0.77186   0.16629   0.48724   0.00000  Uiso   1.00
C84    C     0.78177   0.08085   0.46511   0.00000  Uiso   1.00
C85    C     0.71877   0.18609   0.49685   0.00000  Uiso   1.00
C86    C     0.72871   0.10173   0.47172   0.00000  Uiso   1.00
C87    C     0.69548   0.15519   0.48815   0.00000  Uiso   1.00
C88    C     0.11250   0.08278   0.51160   0.00000  Uiso   1.00
C89    C     0.16658   0.06150   0.50016   0.00000  Uiso   1.00
C90    C     0.08072   0.13661   0.50916   0.00000  Uiso   1.00
C91    C     0.18630   0.09476   0.48752   0.00000  Uiso   1.00
C92    C     0.10150   0.16873   0.49749   0.00000  Uiso   1.00
C93    C     0.15523   0.14870   0.48844   0.00000  Uiso   1.00
C94    C     0.18305   0.63880   0.49787   0.00000  Uiso   1.00
C95    C     0.16314   0.60503   0.48237   0.00000  Uiso   1.00
C96    C     0.23714   0.61614   0.50564   0.00000  Uiso   1.00
C97    C     0.19561   0.55215   0.47477   0.00000  Uiso   1.00
C98    C     0.27065   0.56328   0.49368   0.00000  Uiso   1.00
C99    C     0.24968   0.53011   0.48024   0.00000  Uiso   1.00
C100   C     0.63882   0.17787   0.49300   0.00000  Uiso   1.00
C101   C     0.61582   0.14680   0.49425   0.00000  Uiso   1.00
C102   C     0.55223   0.25206   0.51141   0.00000  Uiso   1.00
C103   C     0.56273   0.16644   0.50317   0.00000  Uiso   1.00
C104   C     0.52979   0.22043   0.51283   0.00000  Uiso   1.00
C105   C     0.17815   0.18252   0.49098   0.00000  Uiso   1.00
C106   C     0.23193   0.16257   0.50140   0.00000  Uiso   1.00
C107   C     0.14702   0.23643   0.49328   0.00000  Uiso   1.00
C108   C     0.25286   0.19472   0.51670   0.00000  Uiso   1.00
C109   C     0.16687   0.26961   0.51004   0.00000  Uiso   1.00
C110   C     0.22105   0.24847   0.52242   0.00000  Uiso   1.00
C111   C     0.35834   0.36309   0.50898   0.00000  Uiso   1.00
C112   C     0.38707   0.30858   0.50226   0.00000  Uiso   1.00
C113   C     0.36158   0.27957   0.50678   0.00000  Uiso   1.00
C114   C     0.44318   0.28457   0.47764   0.00000  Uiso   1.00
C115   C     0.30690   0.30536   0.50105   0.00000  Uiso   1.00
C116   C     0.28258   0.27324   0.47339   0.00000  Uiso   1.00
C117   C     0.27776   0.35962   0.50454   0.00000  Uiso   1.00
C118   C     0.30383   0.38838   0.51075   0.00000  Uiso   1.00
C119   C     0.27157   0.44452   0.52580   0.00000  Uiso   1.00
C120   C     0.11240   0.94749   0.48494   0.00000  Uiso   1.00
C121   C     0.94775   0.93885   0.51220   0.00000  Uiso   1.00
C122   C     0.94118   0.11140   0.52846   0.00000  Uiso   1.00
C123   C     0.39166   0.22183   0.52124   0.00000  Uiso   1.00
C124   C     0.21967   0.38801   0.49044   0.00000  Uiso   1.00
C125   C     0.38677   0.39265   0.52850   0.00000  Uiso   1.00
C126   C     0.60516   0.23146   0.50029   0.00000  Uiso   1.00
C127   C     0.20184   0.00425   0.50139   0.00000  Uiso   1.00
C128   C     0.79452   0.20113   0.49265   0.00000  Uiso   1.00
C129   C     0.13162   0.32687   0.51280   0.00000  Uiso   1.00
C130   C     0.32796   0.54246   0.49215   0.00000  Uiso   1.00
C131   C     0.00441   0.79335   0.50851   0.00000  Uiso   1.00
C132   C     0.54097   0.13084   0.49931   0.00000  Uiso   1.00
H1     H     0.12222   0.97835   0.93455   0.00000  Uiso   1.00
H2     H     0.90198   0.12433   0.09912   0.00000  Uiso   1.00
H3     H     0.97360   0.90401   0.90540   0.00000  Uiso   1.00
H4     H     0.92279   0.30696   0.02219   0.00000  Uiso   1.00
H5     H     0.78954   0.28696   0.97609   0.00000  Uiso   1.00
H6     H     0.30692   0.77016  -0.00253   0.00000  Uiso   1.00
H7     H     0.28670   0.92304   0.98483   0.00000  Uiso   1.00
H8     H     0.77035   0.92221  -0.01852   0.00000  Uiso   1.00
H9     H     0.92376   0.78988   1.00388   0.00000  Uiso   1.00
H10    H     0.87894   0.37993   0.97217   0.00000  Uiso   1.00
H11    H     0.74575   0.36086   0.02090   0.00000  Uiso   1.00
H12    H     0.36112   0.89312   0.01288   0.00000  Uiso   1.00
H13    H     0.74098   0.87807   1.00671   0.00000  Uiso   1.00
H14    H     0.89383   0.74558  -0.02124   0.00000  Uiso   1.00
H15    H     0.54171   0.69636   0.12586   0.00000  Uiso   1.00
H16    H     0.69277   0.76173   0.87188   0.00000  Uiso   1.00
H17    H     0.76329   0.54267   0.13152   0.00000  Uiso   1.00
H18    H     0.82206   0.47299   0.95580   0.00000  Uiso   1.00
H19    H     0.47339   0.70520   0.94154   0.00000  Uiso   1.00
H20    H     0.84642   0.19417   0.96466   0.00000  Uiso   1.00
H21    H     0.19418   0.95901   0.99557   0.00000  Uiso   1.00
H22    H     0.38015   0.74110   0.95814   0.00000  Uiso   1.00
H23    H     0.70504   0.82108   1.02870   0.00000  Uiso   1.00
H24    H     0.95972   0.84685   1.02756   0.00000  Uiso   1.00
H25    H     0.87487   0.02828   0.61574   0.00000  Uiso   1.00
H26    H     0.09902   0.87612   0.61164   0.00000  Uiso   1.00
H27    H     0.02382   0.09694   0.39635   0.00000  Uiso   1.00
H28    H     0.07775   0.69388   0.52501   0.00000  Uiso   1.00
H29    H     0.21040   0.71340   0.46451   0.00000  Uiso   1.00
H30    H     0.69480   0.22767   0.51083   0.00000  Uiso   1.00
H31    H     0.71326   0.07570   0.46058   0.00000  Uiso   1.00
H32    H     0.22809   0.07728   0.48048   0.00000  Uiso   1.00
H33    H     0.07523   0.21009   0.50054   0.00000  Uiso   1.00
H34    H     0.12166   0.62004   0.47195   0.00000  Uiso   1.00
H35    H     0.25451   0.64052   0.52001   0.00000  Uiso   1.00
H36    H     0.64004   0.10508   0.49078   0.00000  Uiso   1.00
H37    H     0.25823   0.12121   0.50208   0.00000  Uiso   1.00
H38    H     0.10517   0.25392   0.48459   0.00000  Uiso   1.00
H39    H     0.45518   0.30833   0.39713   0.00000  Uiso   1.00
H40    H     0.30253   0.24052   0.37244   0.00000  Uiso   1.00
H41    H     0.23450   0.45814   0.59837   0.00000  Uiso   1.00
H42    H     0.17881   0.52730   0.45729   0.00000  Uiso   1.00
H43    H     0.52760   0.29363   0.52435   0.00000  Uiso   1.00
H44    H     0.15359   0.80637   0.45479   0.00000  Uiso   1.00
H45    H     0.80649   0.03945   0.44666   0.00000  Uiso   1.00
H46    H     0.62034   0.25778   0.50016   0.00000  Uiso   1.00
H47    H     0.29459   0.17804   0.53186   0.00000  Uiso   1.00
H48    H     0.03913   0.15338   0.52340   0.00000  Uiso   1.00
H49    H     0.41216   0.20392   0.38648   0.00000  Uiso   1.00
H50    H     0.36688   0.20590   0.55552   0.00000  Uiso   1.00
H51    H     0.42170   0.21009   0.63457   0.00000  Uiso   1.00
H52    H     0.20479   0.36161   0.47134   0.00000  Uiso   1.00
H53    H     0.20568   0.41584   0.37054   0.00000  Uiso   1.00
H54    H     0.20264   0.40977   0.62444   0.00000  Uiso   1.00
H55    H     0.39357   0.40423   0.38625   0.00000  Uiso   1.00
H56    H     0.42404   0.37006   0.60424   0.00000  Uiso   1.00
H57    H     0.36381   0.42850   0.60815   0.00000  Uiso   1.00
H58    H     0.57309   0.79136   0.10423   0.00000  Uiso   1.00
H59    H     0.59286   0.79642   0.87292   0.00000  Uiso   1.00
H60    H     0.63115   0.79328   0.08057   0.00000  Uiso   1.00
H61    H     0.79106   0.63237   0.88169   0.00000  Uiso   1.00
H62    H     0.79574   0.57338  -0.04866   0.00000  Uiso   1.00
H63    H     0.79722   0.61676   0.12786   0.00000  Uiso   1.00
H64    H     0.63415   0.57274   0.11776   0.00000  Uiso   1.00
H65    H     0.61829   0.58717   0.87234   0.00000  Uiso   1.00
H66    H     0.57427   0.62747   0.04950   0.00000  Uiso   1.00
H67    H     0.07341   0.86922   0.89919   0.00000  Uiso   1.00
H68    H     0.03414   0.87454   0.09938   0.00000  Uiso   1.00
H69    H     0.09152   0.87757   0.13274   0.00000  Uiso   1.00
H70    H     0.87115   0.03053  -0.02731   0.00000  Uiso   1.00
H71    H     0.87280   0.08568   0.88533   0.00000  Uiso   1.00
H72    H     0.87109   0.07583   0.13699   0.00000  Uiso   1.00
H73    H     0.06735   0.06196   0.86800   0.00000  Uiso   1.00
H74    H     0.08856   0.04056   0.10895   0.00000  Uiso   1.00
H75    H     0.02947   0.09850   0.06136   0.00000  Uiso   1.00
H76    H     0.96921   0.90334   0.59547   0.00000  Uiso   1.00
H77    H     0.94554   0.92663   0.36319   0.00000  Uiso   1.00
H78    H     0.90824   0.96028   0.56408   0.00000  Uiso   1.00
H79    H     0.12264   0.96662   0.37445   0.00000  Uiso   1.00
H80    H     0.12888   0.90720   0.44216   0.00000  Uiso   1.00
H81    H     0.13175   0.94964   0.61911   0.00000  Uiso   1.00
H82    H     0.90503   0.12466   0.60432   0.00000  Uiso   1.00
H83    H     0.93008   0.13026   0.38578   0.00000  Uiso   1.00
H84    H     0.96391   0.12535   0.60831   0.00000  Uiso   1.00
H85    H     0.20211   0.98703   0.35889   0.00000  Uiso   1.00
H86    H     0.18909   0.98573   0.60558   0.00000  Uiso   1.00
H87    H     0.24168   0.99433   0.53791   0.00000  Uiso   1.00
H88    H     0.81717   0.19608   0.36246   0.00000  Uiso   1.00
H89    H     0.82120   0.19291   0.61712   0.00000  Uiso   1.00
H90    H     0.76417   0.24160   0.50208   0.00000  Uiso   1.00
H91    H     0.09161   0.33662   0.53684   0.00000  Uiso   1.00
H92    H     0.13254   0.34438   0.37462   0.00000  Uiso   1.00
H93    H     0.14380   0.34470   0.62713   0.00000  Uiso   1.00
H94    H     0.34196   0.53473   0.34229   0.00000  Uiso   1.00
H95    H     0.34934   0.50612   0.57133   0.00000  Uiso   1.00
H96    H     0.33776   0.57030   0.55626   0.00000  Uiso   1.00
H97    H     0.99422   0.76290   0.50914   0.00000  Uiso   1.00
H98    H     0.98529   0.81834   0.38241   0.00000  Uiso   1.00
H99    H     0.98762   0.81760   0.63735   0.00000  Uiso   1.00
H100   H     0.56985   0.09231   0.55000   0.00000  Uiso   1.00
H101   H     0.52877   0.12690   0.35092   0.00000  Uiso   1.00
H102   H     0.50669   0.14581   0.58945   0.00000  Uiso   1.00
H103   H     0.75658   0.00536   0.02962   0.00000  Uiso   1.00
H104   H     0.79687   0.01294   0.86413   0.00000  Uiso   1.00
H105   H     0.80872   0.01397   0.11495   0.00000  Uiso   1.00
H106   H     0.86781   0.65589   0.85506   0.00000  Uiso   1.00
H107   H     0.85474   0.65386   0.10196   0.00000  Uiso   1.00
H108   H     0.90751   0.66251   0.03600   0.00000  Uiso   1.00
H109   H     0.23686   0.75729   0.04223   0.00000  Uiso   1.00
H110   H     0.19460   0.79190   0.84609   0.00000  Uiso   1.00
H111   H     0.17387   0.81042   0.08510   0.00000  Uiso   1.00
H112   H     0.48372   0.86180   0.86385   0.00000  Uiso   1.00
H113   H     0.48651   0.85925   0.11943   0.00000  Uiso   1.00
H114   H     0.42985   0.90758   0.00025   0.00000  Uiso   1.00
H115   H     0.66251   0.42962  -0.00400   0.00000  Uiso   1.00
H116   H     0.65436   0.48475   0.86805   0.00000  Uiso   1.00
H117   H     0.65545   0.48466   0.12368   0.00000  Uiso   1.00
H118   H     0.01080   0.19890   0.84982   0.00000  Uiso   1.00
H119   H     0.01726   0.17325   0.08354   0.00000  Uiso   1.00
H120   H     0.00594   0.23694   0.05655   0.00000  Uiso   1.00
N1     N     0.14342   0.90345   1.00876   0.00000  Uiso   1.00
N2     N     0.95146   0.14413   0.96835   0.00000  Uiso   1.00
N3     N     0.90460   0.95160   1.04088   0.00000  Uiso   1.00
N4     N     0.52385   0.75870   0.95017   0.00000  Uiso   1.00
N5     N     0.75942   0.71700   0.03612   0.00000  Uiso   1.00
N6     N     0.71771   0.52317   0.95892   0.00000  Uiso   1.00
N7     N     0.85727   0.09287   0.45525   0.00000  Uiso   1.00
N8     N     0.04897   0.85640   0.47188   0.00000  Uiso   1.00
N9     N     0.09373   0.04898   0.53662   0.00000  Uiso   1.00
N10    N     0.47705   0.23928   0.53624   0.00000  Uiso   1.00
N11    N     0.24054   0.28188   0.55270   0.00000  Uiso   1.00
N12    N     0.28393   0.47716   0.46269   0.00000  Uiso   1.00
loop_
_geom_bond_atom_site_label_1
_geom_bond_atom_site_label_2
_geom_bond_distance
_geom_bond_site_symmetry_2
_ccdc_geom_bond_type
C1     C55     1.504   .     S
C1     C2      1.412   1_454 D
C1     C6      1.423   1_544 S
C2     C8      1.465   .     S
C2     C1      1.412   1_656 D
C2     C3      1.422   1_556 S
C3     C54     1.503   .     S
C3     C2      1.422   1_554 S
C3     C4      1.413   1_545 D
C4     C3      1.413   1_565 D
C4     C5      1.420   1_655 S
C4     C9      1.467   1_554 S
C5     C56     1.503   .     S
C5     C4      1.420   1_455 S
C5     C6      1.415   1_554 D
C6     C7      1.460   .     S
C6     C1      1.423   1_566 S
C6     C5      1.415   1_556 D
C7     N1      1.293   .     D
C7     H1      1.099   .     S
C8     N2      1.291   .     D
C8     H2      1.101   1_556 S
C9     H3      1.101   .     S
C9     N3      1.289   .     D
C9     C4      1.467   1_556 S
C10    N2      1.397   .     S
C10    C11     1.418   .     D
C10    C12     1.408   .     S
C11    C65     1.504   .     S
C11    C13     1.393   1_556 S
C12    C14     1.388   .     D
C12    H20     1.091   .     S
C13    C15     1.409   .     D
C13    H4      1.090   .     S
C13    C11     1.393   1_554 S
C14    H5      1.089   .     S
C14    C15     1.410   1_556 S
C15    C28     1.479   .     S
C15    C14     1.410   1_554 S
C16    N1      1.397   .     S
C16    C18     1.411   .     S
C16    C17     1.419   .     D
C17    C62     1.502   .     S
C17    C19     1.395   1_556 S
C18    C20     1.386   .     D
C18    H21     1.091   .     S
C19    H6      1.090   .     S
C19    C21     1.408   .     D
C19    C17     1.395   1_554 S
C20    H7      1.089   .     S
C20    C21     1.411   1_556 S
C21    C34     1.480   .     S
C21    C20     1.411   1_554 S
C22    C23     1.417   .     D
C22    C24     1.408   .     S
C22    N3      1.398   .     S
C23    C25     1.394   1_556 S
C23    C61     1.502   1_556 S
C24    C26     1.388   .     D
C24    H24     1.091   .     S
C25    H8      1.090   .     S
C25    C23     1.394   1_554 S
C25    C27     1.409   1_554 D
C26    C27     1.410   .     S
C26    H9      1.089   .     S
C27    C39     1.481   .     S
C27    C25     1.409   1_556 D
C28    C30     1.409   .     D
C28    C29     1.409   1_554 S
C29    H10     1.089   .     S
C29    C31     1.388   .     D
C29    C28     1.409   1_556 S
C30    H11     1.090   .     S
C30    C32     1.393   1_554 S
C31    H18     1.091   .     S
C31    C33     1.407   .     S
C32    C64     1.502   .     S
C32    C33     1.416   .     D
C32    C30     1.393   1_556 S
C33    N6      1.397   .     S
C34    C35     1.410   .     S
C34    C60     1.409   1_554 D
C35    H12     1.090   .     S
C35    C37     1.393   1_554 D
C36    H19     1.091   .     S
C36    C60     1.388   .     S
C36    C38     1.407   .     D
C37    C66     1.503   .     S
C37    C38     1.415   .     S
C37    C35     1.393   1_556 D
C38    N4      1.398   .     S
C39    C40     1.410   .     D
C39    C41     1.409   1_556 S
C40    H13     1.089   .     S
C40    C42     1.387   .     S
C41    H14     1.090   .     S
C41    C39     1.409   1_554 S
C41    C43     1.393   1_554 D
C42    C44     1.408   .     D
C42    H23     1.091   .     S
C43    C44     1.416   .     S
C43    C63     1.502   .     S
C43    C41     1.393   1_556 D
C44    N5      1.397   1_556 S
C45    C59     1.505   .     S
C45    C46     1.419   1_554 S
C45    C52     1.416   1_554 D
C46    C48     1.470   .     S
C46    C45     1.419   1_556 S
C46    C47     1.415   1_556 D
C47    C57     1.508   .     S
C47    C49     1.415   .     S
C47    C46     1.415   1_554 D
C48    N4      1.287   .     D
C48    H15     1.104   1_556 S
C49    C51     1.414   .     D
C49    C50     1.470   1_554 S
C50    H16     1.105   .     S
C50    C49     1.470   1_556 S
C50    N5      1.287   1_556 D
C51    C58     1.507   .     S
C51    C52     1.415   1_554 S
C52    C53     1.474   .     S
C52    C45     1.416   1_556 D
C52    C51     1.415   1_556 S
C53    N6      1.286   .     D
C53    H17     1.105   1_556 S
C54    H70     1.091   .     S
C54    H72     1.101   .     S
C54    H71     1.098   1_554 S
C55    H74     1.096   .     S
C55    H75     1.090   .     S
C55    H73     1.100   1_554 S
C56    H69     1.092   .     S
C56    H68     1.093   .     S
C56    H67     1.101   1_554 S
C57    H58     1.095   .     S
C57    H60     1.096   .     S
C57    H59     1.100   1_554 S
C58    H62     1.095   .     S
C58    H63     1.100   .     S
C58    H61     1.097   1_554 S
C59    H64     1.096   .     S
C59    H66     1.093   .     S
C59    H65     1.099   1_554 S
C60    H22     1.089   .     S
C60    C34     1.409   1_556 D
C61    C23     1.502   1_554 S
C61    H103    1.097   1_565 S
C61    H104    1.102   1_564 S
C61    H105    1.098   1_565 S
C62    H110    1.102   .     S
C62    H109    1.098   1_556 S
C62    H111    1.096   1_556 S
C63    H106    1.102   .     S
C63    H107    1.098   1_556 S
C63    H108    1.098   1_556 S
C64    H116    1.100   .     S
C64    H115    1.097   1_556 S
C64    H117    1.100   1_556 S
C65    H118    1.102   1_655 S
C65    H119    1.096   1_656 S
C65    H120    1.098   1_656 S
C66    H112    1.100   .     S
C66    H113    1.100   1_556 S
C66    H114    1.098   1_556 S
C67    C121    1.500   .     S
C67    C68     1.418   1_655 D
C67    C72     1.420   1_565 S
C68    C74     1.466   .     S
C68    C69     1.418   .     S
C68    C67     1.418   1_455 D
C69    C120    1.505   .     S
C69    C70     1.413   1_565 D
C70    C75     1.463   .     S
C70    C69     1.413   1_545 D
C70    C71     1.416   1_455 S
C71    C122    1.504   .     S
C71    C72     1.413   .     D
C71    C70     1.416   1_655 S
C72    C73     1.464   .     S
C72    C67     1.420   1_545 S
C73    H25     1.100   .     S
C73    N7      1.289   .     D
C74    H26     1.103   .     S
C74    N8      1.288   .     D
C75    H27     1.101   .     S
C75    N9      1.288   .     D
C76    C78     1.407   .     D
C76    C77     1.418   .     S
C76    N8      1.394   .     S
C77    C131    1.502   .     S
C77    C79     1.392   .     D
C78    H44     1.091   .     S
C78    C80     1.387   .     S
C79    C81     1.410   .     S
C79    H28     1.090   .     S
C80    C81     1.409   .     D
C80    H29     1.089   .     S
C81    C94     1.479   .     S
C82    C84     1.406   .     S
C82    N7      1.399   .     S
C82    C83     1.416   .     D
C83    C85     1.394   .     S
C83    C128    1.502   .     S
C84    C86     1.387   .     D
C84    H45     1.091   .     S
C85    C87     1.410   .     D
C85    H30     1.090   .     S
C86    H31     1.089   .     S
C86    C87     1.409   .     S
C87    C100    1.479   .     S
C88    C90     1.408   .     S
C88    C89     1.416   .     D
C88    N9      1.396   .     S
C89    C127    1.502   .     S
C89    C91     1.394   .     S
C90    C92     1.386   .     D
C90    H48     1.091   .     S
C91    H32     1.090   .     S
C91    C93     1.409   .     D
C92    C93     1.410   .     S
C92    H33     1.089   .     S
C93    C105    1.480   .     S
C94    C96     1.408   .     D
C94    C95     1.410   .     S
C95    C97     1.388   .     D
C95    H34     1.089   .     S
C96    C98     1.394   .     S
C96    H35     1.090   .     S
C97    H42     1.091   .     S
C97    C99     1.409   .     S
C98    C99     1.417   .     D
C98    C130    1.504   .     S
C99    N12     1.402   .     S
C100   C101    1.408   .     S
C100   C126    1.410   .     D
C101   C103    1.394   .     D
C101   H36     1.090   .     S
C102   C104    1.409   .     D
C102   C126    1.387   .     S
C102   H43     1.091   .     S
C103   C104    1.417   .     S
C103   C132    1.502   .     S
C104   N10     1.398   .     S
C105   C106    1.409   .     D
C105   C107    1.408   .     S
C106   H37     1.089   .     S
C106   C108    1.389   .     S
C107   H38     1.090   .     S
C107   C109    1.392   .     D
C108   H47     1.091   .     S
C108   C110    1.407   .     D
C109   C129    1.503   .     S
C109   C110    1.416   .     S
C110   N11     1.399   .     S
C111   C118    1.415   .     S
C111   C112    1.419   .     D
C111   C125    1.506   .     S
C112   C114    1.473   .     S
C112   C113    1.415   .     S
C113   C115    1.418   .     D
C113   C123    1.506   .     S
C114   H39     1.105   .     S
C114   N10     1.288   .     D
C115   C116    1.476   .     S
C115   C117    1.413   .     S
C116   H40     1.105   .     S
C116   N11     1.285   .     D
C117   C124    1.507   .     S
C117   C118    1.422   .     D
C118   C119    1.470   .     S
C119   H41     1.103   .     S
C119   N12     1.290   .     D
C120   H80     1.093   .     S
C120   H79     1.096   .     S
C120   H81     1.097   .     S
C121   H77     1.097   .     S
C121   H78     1.093   .     S
C121   H76     1.092   .     S
C122   H82     1.093   .     S
C122   H84     1.095   .     S
C122   H83     1.100   .     S
C123   H51     1.095   .     S
C123   H50     1.094   .     S
C123   H49     1.102   .     S
C124   H52     1.090   .     S
C124   H53     1.099   .     S
C124   H54     1.102   .     S
C125   H56     1.096   .     S
C125   H57     1.094   .     S
C125   H55     1.101   .     S
C126   H46     1.089   .     S
C127   H85     1.102   1_545 S
C127   H86     1.098   1_545 S
C127   H87     1.098   1_545 S
C128   H88     1.100   .     S
C128   H90     1.098   .     S
C128   H89     1.100   .     S
C129   H92     1.101   .     S
C129   H93     1.099   .     S
C129   H91     1.097   .     S
C130   H94     1.102   .     S
C130   H96     1.098   .     S
C130   H95     1.095   .     S
C131   H97     1.098   1_455 S
C131   H98     1.100   1_455 S
C131   H99     1.100   1_455 S
C132   H101    1.102   .     S
C132   H102    1.097   .     S
C132   H100    1.098   .     S
H2     C8      1.101   1_554 S
H15    C48     1.104   1_554 S
H17    C53     1.105   1_554 S
H59    C57     1.100   1_556 S
H61    C58     1.097   1_556 S
H65    C59     1.099   1_556 S
H67    C56     1.101   1_556 S
H71    C54     1.098   1_556 S
H73    C55     1.100   1_556 S
H85    C127    1.102   1_565 S
H86    C127    1.098   1_565 S
H87    C127    1.098   1_565 S
H97    C131    1.098   1_655 S
H98    C131    1.100   1_655 S
H99    C131    1.100   1_655 S
H103   C61     1.097   1_545 S
H104   C61     1.102   1_546 S
H105   C61     1.098   1_545 S
H107   C63     1.098   1_554 S
H108   C63     1.098   1_554 S
H109   C62     1.098   1_554 S
H111   C62     1.096   1_554 S
H113   C66     1.100   1_554 S
H114   C66     1.098   1_554 S
H115   C64     1.097   1_554 S
H117   C64     1.100   1_554 S
H118   C65     1.102   1_455 S
H119   C65     1.096   1_454 S
H120   C65     1.098   1_454 S
N5     C44     1.397   1_554 S
N5     C50     1.287   1_554 D
