data_1075
_audit_creation_date              2023-09-08
_audit_creation_method            'Materials Studio'
_symmetry_space_group_name_H-M    'P1'
_symmetry_Int_Tables_number       1
_symmetry_cell_setting            triclinic
loop_
_symmetry_equiv_pos_as_xyz
  x,y,z
_cell_length_a                    22.6000
_cell_length_b                    22.6963
_cell_length_c                    6.9626
_cell_angle_alpha                 90.8457
_cell_angle_beta                  90.4211
_cell_angle_gamma                 60.2238
loop_
_atom_site_label
_atom_site_type_symbol
_atom_site_fract_x
_atom_site_fract_y
_atom_site_fract_z
_atom_site_U_iso_or_equiv
_atom_site_adp_type
_atom_site_occupancy
C1     C     0.02668   0.04247   0.00152   0.00000  Uiso   1.00
C2     C     0.95510   0.07019   0.00679   0.00000  Uiso   1.00
C3     C     0.92813   0.02591   0.00867   0.00000  Uiso   1.00
C4     C     0.97158   0.95452   0.00875   0.00000  Uiso   1.00
C5     C     0.04305   0.92777   0.01250   0.00000  Uiso   1.00
C6     C     0.07102   0.97153   0.01073   0.00000  Uiso   1.00
C7     C     0.05064   0.09131   0.97554   0.00000  Uiso   1.00
C8     C     0.85463   0.05185   0.02258   0.00000  Uiso   1.00
C9     C     0.09102   0.85462   0.03138   0.00000  Uiso   1.00
C10    C     0.73975   0.13069   0.96267   0.00000  Uiso   1.00
C11    C     0.69934   0.20185   0.96783   0.00000  Uiso   1.00
C12    C     0.70741   0.09087   0.97204   0.00000  Uiso   1.00
C13    C     0.62870   0.23695   0.98746   0.00000  Uiso   1.00
C14    C     0.63664   0.12603   0.98842   0.00000  Uiso   1.00
C15    C     0.59562   0.19737   0.99669   0.00000  Uiso   1.00
C16    C     0.13245   0.12772   1.01077   0.00000  Uiso   1.00
C17    C     0.20404   0.09743   1.01066   0.00000  Uiso   1.00
C18    C     0.09263   0.19988   1.01013   0.00000  Uiso   1.00
C19    C     0.23913   0.13340   1.00962   0.00000  Uiso   1.00
C20    C     0.12781   0.23580   0.01911   0.00000  Uiso   1.00
C21    C     0.19938   0.20533   0.01833   0.00000  Uiso   1.00
C22    C     0.12785   0.73871   0.97690   0.00000  Uiso   1.00
C23    C     0.09696   0.69805   0.98133   0.00000  Uiso   1.00
C24    C     0.19999   0.70687   0.98994   0.00000  Uiso   1.00
C25    C     0.13250   0.62790   1.00450   0.00000  Uiso   1.00
C26    C     0.23544   0.63679   1.01538   0.00000  Uiso   1.00
C27    C     0.20449   0.59616   1.02302   0.00000  Uiso   1.00
C28    C     0.24212   0.47920   0.98174   0.00000  Uiso   1.00
C29    C     0.37549   0.26308   0.00492   0.00000  Uiso   1.00
C30    C     0.27768   0.24433   0.96594   0.00000  Uiso   1.00
C31    C     0.47806   0.28095   0.99212   0.00000  Uiso   1.00
C32    C     0.36172   0.37769   0.00774   0.00000  Uiso   1.00
C33    C     0.29013   0.40589   0.00360   0.00000  Uiso   1.00
C34    C     0.30378   0.29206  -0.00354   0.00000  Uiso   1.00
C35    C     0.26068   0.36324  -0.00050   0.00000  Uiso   1.00
C36    C     0.40456   0.30581   0.00580   0.00000  Uiso   1.00
C37    C     0.91096   0.14594   0.02676   0.00000  Uiso   1.00
C38    C     0.93966   0.91011   0.00557   0.00000  Uiso   1.00
C39    C     0.14695   0.94284   0.00649   0.00000  Uiso   1.00
C40    C     0.74458   0.01445   0.96177   0.00000  Uiso   1.00
C41    C     0.59391   0.31328   0.99832   0.00000  Uiso   1.00
C42    C     0.01589   0.23910   1.01462   0.00000  Uiso   1.00
C43    C     0.31587   0.09434   0.01583   0.00000  Uiso   1.00
C44    C     0.23943   0.74412   0.97478   0.00000  Uiso   1.00
C45    C     0.09237   0.59121   1.01170   0.00000  Uiso   1.00
C46    C     0.41893   0.18704   0.01642   0.00000  Uiso   1.00
C47    C     0.39354   0.42255   0.01166   0.00000  Uiso   1.00
C48    C     0.18405   0.39539  -0.00045   0.00000  Uiso   1.00
C49    C     0.97202   0.95842   0.49626   0.00000  Uiso   1.00
C50    C     0.04379   0.93005   0.50325   0.00000  Uiso   1.00
C51    C     0.07187   0.97344   0.50481   0.00000  Uiso   1.00
C52    C     0.02890   0.04514   0.50817   0.00000  Uiso   1.00
C53    C     0.95749   0.07246   0.51072   0.00000  Uiso   1.00
C54    C     0.92855   0.02940   0.50174   0.00000  Uiso   1.00
C55    C     0.94720   0.91000   0.47046   0.00000  Uiso   1.00
C56    C     0.14542   0.94752   0.51354   0.00000  Uiso   1.00
C57    C     0.90842   0.14533   0.53278   0.00000  Uiso   1.00
C58    C     0.26088   0.86571   0.46508   0.00000  Uiso   1.00
C59    C     0.30084   0.79443   0.46943   0.00000  Uiso   1.00
C60    C     0.29437   0.90475   0.47770   0.00000  Uiso   1.00
C61    C     0.37140   0.75879   0.49121   0.00000  Uiso   1.00
C62    C     0.36502   0.86892   0.49952   0.00000  Uiso   1.00
C63    C     0.40490   0.79760   0.50676   0.00000  Uiso   1.00
C64    C     0.86683   0.87294   0.51284   0.00000  Uiso   1.00
C65    C     0.79533   0.90285   0.50901   0.00000  Uiso   1.00
C66    C     0.90704   0.80086   0.51202   0.00000  Uiso   1.00
C67    C     0.76065   0.86647   0.50161   0.00000  Uiso   1.00
C68    C     0.87217   0.76466   0.51446   0.00000  Uiso   1.00
C69    C     0.80065   0.79447   0.50896   0.00000  Uiso   1.00
C70    C     0.87168   0.26205   0.48567   0.00000  Uiso   1.00
C71    C     0.90260   0.30273   0.48403   0.00000  Uiso   1.00
C72    C     0.79927   0.29441   0.48636   0.00000  Uiso   1.00
C73    C     0.86694   0.37334   0.48765   0.00000  Uiso   1.00
C74    C     0.76361   0.36513   0.48038   0.00000  Uiso   1.00
C75    C     0.79463   0.40577   0.48367   0.00000  Uiso   1.00
C76    C     0.75910   0.52127   0.54673   0.00000  Uiso   1.00
C77    C     0.62374   0.73641   0.50080   0.00000  Uiso   1.00
C78    C     0.72024   0.75690   0.46387   0.00000  Uiso   1.00
C79    C     0.52293   0.71623   0.47604   0.00000  Uiso   1.00
C80    C     0.64050   0.62110   0.51455   0.00000  Uiso   1.00
C81    C     0.71192   0.59459   0.52166   0.00000  Uiso   1.00
C82    C     0.69535   0.70881   0.49547   0.00000  Uiso   1.00
C83    C     0.73991   0.63807   0.50989   0.00000  Uiso   1.00
C84    C     0.59643   0.69223   0.50324   0.00000  Uiso   1.00
C85    C     0.08723   0.85447   0.52335   0.00000  Uiso   1.00
C86    C     0.06119   0.08931   0.50833   0.00000  Uiso   1.00
C87    C     0.85232   0.06180   0.48681   0.00000  Uiso   1.00
C88    C     0.25907   0.98118   0.46925   0.00000  Uiso   1.00
C89    C     0.40689   0.68259   0.50205   0.00000  Uiso   1.00
C90    C     0.98365   0.76225   0.52488   0.00000  Uiso   1.00
C91    C     0.68391   0.90566   0.50103   0.00000  Uiso   1.00
C92    C     0.75980   0.25700   0.47833   0.00000  Uiso   1.00
C93    C     0.90694   0.41012   0.48050   0.00000  Uiso   1.00
C94    C     0.57885   0.81258   0.50627   0.00000  Uiso   1.00
C95    C     0.60970   0.57580   0.53342   0.00000  Uiso   1.00
C96    C     0.81599   0.60915   0.50212   0.00000  Uiso   1.00
H1     H     0.83925   0.02325   0.11548   0.00000  Uiso   1.00
H2     H     0.13443   0.84200   0.12705   0.00000  Uiso   1.00
H3     H     0.48978   0.32026   0.95177   0.00000  Uiso   1.00
H4     H     0.23289   0.04208   1.01599   0.00000  Uiso   1.00
H5     H     0.72612   0.23067   0.95850   0.00000  Uiso   1.00
H6     H     0.04157   0.72408   0.96618   0.00000  Uiso   1.00
H7     H     0.01507   0.13695   0.89679   0.00000  Uiso   1.00
H8     H     0.09883   0.29109   0.03123   0.00000  Uiso   1.00
H9     H     0.29086   0.61077   1.02936   0.00000  Uiso   1.00
H10    H     0.60959   0.09745   0.99528   0.00000  Uiso   1.00
H11    H     0.19888   0.49053   0.88617   0.00000  Uiso   1.00
H12    H     0.30650   0.20374   0.85917   0.00000  Uiso   1.00
H13    H     0.16024   0.98110   0.58747   0.00000  Uiso   1.00
H14    H     0.86284   0.15664   0.61617   0.00000  Uiso   1.00
H15    H     0.51262   0.68194   0.38651   0.00000  Uiso   1.00
H16    H     0.76601   0.95824   0.51577   0.00000  Uiso   1.00
H17    H     0.27339   0.76622   0.45883   0.00000  Uiso   1.00
H18    H     0.95818   0.27610   0.47592   0.00000  Uiso   1.00
H19    H     0.98049   0.86500   0.38297   0.00000  Uiso   1.00
H20    H     0.90122   0.70944   0.52531   0.00000  Uiso   1.00
H21    H     0.70806   0.39160   0.46987   0.00000  Uiso   1.00
H22    H     0.39223   0.89733   0.51225   0.00000  Uiso   1.00
H23    H     0.80150   0.50796   0.64769   0.00000  Uiso   1.00
H24    H     0.68736   0.80008   0.37200   0.00000  Uiso   1.00
H25    H     0.97655   0.85731   0.03618   0.00000  Uiso   1.00
H26    H     0.91861   0.91101   0.86195   0.00000  Uiso   1.00
H27    H     0.89696   0.92826   0.10682   0.00000  Uiso   1.00
H28    H     0.16232   0.95378   0.86809   0.00000  Uiso   1.00
H29    H     0.17564   0.88800   0.02535   0.00000  Uiso   1.00
H30    H     0.16299   0.96709   0.11532   0.00000  Uiso   1.00
H31    H     0.86003   0.16019   0.07857   0.00000  Uiso   1.00
H32    H     0.90356   0.17172   0.88878   0.00000  Uiso   1.00
H33    H     0.93404   0.16630   0.12733   0.00000  Uiso   1.00
H34    H     0.09915   0.82773   0.38376   0.00000  Uiso   1.00
H35    H     0.06161   0.83454   0.61230   0.00000  Uiso   1.00
H36    H     0.13634   0.84090   0.58911   0.00000  Uiso   1.00
H37    H     0.83647   0.02467   0.45167   0.00000  Uiso   1.00
H38    H     0.83213   0.10221   0.37967   0.00000  Uiso   1.00
H39    H     0.82821   0.08531   0.62517   0.00000  Uiso   1.00
H40    H     0.08745   0.08338   0.37091   0.00000  Uiso   1.00
H41    H     0.09956   0.07537   0.62221   0.00000  Uiso   1.00
H42    H     0.02310   0.14288   0.52412   0.00000  Uiso   1.00
H43    H     0.43671   0.16379   0.87291   0.00000  Uiso   1.00
H44    H     0.39045   0.16472   0.07944   0.00000  Uiso   1.00
H45    H     0.46502   0.17278   0.10039   0.00000  Uiso   1.00
H46    H     0.42263   0.41644   0.87942   0.00000  Uiso   1.00
H47    H     0.42917   0.40977   0.13278   0.00000  Uiso   1.00
H48    H     0.35460   0.47581   0.02864   0.00000  Uiso   1.00
H49    H     0.16846   0.35734   0.01679   0.00000  Uiso   1.00
H50    H     0.16151   0.42352   0.86638   0.00000  Uiso   1.00
H51    H     0.16194   0.43213   0.11907   0.00000  Uiso   1.00
H52    H     0.78797   0.99388   0.86198   0.00000  Uiso   1.00
H53    H     0.70968   0.99660   0.91414   0.00000  Uiso   1.00
H54    H     0.76464   0.99143   0.10265   0.00000  Uiso   1.00
H55    H     0.55938   0.33420   0.12251   0.00000  Uiso   1.00
H56    H     0.56338   0.33742   0.86927   0.00000  Uiso   1.00
H57    H     0.63226   0.32940   1.01107   0.00000  Uiso   1.00
H58    H     0.99484   0.21889   0.12026   0.00000  Uiso   1.00
H59    H     0.99322   0.23863   0.87449   0.00000  Uiso   1.00
H60    H     0.99795   0.29249   0.05251   0.00000  Uiso   1.00
H61    H     0.33914   0.09454   0.87782   0.00000  Uiso   1.00
H62    H     0.33373   0.04110   0.05098   0.00000  Uiso   1.00
H63    H     0.33597   0.11530   0.12489   0.00000  Uiso   1.00
H64    H     0.21774   0.78407   0.86610   0.00000  Uiso   1.00
H65    H     0.29255   0.70862   0.93474   0.00000  Uiso   1.00
H66    H     0.24069   0.76858   0.11128   0.00000  Uiso   1.00
H67    H     0.11093   0.55263   0.12434   0.00000  Uiso   1.00
H68    H     0.09469   0.56505   0.87513   0.00000  Uiso   1.00
H69    H     0.03841   0.62762   0.03967   0.00000  Uiso   1.00
H70    H     0.23616   0.00546   0.60811   0.00000  Uiso   1.00
H71    H     0.21795   0.00228   0.36201   0.00000  Uiso   1.00
H72    H     0.29593   0.99748   0.43318   0.00000  Uiso   1.00
H73    H     0.43395   0.65774   0.36814   0.00000  Uiso   1.00
H74    H     0.36953   0.66602   0.52744   0.00000  Uiso   1.00
H75    H     0.44479   0.66318   0.61837   0.00000  Uiso   1.00
H76    H     0.00839   0.75970   0.38695   0.00000  Uiso   1.00
H77    H     0.00129   0.70973   0.56798   0.00000  Uiso   1.00
H78    H     0.00288   0.78505   0.63091   0.00000  Uiso   1.00
H79    H     0.66217   0.88577   0.60543   0.00000  Uiso   1.00
H80    H     0.66243   0.90430   0.35974   0.00000  Uiso   1.00
H81    H     0.66573   0.95924   0.53699   0.00000  Uiso   1.00
H82    H     0.75927   0.23440   0.61658   0.00000  Uiso   1.00
H83    H     0.78111   0.21534   0.37170   0.00000  Uiso   1.00
H84    H     0.70654   0.29183   0.43890   0.00000  Uiso   1.00
H85    H     0.88529   0.45163   0.37650   0.00000  Uiso   1.00
H86    H     0.95985   0.37457   0.43859   0.00000  Uiso   1.00
H87    H     0.90875   0.43227   0.62055   0.00000  Uiso   1.00
H88    H     0.52833   0.82685   0.56147   0.00000  Uiso   1.00
H89    H     0.57243   0.83476   0.36247   0.00000  Uiso   1.00
H90    H     0.60152   0.83567   0.59876   0.00000  Uiso   1.00
H91    H     0.64339   0.52985   0.61300   0.00000  Uiso   1.00
H92    H     0.60196   0.55821   0.39215   0.00000  Uiso   1.00
H93    H     0.56036   0.60238   0.60716   0.00000  Uiso   1.00
H94    H     0.82993   0.62779   0.37498   0.00000  Uiso   1.00
H95    H     0.84366   0.55370   0.49479   0.00000  Uiso   1.00
H96    H     0.83415   0.62628   0.62560   0.00000  Uiso   1.00
N1     N     0.80960   0.10622   0.93948   0.00000  Uiso   1.00
N2     N     0.08256   0.80791   0.95083   0.00000  Uiso   1.00
N3     N     0.10912   0.08165   0.03253   0.00000  Uiso   1.00
N4     N     0.24946   0.52727   0.05698   0.00000  Uiso   1.00
N5     N     0.22451   0.25002   0.04868   0.00000  Uiso   1.00
N6     N     0.52621   0.21910   0.01652   0.00000  Uiso   1.00
N7     N     0.19093   0.88946   0.44494   0.00000  Uiso   1.00
N8     N     0.91767   0.19271   0.46588   0.00000  Uiso   1.00
N9     N     0.89032   0.91911   0.53807   0.00000  Uiso   1.00
N10    N     0.75026   0.47549   0.46234   0.00000  Uiso   1.00
N11    N     0.77672   0.74886   0.53268   0.00000  Uiso   1.00
N12    N     0.47434   0.77316   0.54002   0.00000  Uiso   1.00
loop_
_geom_bond_atom_site_label_1
_geom_bond_atom_site_label_2
_geom_bond_distance
_geom_bond_site_symmetry_2
_ccdc_geom_bond_type
C1     C2      1.415   1_455 S
C1     C6      1.414   1_545 D
C1     C7      1.469   1_554 S
C2     C3      1.411   .     D
C2     C37     1.504   .     S
C2     C1      1.415   1_655 S
C3     C8      1.464   .     S
C3     C4      1.418   1_545 S
C4     C38     1.503   .     S
C4     C3      1.418   1_565 S
C4     C5      1.416   1_655 D
C5     C6      1.418   .     S
C5     C9      1.472   .     S
C5     C4      1.416   1_455 D
C6     C39     1.503   .     S
C6     C1      1.414   1_565 D
C7     H7      1.097   .     S
C7     C1      1.469   1_556 S
C7     N3      1.288   1_556 D
C8     H1      1.096   .     S
C8     N1      1.288   1_554 D
C9     H2      1.098   .     S
C9     N2      1.287   1_554 D
C10    N1      1.399   .     S
C10    C11     1.406   .     D
C10    C12     1.419   .     S
C11    H5      1.092   .     S
C11    C13     1.392   .     S
C12    C40     1.506   .     S
C12    C14     1.393   .     D
C13    C15     1.428   .     D
C13    C41     1.506   .     S
C14    H10     1.092   .     S
C14    C15     1.411   .     S
C15    N6      1.398   1_556 S
C16    C17     1.409   .     D
C16    C18     1.424   .     S
C16    N3      1.396   1_556 S
C17    C19     1.392   .     S
C17    H4      1.092   .     S
C18    C42     1.506   .     S
C18    C20     1.394   1_556 D
C19    C21     1.420   1_556 D
C19    C43     1.506   1_556 S
C20    C21     1.408   .     S
C20    H8      1.092   .     S
C20    C18     1.394   1_554 D
C21    N5      1.400   .     S
C21    C19     1.420   1_554 D
C22    N2      1.399   .     S
C22    C23     1.407   .     D
C22    C24     1.421   .     S
C23    H6      1.092   .     S
C23    C25     1.393   .     S
C24    C26     1.394   .     D
C24    C44     1.508   .     S
C25    C45     1.507   .     S
C25    C27     1.421   .     D
C26    H9      1.092   .     S
C26    C27     1.409   .     S
C27    N4      1.401   1_556 S
C28    H11     1.100   .     S
C28    C33     1.477   1_556 S
C28    N4      1.286   1_556 D
C29    C46     1.506   .     S
C29    C36     1.416   .     D
C29    C34     1.415   .     S
C30    H12     1.103   .     S
C30    C34     1.481   1_556 S
C30    N5      1.283   1_556 D
C31    H3      1.090   .     S
C31    C36     1.469   1_556 S
C31    N6      1.293   1_556 D
C32    C47     1.510   .     S
C32    C33     1.414   .     D
C32    C36     1.425   .     S
C33    C35     1.421   .     S
C33    C28     1.477   1_554 S
C34    C35     1.413   .     D
C34    C30     1.481   1_554 S
C35    C48     1.509   .     S
C36    C31     1.469   1_554 S
C37    H33     1.096   .     S
C37    H31     1.092   .     S
C37    H32     1.100   1_554 S
C38    H27     1.098   .     S
C38    H25     1.090   .     S
C38    H26     1.100   1_554 S
C39    H30     1.091   .     S
C39    H29     1.090   .     S
C39    H28     1.099   1_554 S
C40    H52     1.099   1_545 S
C40    H53     1.098   1_545 S
C40    H54     1.102   1_546 S
C41    H56     1.102   .     S
C41    H57     1.098   .     S
C41    H55     1.101   1_556 S
C42    H58     1.100   1_456 S
C42    H59     1.101   1_455 S
C42    H60     1.098   1_456 S
C43    H63     1.099   .     S
C43    H62     1.098   .     S
C43    C19     1.506   1_554 S
C43    H61     1.100   1_554 S
C44    H64     1.099   .     S
C44    H65     1.098   .     S
C44    H66     1.101   1_556 S
C45    H68     1.101   .     S
C45    H67     1.099   1_556 S
C45    H69     1.098   1_556 S
C46    H44     1.095   .     S
C46    H45     1.092   .     S
C46    H43     1.104   1_554 S
C47    H47     1.100   .     S
C47    H48     1.091   .     S
C47    H46     1.102   1_554 S
C48    H51     1.100   .     S
C48    H49     1.091   .     S
C48    H50     1.102   1_554 S
C49    C55     1.470   .     S
C49    C50     1.418   1_655 D
C49    C54     1.410   1_565 S
C50    C51     1.412   .     S
C50    C85     1.503   .     S
C50    C49     1.418   1_455 D
C51    C56     1.463   .     S
C51    C52     1.422   1_565 D
C52    C86     1.505   .     S
C52    C51     1.422   1_545 D
C52    C53     1.413   1_455 S
C53    C57     1.470   .     S
C53    C54     1.421   .     D
C53    C52     1.413   1_655 S
C54    C87     1.504   .     S
C54    C49     1.410   1_545 S
C55    H19     1.098   .     S
C55    N9      1.288   .     D
C56    H13     1.094   .     S
C56    N7      1.290   .     D
C57    H14     1.098   .     S
C57    N8      1.287   .     D
C58    N7      1.401   .     S
C58    C60     1.424   .     S
C58    C59     1.408   .     D
C59    H17     1.092   .     S
C59    C61     1.393   .     S
C60    C88     1.509   .     S
C60    C62     1.394   .     D
C61    C63     1.421   .     D
C61    C89     1.505   .     S
C62    C63     1.410   .     S
C62    H22     1.092   .     S
C63    N12     1.399   .     S
C64    C65     1.408   .     D
C64    N9      1.399   .     S
C64    C66     1.423   .     S
C65    H16     1.092   .     S
C65    C67     1.393   .     S
C66    C68     1.393   .     D
C66    C90     1.506   .     S
C67    C91     1.506   .     S
C67    C69     1.423   .     D
C68    C69     1.409   .     S
C68    H20     1.092   .     S
C69    N11     1.398   .     S
C70    N8      1.395   .     S
C70    C72     1.423   .     S
C70    C71     1.408   .     D
C71    H18     1.092   .     S
C71    C73     1.391   .     S
C72    C74     1.394   .     D
C72    C92     1.507   .     S
C73    C75     1.421   .     D
C73    C93     1.506   .     S
C74    C75     1.409   .     S
C74    H21     1.092   .     S
C75    N10     1.400   .     S
C76    H23     1.101   .     S
C76    C81     1.477   .     S
C76    N10     1.285   .     D
C77    C94     1.509   .     S
C77    C84     1.415   .     S
C77    C82     1.416   .     D
C78    H24     1.100   .     S
C78    C82     1.475   .     S
C78    N11     1.286   .     D
C79    H15     1.101   .     S
C79    C84     1.480   .     S
C79    N12     1.286   .     D
C80    C81     1.416   .     S
C80    C95     1.508   .     S
C80    C84     1.418   .     D
C81    C83     1.416   .     D
C82    C83     1.414   .     S
C83    C96     1.506   .     S
C85    H35     1.094   .     S
C85    H36     1.092   .     S
C85    H34     1.100   .     S
C86    H40     1.100   .     S
C86    H42     1.091   .     S
C86    H41     1.098   .     S
C87    H37     1.091   .     S
C87    H38     1.098   .     S
C87    H39     1.102   .     S
C88    H72     1.098   .     S
C88    H70     1.102   1_565 S
C88    H71     1.099   1_565 S
C89    H73     1.101   .     S
C89    H75     1.100   .     S
C89    H74     1.098   .     S
C90    H76     1.101   1_655 S
C90    H77     1.098   1_655 S
C90    H78     1.100   1_655 S
C91    H80     1.101   .     S
C91    H81     1.098   .     S
C91    H79     1.099   .     S
C92    H83     1.100   .     S
C92    H84     1.098   .     S
C92    H82     1.100   .     S
C93    H86     1.098   .     S
C93    H85     1.099   .     S
C93    H87     1.100   .     S
C94    H89     1.103   .     S
C94    H90     1.097   .     S
C94    H88     1.092   .     S
C95    H93     1.096   .     S
C95    H91     1.094   .     S
C95    H92     1.101   .     S
C96    H94     1.100   .     S
C96    H95     1.093   .     S
C96    H96     1.096   .     S
H26    C38     1.100   1_556 S
H28    C39     1.099   1_556 S
H32    C37     1.100   1_556 S
H43    C46     1.104   1_556 S
H46    C47     1.102   1_556 S
H50    C48     1.102   1_556 S
H52    C40     1.099   1_565 S
H53    C40     1.098   1_565 S
H54    C40     1.102   1_564 S
H55    C41     1.101   1_554 S
H58    C42     1.100   1_654 S
H59    C42     1.101   1_655 S
H60    C42     1.098   1_654 S
H61    C43     1.100   1_556 S
H66    C44     1.101   1_554 S
H67    C45     1.099   1_554 S
H69    C45     1.098   1_554 S
H70    C88     1.102   1_545 S
H71    C88     1.099   1_545 S
H76    C90     1.101   1_455 S
H77    C90     1.098   1_455 S
H78    C90     1.100   1_455 S
N1     C8      1.288   1_556 D
N2     C9      1.287   1_556 D
N3     C7      1.288   1_554 D
N3     C16     1.396   1_554 S
N4     C27     1.401   1_554 S
N4     C28     1.286   1_554 D
N5     C30     1.283   1_554 D
N6     C15     1.398   1_554 S
N6     C31     1.293   1_554 D
