data_1076
_audit_creation_date              2023-09-08
_audit_creation_method            'Materials Studio'
_symmetry_space_group_name_H-M    'P1'
_symmetry_Int_Tables_number       1
_symmetry_cell_setting            triclinic
loop_
_symmetry_equiv_pos_as_xyz
  x,y,z
_cell_length_a                    22.5611
_cell_length_b                    22.6039
_cell_length_c                    3.7992
_cell_angle_alpha                 93.3810
_cell_angle_beta                  91.7201
_cell_angle_gamma                 59.8373
loop_
_atom_site_label
_atom_site_type_symbol
_atom_site_fract_x
_atom_site_fract_y
_atom_site_fract_z
_atom_site_U_iso_or_equiv
_atom_site_adp_type
_atom_site_occupancy
C1     C     0.02903   0.04193   0.98916   0.00000  Uiso   1.00
C2     C     0.95711   0.07061   0.00786   0.00000  Uiso   1.00
C3     C     0.92954   0.02693   0.01614   0.00000  Uiso   1.00
C4     C     0.97287   0.95494   1.00019   0.00000  Uiso   1.00
C5     C     0.04439   0.92719   0.98657   0.00000  Uiso   1.00
C6     C     0.07305   0.97035  -0.01687   0.00000  Uiso   1.00
C7     C     0.05472   0.08976   0.94779   0.00000  Uiso   1.00
C8     C     0.85535   0.05422   0.05713   0.00000  Uiso   1.00
C9     C     0.09132   0.85280   0.95004   0.00000  Uiso   1.00
C10    C     0.73927   0.13228   0.94582   0.00000  Uiso   1.00
C11    C     0.69855   0.20398   0.94678   0.00000  Uiso   1.00
C12    C     0.70674   0.09325   0.98524   0.00000  Uiso   1.00
C13    C     0.62779   0.23962   0.99672   0.00000  Uiso   1.00
C14    C     0.63609   0.12890   0.03753   0.00000  Uiso   1.00
C15    C     0.59542   0.20059   0.04106   0.00000  Uiso   1.00
C16    C     0.13130   0.13070   0.05973   0.00000  Uiso   1.00
C17    C     0.20307   0.09939   0.06031   0.00000  Uiso   1.00
C18    C     0.09168   0.20205   1.01215   0.00000  Uiso   1.00
C19    C     0.23835   0.13392   0.00612   0.00000  Uiso   1.00
C20    C     0.12698   0.23667   0.95939   0.00000  Uiso   1.00
C21    C     0.19882   0.20534   0.95781   0.00000  Uiso   1.00
C22    C     0.12821   0.73875   0.05988   0.00000  Uiso   1.00
C23    C     0.09711   0.69826   0.04354   0.00000  Uiso   1.00
C24    C     0.20039   0.70630   0.02388   0.00000  Uiso   1.00
C25    C     0.13304   0.62739   0.98202   0.00000  Uiso   1.00
C26    C     0.23628   0.63545   0.96182   0.00000  Uiso   1.00
C27    C     0.20518   0.59495   0.94427   0.00000  Uiso   1.00
C28    C     0.94122   0.90997   0.97016   0.00000  Uiso   1.00
C29    C     0.91218   0.14737   0.04083   0.00000  Uiso   1.00
C30    C     0.14984   0.93790  -0.02878   0.00000  Uiso   1.00
C31    C     0.37630   0.26196   0.99700   0.00000  Uiso   1.00
C32    C     0.47865   0.27792   0.94002   0.00000  Uiso   1.00
C33    C     0.36192   0.37711   0.99213   0.00000  Uiso   1.00
C34    C     0.29032   0.40565   1.00458   0.00000  Uiso   1.00
C35    C     0.24321   0.48010   0.04575   0.00000  Uiso   1.00
C36    C     0.27783   0.24415   1.04753   0.00000  Uiso   1.00
C37    C     0.30404   0.29148   1.00553   0.00000  Uiso   1.00
C38    C     0.26086   0.36313   1.00382   0.00000  Uiso   1.00
C39    C     0.40463   0.30494  -0.01595   0.00000  Uiso   1.00
C40    C     0.31541   0.09325  -0.00766   0.00000  Uiso   1.00
C41    C     0.59059   0.31671   1.01183   0.00000  Uiso   1.00
C42    C     0.09343   0.59003   0.94853   0.00000  Uiso   1.00
C43    C     0.01454   0.24200   1.02398   0.00000  Uiso   1.00
C44    C     0.74365   0.01616   0.96176   0.00000  Uiso   1.00
C45    C     0.23993   0.74377   0.05736   0.00000  Uiso   1.00
C46    C     0.39495   0.42084   0.01262   0.00000  Uiso   1.00
C47    C     0.42044   0.18507   0.97828   0.00000  Uiso   1.00
C48    C     0.18387   0.39652   1.00218   0.00000  Uiso   1.00
H1     H     0.02815   0.12721   0.74394   0.00000  Uiso   1.00
H2     H     0.84131   0.02884   0.24989   0.00000  Uiso   1.00
H3     H     0.13271   0.83572   0.75615   0.00000  Uiso   1.00
H4     H     0.93239   0.89676   0.22994   0.00000  Uiso   1.00
H5     H     0.89177   0.93582   0.83339   0.00000  Uiso   1.00
H6     H     0.97489   0.86141   0.82591   0.00000  Uiso   1.00
H7     H     0.93855   0.17060   0.18834   0.00000  Uiso   1.00
H8     H     0.89845   0.16979   0.78096   0.00000  Uiso   1.00
H9     H     0.86384   0.16244   0.17303   0.00000  Uiso   1.00
H10    H     0.17320   0.90774   0.20410   0.00000  Uiso   1.00
H11    H     0.17154   0.90199   0.74054   0.00000  Uiso   1.00
H12    H     0.16582   0.97610  -0.03197   0.00000  Uiso   1.00
H13    H     0.20236   0.49612   0.24214   0.00000  Uiso   1.00
H14    H     0.30726   0.20424   0.23577   0.00000  Uiso   1.00
H15    H     0.49174   0.30367   0.74516   0.00000  Uiso   1.00
H16    H     0.33288   0.03869  -0.06205   0.00000  Uiso   1.00
H17    H     0.33594   0.11015   0.78673   0.00000  Uiso   1.00
H18    H     0.33932   0.09757   0.24151   0.00000  Uiso   1.00
H19    H     0.54900   0.33891   0.20673   0.00000  Uiso   1.00
H20    H     0.62634   0.33508   1.08296   0.00000  Uiso   1.00
H21    H     0.56719   0.33804   0.75824   0.00000  Uiso   1.00
H22    H     0.08966   0.57037   0.19977   0.00000  Uiso   1.00
H23    H     0.04088   0.62472   0.86006   0.00000  Uiso   1.00
H24    H     0.11731   0.54581   0.75898   0.00000  Uiso   1.00
H25    H     0.99413   0.22133   0.20985   0.00000  Uiso   1.00
H26    H     0.99634   0.29586   0.10448   0.00000  Uiso   1.00
H27    H     0.99134   0.24133   0.76617   0.00000  Uiso   1.00
H28    H     0.70819   0.99832   0.87403   0.00000  Uiso   1.00
H29    H     0.78655   0.99469   0.77489   0.00000  Uiso   1.00
H30    H     0.76511   0.99370   0.21610   0.00000  Uiso   1.00
H31    H     0.29194   0.70964   0.15453   0.00000  Uiso   1.00
H32    H     0.24516   0.76187   0.80404   0.00000  Uiso   1.00
H33    H     0.21503   0.78908   0.23969   0.00000  Uiso   1.00
H34    H     0.43905   0.39956   0.19244   0.00000  Uiso   1.00
H35    H     0.35869   0.47363   0.10078   0.00000  Uiso   1.00
H36    H     0.41411   0.42315   0.75379   0.00000  Uiso   1.00
H37    H     0.16171   0.42566   0.25235   0.00000  Uiso   1.00
H38    H     0.16195   0.43348   0.79430   0.00000  Uiso   1.00
H39    H     0.42386   0.16382   0.23629   0.00000  Uiso   1.00
H40    H     0.39877   0.16185   0.79246   0.00000  Uiso   1.00
H41    H     0.16745   0.35883   0.95503   0.00000  Uiso   1.00
H42    H     0.47291   0.16867   0.90054   0.00000  Uiso   1.00
H43    H     0.23204   0.04452   0.10146   0.00000  Uiso   1.00
H44    H     0.60972   0.10034   0.07453   0.00000  Uiso   1.00
H45    H     0.29187   0.60887   0.92930   0.00000  Uiso   1.00
H46    H     0.09797   0.29156   0.91865   0.00000  Uiso   1.00
H47    H     0.72495   0.23253   0.91018   0.00000  Uiso   1.00
H48    H     0.04151   0.72489   0.07512   0.00000  Uiso   1.00
N1     N     0.80962   0.10583   0.89261   0.00000  Uiso   1.00
N2     N     0.08362   0.80941   0.11857   0.00000  Uiso   1.00
N3     N     0.10583   0.08691   0.12021   0.00000  Uiso   1.00
N4     N     0.22406   0.24915   0.89407   0.00000  Uiso   1.00
N5     N     0.52538   0.22666   0.10244   0.00000  Uiso   1.00
N6     N     0.24985   0.52442   0.88029   0.00000  Uiso   1.00
loop_
_geom_bond_atom_site_label_1
_geom_bond_atom_site_label_2
_geom_bond_distance
_geom_bond_site_symmetry_2
_ccdc_geom_bond_type
C1     C7      1.478   .     S
C1     C2      1.415   1_456 S
C1     C6      1.410   1_546 D
C2     C3      1.409   .     D
C2     C29     1.506   .     S
C2     C1      1.415   1_654 S
C3     C8      1.474   .     S
C3     C4      1.414   1_544 S
C4     C28     1.506   .     S
C4     C3      1.414   1_566 S
C4     C5      1.408   1_655 D
C5     C9      1.470   .     S
C5     C4      1.408   1_455 D
C5     C6      1.416   1_556 S
C6     C30     1.505   .     S
C6     C1      1.410   1_564 D
C6     C5      1.416   1_554 S
C7     H1      1.102   .     S
C7     N3      1.284   1_556 D
C8     H2      1.101   .     S
C8     N1      1.286   1_554 D
C9     H3      1.100   .     S
C9     N2      1.286   1_556 D
C10    C11     1.405   .     D
C10    C12     1.419   .     S
C10    N1      1.403   .     S
C11    C13     1.393   .     S
C11    H47     1.092   .     S
C12    C44     1.505   .     S
C12    C14     1.392   1_556 D
C13    C41     1.505   .     S
C13    C15     1.419   1_556 D
C14    H44     1.092   .     S
C14    C15     1.404   .     S
C14    C12     1.392   1_554 D
C15    N5      1.403   .     S
C15    C13     1.419   1_554 D
C16    C17     1.404   .     S
C16    N3      1.403   .     S
C16    C18     1.417   1_554 D
C17    C19     1.392   .     D
C17    H43     1.092   .     S
C18    C43     1.506   .     S
C18    C20     1.393   .     S
C18    C16     1.417   1_556 D
C19    C40     1.505   .     S
C19    C21     1.419   1_554 S
C20    C21     1.405   .     D
C20    H46     1.092   .     S
C21    N4      1.402   .     S
C21    C19     1.419   1_556 S
C22    N2      1.403   .     S
C22    C23     1.404   .     D
C22    C24     1.418   .     S
C23    H48     1.092   .     S
C23    C25     1.393   1_554 S
C24    C45     1.506   .     S
C24    C26     1.393   1_554 D
C25    C42     1.506   .     S
C25    C27     1.418   .     D
C25    C23     1.393   1_556 S
C26    C27     1.404   .     S
C26    H45     1.092   .     S
C26    C24     1.393   1_556 D
C27    N6      1.404   .     S
C28    H5      1.096   .     S
C28    H6      1.095   .     S
C28    H4      1.100   1_556 S
C29    H9      1.094   .     S
C29    H7      1.097   .     S
C29    H8      1.100   1_554 S
C30    H12     1.091   .     S
C30    H10     1.099   .     S
C30    H11     1.100   1_554 S
C31    C37     1.418   .     S
C31    C47     1.506   .     S
C31    C39     1.409   1_556 D
C32    H15     1.100   .     S
C32    C39     1.473   1_556 S
C32    N5      1.286   1_556 D
C33    C34     1.408   .     D
C33    C39     1.417   1_556 S
C33    C46     1.505   1_556 S
C34    C38     1.417   .     S
C34    C35     1.472   1_556 S
C35    H13     1.101   .     S
C35    C34     1.472   1_554 S
C35    N6      1.285   1_554 D
C36    C37     1.477   .     S
C36    N4      1.285   .     D
C36    H14     1.101   1_556 S
C37    C38     1.410   .     D
C38    C48     1.506   .     S
C39    C31     1.409   1_554 D
C39    C32     1.473   1_554 S
C39    C33     1.417   1_554 S
C40    H16     1.098   .     S
C40    H18     1.099   .     S
C40    H17     1.098   1_554 S
C41    H20     1.098   .     S
C41    H21     1.099   .     S
C41    H19     1.098   1_556 S
C42    H23     1.098   .     S
C42    H24     1.098   .     S
C42    H22     1.099   1_556 S
C43    H25     1.097   1_456 S
C43    H26     1.098   1_456 S
C43    H27     1.100   1_455 S
C44    H28     1.098   1_545 S
C44    H29     1.098   1_545 S
C44    H30     1.099   1_546 S
C45    H33     1.098   .     S
C45    H31     1.098   .     S
C45    H32     1.100   1_554 S
C46    H34     1.098   .     S
C46    H35     1.093   .     S
C46    C33     1.505   1_554 S
C46    H36     1.100   1_554 S
C47    H40     1.098   .     S
C47    H42     1.092   .     S
C47    H39     1.101   1_556 S
C48    H41     1.091   .     S
C48    H38     1.098   .     S
C48    H37     1.100   1_556 S
H4     C28     1.100   1_554 S
H8     C29     1.100   1_556 S
H11    C30     1.100   1_556 S
H14    C36     1.101   1_554 S
H17    C40     1.098   1_556 S
H19    C41     1.098   1_554 S
H22    C42     1.099   1_554 S
H25    C43     1.097   1_654 S
H26    C43     1.098   1_654 S
H27    C43     1.100   1_655 S
H28    C44     1.098   1_565 S
H29    C44     1.098   1_565 S
H30    C44     1.099   1_564 S
H32    C45     1.100   1_556 S
H36    C46     1.100   1_556 S
H37    C48     1.100   1_554 S
H39    C47     1.101   1_554 S
N1     C8      1.286   1_556 D
N2     C9      1.286   1_554 D
N3     C7      1.284   1_554 D
N5     C32     1.286   1_554 D
N6     C35     1.285   1_556 D
