data_1077
_audit_creation_date              2023-09-08
_audit_creation_method            'Materials Studio'
_symmetry_space_group_name_H-M    'P1'
_symmetry_Int_Tables_number       1
_symmetry_cell_setting            triclinic
loop_
_symmetry_equiv_pos_as_xyz
  x,y,z
_cell_length_a                    30.1778
_cell_length_b                    30.0766
_cell_length_c                    3.7787
_cell_angle_alpha                 88.8253
_cell_angle_beta                  91.2540
_cell_angle_gamma                 60.1205
loop_
_atom_site_label
_atom_site_type_symbol
_atom_site_fract_x
_atom_site_fract_y
_atom_site_fract_z
_atom_site_U_iso_or_equiv
_atom_site_adp_type
_atom_site_occupancy
C1     C     0.02310   0.03088   0.97850   0.00000  Uiso   1.00
C2     C     0.96938   0.05391   0.96556   0.00000  Uiso   1.00
C3     C     0.94575   0.02355   0.99516   0.00000  Uiso   1.00
C4     C     0.97640   0.96971   0.01654   0.00000  Uiso   1.00
C5     C     0.03029   0.94603   0.01025   0.00000  Uiso   1.00
C6     C     0.05348   0.97672   0.00537   0.00000  Uiso   1.00
C7     C     0.10935   0.95475   0.05984   0.00000  Uiso   1.00
C8     C     0.93555   0.10978   0.91187   0.00000  Uiso   1.00
C9     C     0.95448   0.93602   0.07103   0.00000  Uiso   1.00
C10    C     0.91021   0.19614   0.02120   0.00000  Uiso   1.00
C11    C     0.93361   0.22699   0.02018   0.00000  Uiso   1.00
C12    C     0.85600   0.22065   0.01024   0.00000  Uiso   1.00
C13    C     0.90350   0.28019   0.00192   0.00000  Uiso   1.00
C14    C     0.82768   0.27405   0.99721   0.00000  Uiso   1.00
C15    C     0.84981   0.30546   0.99285   0.00000  Uiso   1.00
C16    C     0.19631   0.89418   0.97644   0.00000  Uiso   1.00
C17    C     0.22712   0.83988   0.99462   0.00000  Uiso   1.00
C18    C     0.22072   0.92410   0.98540   0.00000  Uiso   1.00
C19    C     0.28006   0.81707   0.02250   0.00000  Uiso   1.00
C20    C     0.27399   0.89925   0.00811   0.00000  Uiso   1.00
C21    C     0.30529   0.84570   0.02705   0.00000  Uiso   1.00
C22    C     0.89345   0.91023   0.96270   0.00000  Uiso   1.00
C23    C     0.83952   0.93366   0.97678   0.00000  Uiso   1.00
C24    C     0.92313   0.85585   0.96830   0.00000  Uiso   1.00
C25    C     0.81670   0.90339   0.99851   0.00000  Uiso   1.00
C26    C     0.89826   0.82736   0.98611   0.00000  Uiso   1.00
C27    C     0.84502   0.84953   0.00212   0.00000  Uiso   1.00
C28    C     0.81805   0.36198   0.99845   0.00000  Uiso   1.00
C29    C     0.84006   0.39340   0.02133   0.00000  Uiso   1.00
C30    C     0.76439   0.38687   0.00090   0.00000  Uiso   1.00
C31    C     0.81148   0.44663   0.04233   0.00000  Uiso   1.00
C32    C     0.73418   0.43966   0.02839   0.00000  Uiso   1.00
C33    C     0.75744   0.47052   0.04336   0.00000  Uiso   1.00
C34    C     0.36169   0.82097   0.03287   0.00000  Uiso   1.00
C35    C     0.38712   0.84941   0.03530   0.00000  Uiso   1.00
C36    C     0.44588   0.74256   0.00659   0.00000  Uiso   1.00
C37    C     0.43984   0.82658   0.01090   0.00000  Uiso   1.00
C38    C     0.47043   0.77241   0.99280   0.00000  Uiso   1.00
C39    C     0.82036   0.81762   0.01542   0.00000  Uiso   1.00
C40    C     0.76721   0.83958   0.03633   0.00000  Uiso   1.00
C41    C     0.84877   0.76378   0.01328   0.00000  Uiso   1.00
C42    C     0.74246   0.81090   0.04764   0.00000  Uiso   1.00
C43    C     0.82611   0.73334   0.03301   0.00000  Uiso   1.00
C44    C     0.77222   0.75665   0.04473   0.00000  Uiso   1.00
C45    C     0.64397   0.63539   0.95805   0.00000  Uiso   1.00
C46    C     0.61347   0.68941   0.97284   0.00000  Uiso   1.00
C47    C     0.63619   0.72060   0.94138   0.00000  Uiso   1.00
C48    C     0.55886   0.70991   0.04332   0.00000  Uiso   1.00
C49    C     0.68992   0.69720   0.92491   0.00000  Uiso   1.00
C50    C     0.71284   0.73056   0.89333   0.00000  Uiso   1.00
C51    C     0.72092   0.64325   0.92660   0.00000  Uiso   1.00
C52    C     0.69752   0.61258   0.93591   0.00000  Uiso   1.00
C53    C     0.73020   0.55674   0.90237   0.00000  Uiso   1.00
C54    C     0.88882   0.04942   0.03192   0.00000  Uiso   1.00
C55    C     0.04872   0.06259   0.94067   0.00000  Uiso   1.00
C56    C     0.06186   0.88844   1.00885   0.00000  Uiso   1.00
C57    C     0.60398   0.77808   0.95121   0.00000  Uiso   1.00
C58    C     0.77817   0.61839   0.92179   0.00000  Uiso   1.00
C59    C     0.61829   0.60350   0.93552   0.00000  Uiso   1.00
C60    C     0.67705   0.46404   0.03311   0.00000  Uiso   1.00
C61    C     0.99084   0.20227   0.03768   0.00000  Uiso   1.00
C62    C     0.80729   0.99106   0.97699   0.00000  Uiso   1.00
C63    C     0.85863   0.67599   0.03051   0.00000  Uiso   1.00
C64    C     0.20284   0.80681   0.98931   0.00000  Uiso   1.00
C65    C     0.46430   0.85952   0.00161   0.00000  Uiso   1.00
C66    C     0.83999   0.47565   0.08145   0.00000  Uiso   1.00
C67    C     0.82683   0.19222   0.03713   0.00000  Uiso   1.00
C68    C     0.19222   0.98182   0.95194   0.00000  Uiso   1.00
C69    C     0.47360   0.68499   0.98901   0.00000  Uiso   1.00
C70    C     0.68515   0.83935   0.07509   0.00000  Uiso   1.00
C71    C     0.98036   0.82691   0.93753   0.00000  Uiso   1.00
C72    C     0.39273   0.76753   0.02190   0.00000  Uiso   1.00
H1     H     0.11982   0.97576   0.24838   0.00000  Uiso   1.00
H2     H     0.90325   0.12132   0.72083   0.00000  Uiso   1.00
H3     H     0.97550   0.90419   0.26694   0.00000  Uiso   1.00
H4     H     0.92322   0.30225   0.00250   0.00000  Uiso   1.00
H5     H     0.78622   0.29144   0.99836   0.00000  Uiso   1.00
H6     H     0.30200   0.77528   0.03413   0.00000  Uiso   1.00
H7     H     0.29138   0.92349   0.00377   0.00000  Uiso   1.00
H8     H     0.77514   0.92315   0.00921   0.00000  Uiso   1.00
H9     H     0.92221   0.78577   0.98297   0.00000  Uiso   1.00
H10    H     0.88156   0.37611   0.02963   0.00000  Uiso   1.00
H11    H     0.74484   0.36471   0.98685   0.00000  Uiso   1.00
H12    H     0.37520   0.74343   0.01947   0.00000  Uiso   1.00
H13    H     0.36541   0.89108   0.04867   0.00000  Uiso   1.00
H14    H     0.74322   0.88113   0.04628   0.00000  Uiso   1.00
H15    H     0.89028   0.74416   0.99918   0.00000  Uiso   1.00
H16    H     0.55168   0.68439   0.21525   0.00000  Uiso   1.00
H17    H     0.69517   0.76147   0.68762   0.00000  Uiso   1.00
H18    H     0.75908   0.54468   0.69846   0.00000  Uiso   1.00
H19    H     0.87483   0.08540   0.17012   0.00000  Uiso   1.00
H20    H     0.86817   0.05851   0.77332   0.00000  Uiso   1.00
H21    H     0.87826   0.02458   0.17892   0.00000  Uiso   1.00
H22    H     0.05822   0.07239   0.19969   0.00000  Uiso   1.00
H23    H     0.08432   0.04189   0.79905   0.00000  Uiso   1.00
H24    H     0.02360   0.09900   0.79777   0.00000  Uiso   1.00
H25    H     0.07238   0.87124   0.27922   0.00000  Uiso   1.00
H26    H     0.04092   0.87216   0.87548   0.00000  Uiso   1.00
H27    H     0.09738   0.87685   0.87343   0.00000  Uiso   1.00
H28    H     0.79445   0.61227   0.19357   0.00000  Uiso   1.00
H29    H     0.79572   0.58078   0.80208   0.00000  Uiso   1.00
H30    H     0.78998   0.64275   0.78215   0.00000  Uiso   1.00
H31    H     0.60966   0.59385   0.19798   0.00000  Uiso   1.00
H32    H     0.58210   0.62408   0.78035   0.00000  Uiso   1.00
H33    H     0.64292   0.56708   0.81255   0.00000  Uiso   1.00
H34    H     0.59323   0.78984   0.22462   0.00000  Uiso   1.00
H35    H     0.62428   0.79740   0.85689   0.00000  Uiso   1.00
H36    H     0.56816   0.79196   0.79738   0.00000  Uiso   1.00
H37    H     0.66101   0.49596   0.21452   0.00000  Uiso   1.00
H38    H     0.65928   0.48026   0.76995   0.00000  Uiso   1.00
H39    H     0.66579   0.43581   0.11153   0.00000  Uiso   1.00
H40    H     0.00769   0.16854   0.22016   0.00000  Uiso   1.00
H41    H     0.00712   0.18845   0.77814   0.00000  Uiso   1.00
H42    H     0.00271   0.22956   0.12309   0.00000  Uiso   1.00
H43    H     0.80758   0.00545   0.24194   0.00000  Uiso   1.00
H44    H     0.82239   0.00913   0.79829   0.00000  Uiso   1.00
H45    H     0.76738   0.00371   0.89893   0.00000  Uiso   1.00
H46    H     0.84381   0.65753   0.20828   0.00000  Uiso   1.00
H47    H     0.85856   0.66169   0.76498   0.00000  Uiso   1.00
H48    H     0.89846   0.66359   0.10938   0.00000  Uiso   1.00
H49    H     0.18547   0.80726   0.24294   0.00000  Uiso   1.00
H50    H     0.17186   0.82089   0.78599   0.00000  Uiso   1.00
H51    H     0.23121   0.76686   0.93825   0.00000  Uiso   1.00
H52    H     0.49669   0.84557   0.19337   0.00000  Uiso   1.00
H53    H     0.47960   0.85932   0.73988   0.00000  Uiso   1.00
H54    H     0.43636   0.89936   0.05917   0.00000  Uiso   1.00
H55    H     0.87793   0.45060   0.20725   0.00000  Uiso   1.00
H56    H     0.84608   0.48930   0.82480   0.00000  Uiso   1.00
H57    H     0.81961   0.50955   0.24259   0.00000  Uiso   1.00
H58    H     0.78823   0.21787   0.12893   0.00000  Uiso   1.00
H59    H     0.82251   0.17741   0.78297   0.00000  Uiso   1.00
H60    H     0.84579   0.15916   0.22462   0.00000  Uiso   1.00
H61    H     0.17696   0.99993   0.20422   0.00000  Uiso   1.00
H62    H     0.21786   0.99546   0.86182   0.00000  Uiso   1.00
H63    H     0.15958   0.99631   0.76185   0.00000  Uiso   1.00
H64    H     0.49359   0.66571   0.24062   0.00000  Uiso   1.00
H65    H     0.44625   0.67195   0.92806   0.00000  Uiso   1.00
H66    H     0.50251   0.67101   0.78563   0.00000  Uiso   1.00
H67    H     0.67238   0.87678   0.19181   0.00000  Uiso   1.00
H68    H     0.66537   0.84683   0.81418   0.00000  Uiso   1.00
H69    H     0.67168   0.81810   0.23770   0.00000  Uiso   1.00
H70    H     0.00089   0.82235   0.19160   0.00000  Uiso   1.00
H71    H     0.99289   0.78827   0.84329   0.00000  Uiso   1.00
H72    H     0.99307   0.84638   0.75105   0.00000  Uiso   1.00
N1     N     0.14374   0.91396   0.91829   0.00000  Uiso   1.00
N2     N     0.94310   0.14318   0.06724   0.00000  Uiso   1.00
N3     N     0.91316   0.94324   0.91288   0.00000  Uiso   1.00
N4     N     0.52209   0.75384   0.92952   0.00000  Uiso   1.00
N5     N     0.75192   0.72377   0.08037   0.00000  Uiso   1.00
N6     N     0.72503   0.52322   0.08535   0.00000  Uiso   1.00
loop_
_geom_bond_atom_site_label_1
_geom_bond_atom_site_label_2
_geom_bond_distance
_geom_bond_site_symmetry_2
_ccdc_geom_bond_type
C1     C55     1.504   .     S
C1     C2      1.409   1_455 S
C1     C6      1.416   1_546 D
C2     C3      1.415   .     D
C2     C8      1.475   .     S
C2     C1      1.409   1_655 S
C3     C4      1.408   1_546 S
C3     C54     1.503   1_556 S
C4     C9      1.474   .     S
C4     C3      1.408   1_564 S
C4     C5      1.415   1_655 D
C5     C6      1.409   .     S
C5     C4      1.415   1_455 D
C5     C56     1.505   1_554 S
C6     C7      1.480   .     S
C6     C1      1.416   1_564 D
C7     H1      1.102   .     S
C7     N1      1.285   1_554 D
C8     H2      1.102   .     S
C8     N2      1.285   1_556 D
C9     H3      1.101   .     S
C9     N3      1.285   1_554 D
C10    N2      1.399   .     S
C10    C11     1.419   .     D
C10    C12     1.420   .     S
C11    C13     1.391   .     S
C11    C61     1.501   .     S
C12    C67     1.506   .     S
C12    C14     1.393   1_554 D
C13    H4      1.090   .     S
C13    C15     1.405   1_554 D
C14    H5      1.090   .     S
C14    C15     1.403   .     S
C14    C12     1.393   1_556 D
C15    C28     1.479   .     S
C15    C13     1.405   1_556 D
C16    C18     1.419   .     D
C16    C17     1.420   .     S
C16    N1      1.399   .     S
C17    C64     1.501   .     S
C17    C19     1.390   1_556 D
C18    C68     1.506   .     S
C18    C20     1.394   1_556 S
C19    C21     1.405   .     S
C19    H6      1.090   .     S
C19    C17     1.390   1_554 D
C20    H7      1.090   .     S
C20    C21     1.403   .     D
C20    C18     1.394   1_554 S
C21    C34     1.479   .     S
C22    C23     1.418   .     S
C22    C24     1.420   .     D
C22    N3      1.400   .     S
C23    C25     1.391   .     D
C23    C62     1.501   .     S
C24    C26     1.394   .     S
C24    C71     1.506   .     S
C25    C27     1.405   1_556 S
C25    H8      1.090   1_556 S
C26    H9      1.090   .     S
C26    C27     1.403   1_556 D
C27    C39     1.479   .     S
C27    C25     1.405   1_554 S
C27    C26     1.403   1_554 D
C28    C29     1.403   1_556 D
C28    C30     1.406   1_556 S
C29    H10     1.090   .     S
C29    C31     1.395   .     S
C29    C28     1.403   1_554 D
C30    C32     1.390   .     D
C30    C28     1.406   1_554 S
C30    H11     1.089   1_554 S
C31    C33     1.417   .     D
C31    C66     1.507   .     S
C32    C33     1.417   .     S
C32    C60     1.501   .     S
C33    N6      1.402   .     S
C34    C35     1.405   .     D
C34    C72     1.402   .     S
C35    C37     1.390   .     S
C35    H13     1.090   .     S
C36    C72     1.395   .     D
C36    C38     1.421   1_554 S
C36    C69     1.505   1_554 S
C37    C65     1.502   .     S
C37    C38     1.421   1_554 D
C38    N4      1.398   .     S
C38    C36     1.421   1_556 S
C38    C37     1.421   1_556 D
C39    C40     1.403   .     S
C39    C41     1.405   .     D
C40    H14     1.090   .     S
C40    C42     1.395   .     D
C41    C43     1.391   .     S
C41    H15     1.090   1_554 S
C42    C44     1.418   .     S
C42    C70     1.507   .     S
C43    C44     1.417   .     D
C43    C63     1.501   .     S
C44    N5      1.405   .     S
C45    C46     1.416   .     S
C45    C52     1.412   .     D
C45    C59     1.506   .     S
C46    C47     1.416   .     D
C46    C48     1.477   1_556 S
C47    C57     1.505   .     S
C47    C49     1.413   .     S
C48    H16     1.100   .     S
C48    C46     1.477   1_554 S
C48    N4      1.287   1_554 D
C49    C50     1.480   .     S
C49    C51     1.412   .     D
C50    H17     1.101   .     S
C50    N5      1.284   1_556 D
C51    C52     1.414   .     S
C51    C58     1.503   .     S
C52    C53     1.474   .     S
C53    H18     1.100   .     S
C53    N6      1.285   1_556 D
C54    H21     1.094   .     S
C54    H19     1.095   .     S
C54    C3      1.503   1_554 S
C54    H20     1.100   1_554 S
C55    H24     1.094   .     S
C55    H23     1.096   .     S
C55    H22     1.100   1_556 S
C56    H26     1.094   .     S
C56    H27     1.092   .     S
C56    C5      1.505   1_556 S
C56    H25     1.101   1_556 S
C57    H36     1.093   .     S
C57    H35     1.093   .     S
C57    H34     1.101   1_556 S
C58    H30     1.093   .     S
C58    H29     1.095   .     S
C58    H28     1.100   1_556 S
C59    H33     1.092   .     S
C59    H32     1.097   .     S
C59    H31     1.100   1_556 S
C60    H39     1.098   .     S
C60    H37     1.097   .     S
C60    H38     1.100   1_554 S
C61    H40     1.098   1_655 S
C61    H41     1.100   1_654 S
C61    H42     1.098   1_655 S
C62    H43     1.100   1_566 S
C62    H44     1.097   1_565 S
C62    H45     1.098   1_565 S
C63    H48     1.098   .     S
C63    H46     1.098   .     S
C63    H47     1.100   1_554 S
C64    H51     1.098   .     S
C64    H50     1.097   .     S
C64    H49     1.100   1_556 S
C65    H52     1.097   .     S
C65    H54     1.098   .     S
C65    H53     1.099   1_554 S
C66    H57     1.098   .     S
C66    H55     1.098   .     S
C66    H56     1.100   1_554 S
C67    H60     1.098   .     S
C67    H58     1.098   .     S
C67    H59     1.099   1_554 S
C68    H63     1.098   .     S
C68    H62     1.098   .     S
C68    H61     1.099   1_556 S
C69    H65     1.098   .     S
C69    H66     1.098   .     S
C69    C36     1.505   1_556 S
C69    H64     1.099   1_556 S
C70    H67     1.098   .     S
C70    H69     1.098   .     S
C70    H68     1.100   1_554 S
C71    H72     1.098   .     S
C71    H71     1.098   .     S
C71    H70     1.099   1_656 S
C72    H12     1.090   .     S
H8     C25     1.090   1_554 S
H11    C30     1.089   1_556 S
H15    C41     1.090   1_556 S
H20    C54     1.100   1_556 S
H22    C55     1.100   1_554 S
H25    C56     1.101   1_554 S
H28    C58     1.100   1_554 S
H31    C59     1.100   1_554 S
H34    C57     1.101   1_554 S
H38    C60     1.100   1_556 S
H40    C61     1.098   1_455 S
H41    C61     1.100   1_456 S
H42    C61     1.098   1_455 S
H43    C62     1.100   1_544 S
H44    C62     1.097   1_545 S
H45    C62     1.098   1_545 S
H47    C63     1.100   1_556 S
H49    C64     1.100   1_554 S
H53    C65     1.099   1_556 S
H56    C66     1.100   1_556 S
H59    C67     1.099   1_556 S
H61    C68     1.099   1_554 S
H64    C69     1.099   1_554 S
H68    C70     1.100   1_556 S
H70    C71     1.099   1_454 S
N1     C7      1.285   1_556 D
N2     C8      1.285   1_554 D
N3     C9      1.285   1_556 D
N4     C48     1.287   1_556 D
N5     C50     1.284   1_554 D
N6     C53     1.285   1_554 D
