data_1078
_audit_creation_date              2023-09-08
_audit_creation_method            'Materials Studio'
_symmetry_space_group_name_H-M    'P1'
_symmetry_Int_Tables_number       1
_symmetry_cell_setting            triclinic
loop_
_symmetry_equiv_pos_as_xyz
  x,y,z
_cell_length_a                    30.2043
_cell_length_b                    30.1749
_cell_length_c                    7.1974
_cell_angle_alpha                 92.7293
_cell_angle_beta                  91.5297
_cell_angle_gamma                 59.9967
loop_
_atom_site_label
_atom_site_type_symbol
_atom_site_fract_x
_atom_site_fract_y
_atom_site_fract_z
_atom_site_U_iso_or_equiv
_atom_site_adp_type
_atom_site_occupancy
C1     C     0.02424   0.03014   0.98954   0.00000  Uiso   1.00
C2     C     0.97057   0.05390   0.98074   0.00000  Uiso   1.00
C3     C     0.94570   0.02459   0.98329   0.00000  Uiso   1.00
C4     C     0.97548   0.97088   0.99201   0.00000  Uiso   1.00
C5     C     0.02951   0.94639   0.00393   0.00000  Uiso   1.00
C6     C     0.05358   0.97610   1.00255   0.00000  Uiso   1.00
C7     C     0.10895   0.95439   1.02280   0.00000  Uiso   1.00
C8     C     0.93752   0.10926   0.95639   0.00000  Uiso   1.00
C9     C     0.95354   0.93693   0.97036   0.00000  Uiso   1.00
C10    C     0.91099   0.19628   0.02119   0.00000  Uiso   1.00
C11    C     0.93382   0.22757   0.02369   0.00000  Uiso   1.00
C12    C     0.85676   0.21984   0.01499   0.00000  Uiso   1.00
C13    C     0.90294   0.28041   0.01400   0.00000  Uiso   1.00
C14    C     0.82774   0.27308   1.00718   0.00000  Uiso   1.00
C15    C     0.84933   0.30488   1.00561   0.00000  Uiso   1.00
C16    C     0.19575   0.89124   0.98412   0.00000  Uiso   1.00
C17    C     0.22712   0.83717   0.99169   0.00000  Uiso   1.00
C18    C     0.21974   0.92175   0.98512   0.00000  Uiso   1.00
C19    C     0.28005   0.81511  -0.00062   0.00000  Uiso   1.00
C20    C     0.27307   0.89727   0.98798   0.00000  Uiso   1.00
C21    C     0.30477   0.84397   0.99397   0.00000  Uiso   1.00
C22    C     0.89251   0.91143   0.01596   0.00000  Uiso   1.00
C23    C     0.83840   0.93438   0.00871   0.00000  Uiso   1.00
C24    C     0.92299   0.85705   0.01067   0.00000  Uiso   1.00
C25    C     0.81624   0.90349   0.99392   0.00000  Uiso   1.00
C26    C     0.89860   0.82808   0.99799   0.00000  Uiso   1.00
C27    C     0.84523   0.84974   0.98983   0.00000  Uiso   1.00
C28    C     0.81736   0.36128   1.00045   0.00000  Uiso   1.00
C29    C     0.83958   0.39238   0.99318   0.00000  Uiso   1.00
C30    C     0.76362   0.38661   1.00093   0.00000  Uiso   1.00
C31    C     0.81137   0.44564   0.98785   0.00000  Uiso   1.00
C32    C     0.73361   0.43958   0.99171   0.00000  Uiso   1.00
C33    C     0.75716   0.47017   0.98671   0.00000  Uiso   1.00
C34    C     0.36115   0.81944   0.99396   0.00000  Uiso   1.00
C35    C     0.38627   0.84806   0.99428   0.00000  Uiso   1.00
C36    C     0.44577   0.74123   1.00402   0.00000  Uiso   1.00
C37    C     0.43925   0.82537   1.00343   0.00000  Uiso   1.00
C38    C     0.47004   0.77124   1.00932   0.00000  Uiso   1.00
C39    C     0.82083   0.81766   0.98714   0.00000  Uiso   1.00
C40    C     0.76749   0.83965   0.99541   0.00000  Uiso   1.00
C41    C     0.84957   0.76389   0.98640   0.00000  Uiso   1.00
C42    C     0.74284   0.81115   1.00410   0.00000  Uiso   1.00
C43    C     0.82703   0.73364   0.99843   0.00000  Uiso   1.00
C44    C     0.77295   0.75687   0.00654   0.00000  Uiso   1.00
C45    C     0.64413   0.63548   0.00341   0.00000  Uiso   1.00
C46    C     0.61342   0.68930  -0.00843   0.00000  Uiso   1.00
C47    C     0.63628   0.72024  -0.00753   0.00000  Uiso   1.00
C48    C     0.55780   0.71026   0.96159   0.00000  Uiso   1.00
C49    C     0.69028   0.69681  -0.00738   0.00000  Uiso   1.00
C50    C     0.71175   0.73029   0.96216   0.00000  Uiso   1.00
C51    C     0.72135   0.64332   0.00775   0.00000  Uiso   1.00
C52    C     0.69788   0.61288   0.01612   0.00000  Uiso   1.00
C53    C     0.73130   0.55759   0.04511   0.00000  Uiso   1.00
C54    C     0.88831   0.05215   0.97724   0.00000  Uiso   1.00
C55    C     0.05166   0.05976   0.97029   0.00000  Uiso   1.00
C56    C     0.05931   0.88975   0.03182   0.00000  Uiso   1.00
C57    C     0.60451   0.77777  -0.00591   0.00000  Uiso   1.00
C58    C     0.77866   0.61868   0.00371   0.00000  Uiso   1.00
C59    C     0.61857   0.60385   0.01597   0.00000  Uiso   1.00
C60    C     0.39251   0.76604   0.99694   0.00000  Uiso   1.00
C61    C     0.84053   0.47385   0.97430   0.00000  Uiso   1.00
C62    C     0.47438   0.68383   1.01620   0.00000  Uiso   1.00
C63    C     0.80441   0.99166   0.01414   0.00000  Uiso   1.00
C64    C     0.20472   0.80235  -0.00981   0.00000  Uiso   1.00
C65    C     0.85998   0.67644   1.00176   0.00000  Uiso   1.00
C66    C     0.67635   0.46435   0.98887   0.00000  Uiso   1.00
C67    C     0.99091   0.20463   0.03406   0.00000  Uiso   1.00
C68    C     0.82876   0.19045   0.02783   0.00000  Uiso   1.00
C69    C     0.19164   0.97926   0.97507   0.00000  Uiso   1.00
C70    C     0.46370   0.85827   1.00696   0.00000  Uiso   1.00
C71    C     0.68544   0.84024   0.02224   0.00000  Uiso   1.00
C72    C     0.98038   0.82872   0.03068   0.00000  Uiso   1.00
C73    C     0.97609   0.97030   0.49533   0.00000  Uiso   1.00
C74    C     0.02984   0.94675   0.51042   0.00000  Uiso   1.00
C75    C     0.05420   0.97647   0.50404   0.00000  Uiso   1.00
C76    C     0.02409   0.02991   0.48678   0.00000  Uiso   1.00
C77    C     0.96997   0.05443   0.48350   0.00000  Uiso   1.00
C78    C     0.94638   0.02428   0.48389   0.00000  Uiso   1.00
C79    C     0.89086   0.04578   0.45643   0.00000  Uiso   1.00
C80    C     0.06278   0.89164   0.54110   0.00000  Uiso   1.00
C81    C     0.04624   0.06268   0.45875   0.00000  Uiso   1.00
C82    C     0.08819   0.80417   0.49035   0.00000  Uiso   1.00
C83    C     0.06512   0.77331   0.50223   0.00000  Uiso   1.00
C84    C     0.14241   0.78010   0.48419   0.00000  Uiso   1.00
C85    C     0.09575   0.72037   0.50903   0.00000  Uiso   1.00
C86    C     0.17114   0.72681   0.48831   0.00000  Uiso   1.00
C87    C     0.14944   0.69538   0.50107   0.00000  Uiso   1.00
C88    C     0.80369   0.10711   0.50640   0.00000  Uiso   1.00
C89    C     0.77269   0.16131   0.50533   0.00000  Uiso   1.00
C90    C     0.77975   0.07670   0.49898   0.00000  Uiso   1.00
C91    C     0.71975   0.18357   0.49401   0.00000  Uiso   1.00
C92    C     0.72648   0.10121   0.49059   0.00000  Uiso   1.00
C93    C     0.69490   0.15465   0.48859   0.00000  Uiso   1.00
C94    C     0.10764   0.08866   0.50429   0.00000  Uiso   1.00
C95    C     0.16171   0.06583   0.49686   0.00000  Uiso   1.00
C96    C     0.07693   0.14305   0.50484   0.00000  Uiso   1.00
C97    C     0.18357   0.09672   0.48504   0.00000  Uiso   1.00
C98    C     0.10111   0.17204   0.49651   0.00000  Uiso   1.00
C99    C     0.15442   0.15043   0.48652   0.00000  Uiso   1.00
C100   C     0.18156   0.63899   0.50506   0.00000  Uiso   1.00
C101   C     0.16012   0.60720   0.51356   0.00000  Uiso   1.00
C102   C     0.23525   0.61436   0.50494   0.00000  Uiso   1.00
C103   C     0.18920   0.55398   0.52136   0.00000  Uiso   1.00
C104   C     0.26611   0.56154   0.51525   0.00000  Uiso   1.00
C105   C     0.24336   0.53031   0.52224   0.00000  Uiso   1.00
C106   C     0.63847   0.17913   0.49172   0.00000  Uiso   1.00
C107   C     0.61367   0.15016   0.48975   0.00000  Uiso   1.00
C108   C     0.55374   0.25693   0.52088   0.00000  Uiso   1.00
C109   C     0.56090   0.17245   0.50606   0.00000  Uiso   1.00
C110   C     0.52989   0.22658   0.51948   0.00000  Uiso   1.00
C111   C     0.17876   0.18261   0.49006   0.00000  Uiso   1.00
C112   C     0.23206   0.16075   0.50357   0.00000  Uiso   1.00
C113   C     0.15014   0.23638   0.49024   0.00000  Uiso   1.00
C114   C     0.25670   0.18945   0.51712   0.00000  Uiso   1.00
C115   C     0.17270   0.26692   0.50688   0.00000  Uiso   1.00
C116   C     0.22672   0.24369   0.51837   0.00000  Uiso   1.00
C117   C     0.35791   0.36305   0.48206   0.00000  Uiso   1.00
C118   C     0.38729   0.30888   0.48373   0.00000  Uiso   1.00
C119   C     0.36314   0.27922   0.48730   0.00000  Uiso   1.00
C120   C     0.44327   0.28570   0.46255   0.00000  Uiso   1.00
C121   C     0.30904   0.30384   0.48385   0.00000  Uiso   1.00
C122   C     0.28633   0.27023   0.46144   0.00000  Uiso   1.00
C123   C     0.27931   0.35775   0.48202   0.00000  Uiso   1.00
C124   C     0.30407   0.38718   0.48035   0.00000  Uiso   1.00
C125   C     0.27081   0.44299   0.45932   0.00000  Uiso   1.00
C126   C     0.11152   0.95099   0.50286   0.00000  Uiso   1.00
C127   C     0.94844   0.94064   0.50421   0.00000  Uiso   1.00
C128   C     0.93981   0.11185   0.47944   0.00000  Uiso   1.00
C129   C     0.39393   0.22170   0.49256   0.00000  Uiso   1.00
C130   C     0.22181   0.38505   0.48247   0.00000  Uiso   1.00
C131   C     0.38517   0.39335   0.48232   0.00000  Uiso   1.00
C132   C     0.60691   0.23255   0.50744   0.00000  Uiso   1.00
C133   C     0.16115   0.52478   0.53886   0.00000  Uiso   1.00
C134   C     0.52475   0.31442   0.54817   0.00000  Uiso   1.00
C135   C     0.19580   0.00870   0.50199   0.00000  Uiso   1.00
C136   C     0.79630   0.19501   0.51725   0.00000  Uiso   1.00
C137   C     0.13978   0.32425   0.51251   0.00000  Uiso   1.00
C138   C     0.32329   0.53793   0.51659   0.00000  Uiso   1.00
C139   C     0.00794   0.79729   0.50930   0.00000  Uiso   1.00
C140   C     0.17077   0.80890   0.46509   0.00000  Uiso   1.00
C141   C     0.80869   0.01935   0.51431   0.00000  Uiso   1.00
C142   C     0.53709   0.13906   0.50793   0.00000  Uiso   1.00
C143   C     0.31397   0.16097   0.54130   0.00000  Uiso   1.00
C144   C     0.01965   0.17142   0.52814   0.00000  Uiso   1.00
H1     H     0.11980   0.98000   1.09752   0.00000  Uiso   1.00
H2     H     0.90635   0.11956   0.85496   0.00000  Uiso   1.00
H3     H     0.97566   0.90329   0.87705   0.00000  Uiso   1.00
H4     H     0.92211   0.30290   1.01636   0.00000  Uiso   1.00
H5     H     0.78629   0.28996   1.00500   0.00000  Uiso   1.00
H6     H     0.30237   0.77360   0.00782   0.00000  Uiso   1.00
H7     H     0.29006   0.92168   0.98384   0.00000  Uiso   1.00
H8     H     0.77462   0.92276   0.98873   0.00000  Uiso   1.00
H9     H     0.92304   0.78660   0.99912   0.00000  Uiso   1.00
H10    H     0.88105   0.37486   0.98939   0.00000  Uiso   1.00
H11    H     0.74386   0.36479   1.00607   0.00000  Uiso   1.00
H12    H     0.36426   0.88971  -0.00893   0.00000  Uiso   1.00
H13    H     0.74325   0.88119   0.99921   0.00000  Uiso   1.00
H14    H     0.89117   0.74432   0.98066   0.00000  Uiso   1.00
H15    H     0.54852   0.68746   0.86052   0.00000  Uiso   1.00
H16    H     0.68947   0.76123   0.86585   0.00000  Uiso   1.00
H17    H     0.76234   0.54794   0.14720   0.00000  Uiso   1.00
H18    H     0.37524   0.74181   0.99647   0.00000  Uiso   1.00
H19    H     0.88099   0.02311   0.35752   0.00000  Uiso   1.00
H20    H     0.09484   0.88232   0.63763   0.00000  Uiso   1.00
H21    H     0.02378   0.09445   0.36645   0.00000  Uiso   1.00
H22    H     0.07644   0.69825   0.51944   0.00000  Uiso   1.00
H23    H     0.21251   0.70961   0.47916   0.00000  Uiso   1.00
H24    H     0.69749   0.22525   0.49372   0.00000  Uiso   1.00
H25    H     0.70941   0.07680   0.49018   0.00000  Uiso   1.00
H26    H     0.22516   0.07751   0.47907   0.00000  Uiso   1.00
H27    H     0.07663   0.21357   0.50325   0.00000  Uiso   1.00
H28    H     0.11868   0.62410   0.51639   0.00000  Uiso   1.00
H29    H     0.25443   0.63674   0.49958   0.00000  Uiso   1.00
H30    H     0.63590   0.10848   0.47916   0.00000  Uiso   1.00
H31    H     0.25624   0.11930   0.50778   0.00000  Uiso   1.00
H32    H     0.10856   0.25584   0.48063   0.00000  Uiso   1.00
H33    H     0.45448   0.30455   0.36109   0.00000  Uiso   1.00
H34    H     0.30590   0.23848   0.35730   0.00000  Uiso   1.00
H35    H     0.23986   0.45328   0.35615   0.00000  Uiso   1.00
H36    H     0.62394   0.25704   0.51385   0.00000  Uiso   1.00
H37    H     0.40244   0.20389   0.35094   0.00000  Uiso   1.00
H38    H     0.37335   0.20640   0.56480   0.00000  Uiso   1.00
H39    H     0.43040   0.20968   0.56317   0.00000  Uiso   1.00
H40    H     0.20780   0.35834   0.49497   0.00000  Uiso   1.00
H41    H     0.20560   0.40684   0.35589   0.00000  Uiso   1.00
H42    H     0.20669   0.41284   0.60090   0.00000  Uiso   1.00
H43    H     0.40375   0.38899   0.34757   0.00000  Uiso   1.00
H44    H     0.41537   0.37992   0.58859   0.00000  Uiso   1.00
H45    H     0.35880   0.43391   0.51199   0.00000  Uiso   1.00
H46    H     0.56657   0.79055   0.04967   0.00000  Uiso   1.00
H47    H     0.59979   0.79267   0.85359   0.00000  Uiso   1.00
H48    H     0.62262   0.79514   0.08076   0.00000  Uiso   1.00
H49    H     0.79046   0.63458   0.89381   0.00000  Uiso   1.00
H50    H     0.79731   0.57725  -0.02139   0.00000  Uiso   1.00
H51    H     0.79355   0.62687   0.13378   0.00000  Uiso   1.00
H52    H     0.64159   0.57005   0.09773   0.00000  Uiso   1.00
H53    H     0.61399   0.58919   0.87805   0.00000  Uiso   1.00
H54    H     0.58075   0.62615   0.07974   0.00000  Uiso   1.00
H55    H     0.06953   0.86723   0.89920   0.00000  Uiso   1.00
H56    H     0.03783   0.87761   0.11537   0.00000  Uiso   1.00
H57    H     0.09542   0.87926   0.10304   0.00000  Uiso   1.00
H58    H     0.87381   0.02560  -0.02030   0.00000  Uiso   1.00
H59    H     0.87345   0.07520   0.85306   0.00000  Uiso   1.00
H60    H     0.87246   0.07864   0.09903   0.00000  Uiso   1.00
H61    H     0.07870   0.04382   0.85380   0.00000  Uiso   1.00
H62    H     0.07361   0.05868   0.09629   0.00000  Uiso   1.00
H63    H     0.02494   0.10002  -0.05324   0.00000  Uiso   1.00
H64    H     0.97386   0.90138   0.54437   0.00000  Uiso   1.00
H65    H     0.93247   0.93838   0.36698   0.00000  Uiso   1.00
H66    H     0.91633   0.95957   0.60168   0.00000  Uiso   1.00
H67    H     0.12420   0.96649   0.39467   0.00000  Uiso   1.00
H68    H     0.12991   0.90963   0.47786   0.00000  Uiso   1.00
H69    H     0.12623   0.95847   0.63438   0.00000  Uiso   1.00
H70    H     0.89914   0.12619   0.49843   0.00000  Uiso   1.00
H71    H     0.94550   0.12557   0.34800   0.00000  Uiso   1.00
H72    H     0.95242   0.12891   0.59200   0.00000  Uiso   1.00
H73    H     0.20367   0.99034   0.36173   0.00000  Uiso   1.00
H74    H     0.17800   0.99138   0.57943   0.00000  Uiso   1.00
H75    H     0.23288   0.99890   0.56559   0.00000  Uiso   1.00
H76    H     0.81435   0.19431   0.38594   0.00000  Uiso   1.00
H77    H     0.82656   0.18229   0.62307   0.00000  Uiso   1.00
H78    H     0.76733   0.23492   0.55102   0.00000  Uiso   1.00
H79    H     0.09935   0.33572   0.52798   0.00000  Uiso   1.00
H80    H     0.14355   0.34078   0.38483   0.00000  Uiso   1.00
H81    H     0.15108   0.34147   0.62887   0.00000  Uiso   1.00
H82    H     0.33991   0.51961   0.38053   0.00000  Uiso   1.00
H83    H     0.34083   0.50802   0.61934   0.00000  Uiso   1.00
H84    H     0.33416   0.56713   0.54928   0.00000  Uiso   1.00
H85    H     0.99679   0.76786   0.51299   0.00000  Uiso   1.00
H86    H     0.98955   0.82083   0.38892   0.00000  Uiso   1.00
H87    H     0.99146   0.82305   0.63227   0.00000  Uiso   1.00
H88    H     0.56625   0.09911   0.53066   0.00000  Uiso   1.00
H89    H     0.51742   0.14007   0.37580   0.00000  Uiso   1.00
H90    H     0.50816   0.15226   0.61786   0.00000  Uiso   1.00
H91    H     0.76580   0.00261   0.06049   0.00000  Uiso   1.00
H92    H     0.80074   0.00734   0.87619   0.00000  Uiso   1.00
H93    H     0.81972   0.01067   0.10678   0.00000  Uiso   1.00
H94    H     0.85774   0.65784   0.86920   0.00000  Uiso   1.00
H95    H     0.84719   0.66100   0.11027   0.00000  Uiso   1.00
H96    H     0.90017   0.66532   0.02640   0.00000  Uiso   1.00
H97    H     0.23063   0.76689   0.06058   0.00000  Uiso   1.00
H98    H     0.19931   0.79124   0.84724   0.00000  Uiso   1.00
H99    H     0.16740   0.82005   0.05762   0.00000  Uiso   1.00
H100   H     0.48693   0.85121   0.88215   0.00000  Uiso   1.00
H101   H     0.48955   0.85001   0.12709   0.00000  Uiso   1.00
H102   H     0.43450   0.89904   0.01471   0.00000  Uiso   1.00
H103   H     0.66459   0.43529  -0.02275   0.00000  Uiso   1.00
H104   H     0.66000   0.49007   0.87212   0.00000  Uiso   1.00
H105   H     0.65918   0.48801   0.11622   0.00000  Uiso   1.00
H106   H     0.00812   0.19514   0.89475   0.00000  Uiso   1.00
H107   H     0.00896   0.16894   0.10894   0.00000  Uiso   1.00
H108   H     0.00103   0.23161   0.10311   0.00000  Uiso   1.00
H109   H     0.18027   0.49381   0.63693   0.00000  Uiso   1.00
H110   H     0.15796   0.50715   0.40555   0.00000  Uiso   1.00
H111   H     0.12210   0.55071   0.58878   0.00000  Uiso   1.00
H112   H     0.49386   0.32717   0.65001   0.00000  Uiso   1.00
H113   H     0.50718   0.33403   0.41884   0.00000  Uiso   1.00
H114   H     0.55073   0.32795   0.59859   0.00000  Uiso   1.00
H115   H     0.15253   0.83888   0.36290   0.00000  Uiso   1.00
H116   H     0.21010   0.78264   0.41894   0.00000  Uiso   1.00
H117   H     0.17307   0.82774   0.59653   0.00000  Uiso   1.00
H118   H     0.82798  -0.00141   0.38514   0.00000  Uiso   1.00
H119   H     0.78248   0.00583   0.55036   0.00000  Uiso   1.00
H120   H     0.83845   0.00744   0.62224   0.00000  Uiso   1.00
H121   H     0.33437   0.15804   0.41290   0.00000  Uiso   1.00
H122   H     0.32701   0.12177   0.58274   0.00000  Uiso   1.00
H123   H     0.32616   0.17967   0.64911   0.00000  Uiso   1.00
H124   H     0.00769   0.15362   0.63044   0.00000  Uiso   1.00
H125   H    -0.00106   0.17283   0.39877   0.00000  Uiso   1.00
H126   H     0.00623   0.21122   0.57573   0.00000  Uiso   1.00
H127   H     0.67225   0.82361   0.12481   0.00000  Uiso   1.00
H128   H     0.66589   0.84098   0.89023   0.00000  Uiso   1.00
H129   H     0.67232   0.88019   0.06678   0.00000  Uiso   1.00
H130   H     1.00029   0.82565   0.90104   0.00000  Uiso   1.00
H131   H     0.99393   0.78948   0.07273   0.00000  Uiso   1.00
H132   H     0.99334   0.84741   0.13552   0.00000  Uiso   1.00
H133   H     0.49282   0.66394   0.88441   0.00000  Uiso   1.00
H134   H     0.44796   0.67056   0.05232   0.00000  Uiso   1.00
H135   H     0.50448   0.67113   0.12312   0.00000  Uiso   1.00
H136   H     0.17307   0.99896   0.10681   0.00000  Uiso   1.00
H137   H     0.16153   0.99334   0.86828   0.00000  Uiso   1.00
H138   H     0.21856   0.99222   0.94278   0.00000  Uiso   1.00
H139   H     0.84243   0.49206   0.10811   0.00000  Uiso   1.00
H140   H     0.82327   0.50403   0.87243   0.00000  Uiso   1.00
H141   H     0.88006   0.44705   0.93152   0.00000  Uiso   1.00
H142   H     0.84757   0.15930   0.12528   0.00000  Uiso   1.00
H143   H     0.82625   0.17264   0.89425   0.00000  Uiso   1.00
H144   H     0.78941   0.21609   0.07526   0.00000  Uiso   1.00
N1     N     0.14321   0.90937   0.96262   0.00000  Uiso   1.00
N2     N     0.94406   0.14385   0.04311   0.00000  Uiso   1.00
N3     N     0.91161   0.94508   0.04405   0.00000  Uiso   1.00
N4     N     0.52245   0.75204   0.03816   0.00000  Uiso   1.00
N5     N     0.75384   0.72399   0.03449   0.00000  Uiso   1.00
N6     N     0.72451   0.52262   0.96316   0.00000  Uiso   1.00
N7     N     0.85612   0.08789   0.53411   0.00000  Uiso   1.00
N8     N     0.05500   0.85644   0.46657   0.00000  Uiso   1.00
N9     N     0.08891   0.05537   0.52963   0.00000  Uiso   1.00
N10    N     0.47743   0.24629   0.54646   0.00000  Uiso   1.00
N11    N     0.24651   0.27683   0.54653   0.00000  Uiso   1.00
N12    N     0.27660   0.47793   0.54635   0.00000  Uiso   1.00
loop_
_geom_bond_atom_site_label_1
_geom_bond_atom_site_label_2
_geom_bond_distance
_geom_bond_site_symmetry_2
_ccdc_geom_bond_type
C1     C55     1.504   .     S
C1     C2      1.408   1_455 D
C1     C6      1.421   1_545 S
C2     C3      1.419   .     S
C2     C8      1.473   .     S
C2     C1      1.408   1_655 D
C3     C54     1.502   .     S
C3     C4      1.410   1_545 D
C4     C9      1.473   .     S
C4     C3      1.410   1_565 D
C4     C5      1.417   1_656 S
C5     C56     1.502   .     S
C5     C4      1.417   1_454 S
C5     C6      1.409   1_554 D
C6     C7      1.466   .     S
C6     C1      1.421   1_565 S
C6     C5      1.409   1_556 D
C7     H1      1.095   .     S
C7     N1      1.291   .     D
C8     H2      1.099   .     S
C8     N2      1.287   1_556 D
C9     H3      1.099   .     S
C9     N3      1.288   1_556 D
C10    N2      1.400   .     S
C10    C11     1.420   .     D
C10    C12     1.423   .     S
C11    C67     1.504   .     S
C11    C13     1.392   .     S
C12    C68     1.507   .     S
C12    C14     1.396   1_554 D
C13    C15     1.405   1_554 D
C13    H4      1.090   1_554 S
C14    C15     1.405   .     S
C14    H5      1.090   .     S
C14    C12     1.396   1_556 D
C15    C28     1.480   .     S
C15    C13     1.405   1_556 D
C16    N1      1.403   .     S
C16    C18     1.428   .     S
C16    C17     1.422   .     D
C17    C19     1.392   1_556 S
C17    C64     1.507   1_556 S
C18    C69     1.508   .     S
C18    C20     1.397   .     D
C19    H6      1.090   .     S
C19    C17     1.392   1_554 S
C19    C21     1.404   1_554 D
C20    C21     1.403   .     S
C20    H7      1.090   .     S
C21    C34     1.479   .     S
C21    C19     1.404   1_556 D
C22    C23     1.421   .     D
C22    N3      1.402   .     S
C22    C24     1.424   .     S
C23    C63     1.505   .     S
C23    C25     1.392   1_554 S
C24    C72     1.508   .     S
C24    C26     1.396   1_554 D
C25    H8      1.090   .     S
C25    C27     1.405   .     D
C25    C23     1.392   1_556 S
C26    C27     1.405   .     S
C26    H9      1.090   .     S
C26    C24     1.396   1_556 D
C27    C39     1.480   .     S
C28    C30     1.406   .     D
C28    C29     1.404   .     S
C29    H10     1.090   .     S
C29    C31     1.395   .     D
C30    H11     1.090   .     S
C30    C32     1.392   .     S
C31    C33     1.420   .     S
C31    C61     1.507   .     S
C32    C33     1.421   .     D
C32    C66     1.502   .     S
C33    N6      1.401   .     S
C34    C60     1.404   .     D
C34    C35     1.406   .     S
C35    C37     1.392   .     D
C35    H12     1.090   1_556 S
C36    C60     1.395   .     S
C36    C38     1.421   .     D
C36    C62     1.506   .     S
C37    C70     1.504   .     S
C37    C38     1.421   .     S
C38    N4      1.400   1_556 S
C39    C41     1.406   .     D
C39    C40     1.404   .     S
C40    H13     1.090   .     S
C40    C42     1.395   .     D
C41    C43     1.392   .     S
C41    H14     1.090   .     S
C42    C44     1.422   1_556 S
C42    C71     1.507   1_556 S
C43    C65     1.502   .     S
C43    C44     1.421   1_556 D
C44    N5      1.399   .     S
C44    C42     1.422   1_554 S
C44    C43     1.421   1_554 D
C45    C52     1.414   .     S
C45    C59     1.505   .     S
C45    C46     1.417   .     D
C46    C47     1.411   .     S
C46    C48     1.483   1_554 S
C47    C49     1.417   .     D
C47    C57     1.506   .     S
C48    H15     1.102   .     S
C48    C46     1.483   1_556 S
C48    N4      1.285   1_556 D
C49    C51     1.412   .     S
C49    C50     1.474   1_554 S
C50    H16     1.102   .     S
C50    C49     1.474   1_556 S
C50    N5      1.287   1_556 D
C51    C52     1.417   .     D
C51    C58     1.505   .     S
C52    C53     1.478   .     S
C53    H17     1.102   .     S
C53    N6      1.286   1_554 D
C54    H59     1.100   .     S
C54    H58     1.089   1_556 S
C54    H60     1.100   1_556 S
C55    H61     1.098   .     S
C55    H62     1.101   1_556 S
C55    H63     1.090   1_556 S
C56    H56     1.094   .     S
C56    H57     1.092   .     S
C56    H55     1.101   1_554 S
C57    H46     1.091   .     S
C57    H48     1.096   .     S
C57    H47     1.103   1_554 S
C58    H51     1.098   .     S
C58    H50     1.092   .     S
C58    H49     1.098   1_554 S
C59    H52     1.094   .     S
C59    H54     1.095   .     S
C59    H53     1.101   1_554 S
C60    H18     1.090   .     S
C61    H141    1.098   .     S
C61    H140    1.099   .     S
C61    H139    1.100   1_556 S
C62    H133    1.100   .     S
C62    H134    1.098   1_556 S
C62    H135    1.099   1_556 S
C63    H91     1.098   1_565 S
C63    H92     1.099   1_564 S
C63    H93     1.095   1_565 S
C64    H99     1.093   .     S
C64    H97     1.099   .     S
C64    C17     1.507   1_554 S
C64    H98     1.100   1_554 S
C65    H94     1.102   .     S
C65    H95     1.099   1_556 S
C65    H96     1.097   1_556 S
C66    H104    1.100   .     S
C66    H103    1.098   1_556 S
C66    H105    1.101   1_556 S
C67    H106    1.100   1_654 S
C67    H107    1.095   1_655 S
C67    H108    1.098   1_655 S
C68    H142    1.098   .     S
C68    H144    1.098   .     S
C68    H143    1.098   1_554 S
C69    H137    1.098   .     S
C69    H138    1.098   .     S
C69    H136    1.099   1_556 S
C70    H100    1.100   .     S
C70    H101    1.100   1_556 S
C70    H102    1.098   1_556 S
C71    H127    1.098   .     S
C71    H129    1.098   .     S
C71    C42     1.507   1_554 S
C71    H128    1.100   1_554 S
C72    H132    1.098   .     S
C72    H131    1.097   .     S
C72    H130    1.099   1_554 S
C73    C127    1.503   .     S
C73    C74     1.413   1_655 D
C73    C78     1.419   1_565 S
C74    C80     1.474   .     S
C74    C75     1.419   .     S
C74    C73     1.413   1_455 D
C75    C126    1.503   .     S
C75    C76     1.410   1_565 D
C76    C81     1.468   .     S
C76    C75     1.410   1_545 D
C76    C77     1.418   1_455 S
C77    C78     1.409   .     D
C77    C128    1.503   .     S
C77    C76     1.418   1_655 S
C78    C79     1.476   .     S
C78    C73     1.419   1_545 S
C79    H19     1.100   .     S
C79    N7      1.288   .     D
C80    H20     1.100   .     S
C80    N8      1.288   .     D
C81    H21     1.099   .     S
C81    N9      1.289   .     D
C82    C84     1.422   .     D
C82    N8      1.399   .     S
C82    C83     1.421   .     S
C83    C139    1.503   .     S
C83    C85     1.392   .     D
C84    C140    1.507   .     S
C84    C86     1.395   .     S
C85    H22     1.090   .     S
C85    C87     1.407   .     S
C86    H23     1.090   .     S
C86    C87     1.404   .     D
C87    C100    1.480   .     S
C88    C90     1.423   .     S
C88    N7      1.400   .     S
C88    C89     1.422   .     D
C89    C91     1.392   .     S
C89    C136    1.505   .     S
C90    C141    1.507   .     S
C90    C92     1.396   .     D
C91    H24     1.090   .     S
C91    C93     1.406   .     D
C92    H25     1.090   .     S
C92    C93     1.405   .     S
C93    C106    1.481   .     S
C94    C96     1.425   .     S
C94    N9      1.398   .     S
C94    C95     1.421   .     D
C95    C135    1.504   .     S
C95    C97     1.392   .     S
C96    C144    1.508   .     S
C96    C98     1.396   .     D
C97    H26     1.090   .     S
C97    C99     1.405   .     D
C98    H27     1.090   .     S
C98    C99     1.405   .     S
C99    C111    1.481   .     S
C100   C101    1.404   .     S
C100   C102    1.406   .     D
C101   C103    1.396   .     D
C101   H28     1.090   .     S
C102   C104    1.392   .     S
C102   H29     1.090   .     S
C103   C133    1.508   .     S
C103   C105    1.420   .     S
C104   C105    1.420   .     D
C104   C138    1.503   .     S
C105   N12     1.402   .     S
C106   C107    1.407   .     S
C106   C132    1.404   .     D
C107   H30     1.090   .     S
C107   C109    1.392   .     D
C108   C110    1.420   .     D
C108   C132    1.396   .     S
C108   C134    1.507   .     S
C109   C110    1.419   .     S
C109   C142    1.503   .     S
C110   N10     1.402   .     S
C111   C113    1.406   .     S
C111   C112    1.404   .     D
C112   C114    1.395   .     S
C112   H31     1.090   .     S
C113   H32     1.090   .     S
C113   C115    1.393   .     D
C114   C143    1.507   .     S
C114   C116    1.420   .     D
C115   C116    1.419   .     S
C115   C137    1.503   .     S
C116   N11     1.404   .     S
C117   C131    1.505   .     S
C117   C124    1.411   .     S
C117   C118    1.418   .     D
C118   C120    1.481   .     S
C118   C119    1.411   .     S
C119   C121    1.417   .     D
C119   C129    1.506   .     S
C120   H33     1.103   .     S
C120   N10     1.285   .     D
C121   C123    1.412   .     S
C121   C122    1.483   .     S
C122   H34     1.104   .     S
C122   N11     1.284   .     D
C123   C130    1.505   .     S
C123   C124    1.419   .     D
C124   C125    1.481   .     S
C125   H35     1.103   .     S
C125   N12     1.285   .     D
C126   H69     1.096   .     S
C126   H67     1.096   .     S
C126   H68     1.090   .     S
C127   H64     1.090   .     S
C127   H66     1.097   .     S
C127   H65     1.102   .     S
C128   H71     1.101   .     S
C128   H70     1.089   .     S
C128   H72     1.098   .     S
C129   H37     1.103   .     S
C129   H39     1.091   .     S
C129   H38     1.094   .     S
C130   H41     1.102   .     S
C130   H40     1.089   .     S
C130   H42     1.099   .     S
C131   H43     1.103   .     S
C131   H45     1.090   .     S
C131   H44     1.097   .     S
C132   H36     1.090   .     S
C133   H109    1.098   .     S
C133   H111    1.098   .     S
C133   H110    1.100   .     S
C134   H112    1.098   .     S
C134   H114    1.098   .     S
C134   H113    1.100   .     S
C135   H73     1.100   1_545 S
C135   H74     1.094   1_545 S
C135   H75     1.098   1_545 S
C136   H77     1.097   .     S
C136   H78     1.098   .     S
C136   H76     1.098   .     S
C137   H81     1.099   .     S
C137   H79     1.097   .     S
C137   H80     1.101   .     S
C138   H83     1.098   .     S
C138   H84     1.098   .     S
C138   H82     1.102   .     S
C139   H85     1.098   1_455 S
C139   H86     1.096   1_455 S
C139   H87     1.098   1_455 S
C140   H116    1.097   .     S
C140   H115    1.098   .     S
C140   H117    1.099   .     S
C141   H120    1.099   .     S
C141   H119    1.098   .     S
C141   H118    1.098   .     S
C142   H88     1.098   .     S
C142   H90     1.099   .     S
C142   H89     1.101   .     S
C143   H123    1.099   .     S
C143   H122    1.098   .     S
C143   H121    1.100   .     S
C144   H124    1.099   .     S
C144   H126    1.098   .     S
C144   H125    1.098   .     S
H4     C13     1.090   1_556 S
H12    C35     1.090   1_554 S
H47    C57     1.103   1_556 S
H49    C58     1.098   1_556 S
H53    C59     1.101   1_556 S
H55    C56     1.101   1_556 S
H58    C54     1.089   1_554 S
H60    C54     1.100   1_554 S
H62    C55     1.101   1_554 S
H63    C55     1.090   1_554 S
H73    C135    1.100   1_565 S
H74    C135    1.094   1_565 S
H75    C135    1.098   1_565 S
H85    C139    1.098   1_655 S
H86    C139    1.096   1_655 S
H87    C139    1.098   1_655 S
H91    C63     1.098   1_545 S
H92    C63     1.099   1_546 S
H93    C63     1.095   1_545 S
H95    C65     1.099   1_554 S
H96    C65     1.097   1_554 S
H98    C64     1.100   1_556 S
H101   C70     1.100   1_554 S
H102   C70     1.098   1_554 S
H103   C66     1.098   1_554 S
H105   C66     1.101   1_554 S
H106   C67     1.100   1_456 S
H107   C67     1.095   1_455 S
H108   C67     1.098   1_455 S
H128   C71     1.100   1_556 S
H130   C72     1.099   1_556 S
H134   C62     1.098   1_554 S
H135   C62     1.099   1_554 S
H136   C69     1.099   1_554 S
H139   C61     1.100   1_554 S
H143   C68     1.098   1_556 S
N2     C8      1.287   1_554 D
N3     C9      1.288   1_554 D
N4     C38     1.400   1_554 S
N4     C48     1.285   1_554 D
N5     C50     1.287   1_554 D
N6     C53     1.286   1_556 D
