data_1079
_audit_creation_date              2023-09-08
_audit_creation_method            'Materials Studio'
_symmetry_space_group_name_H-M    'P1'
_symmetry_Int_Tables_number       1
_symmetry_cell_setting            triclinic
loop_
_symmetry_equiv_pos_as_xyz
  x,y,z
_cell_length_a                    22.6894
_cell_length_b                    22.6839
_cell_length_c                    3.7765
_cell_angle_alpha                 89.1762
_cell_angle_beta                  89.4647
_cell_angle_gamma                 60.0288
loop_
_atom_site_label
_atom_site_type_symbol
_atom_site_fract_x
_atom_site_fract_y
_atom_site_fract_z
_atom_site_U_iso_or_equiv
_atom_site_adp_type
_atom_site_occupancy
C1     C     0.02962   0.04113   0.97744   0.00000  Uiso   1.00
C2     C     0.95811   0.07057   0.00997   0.00000  Uiso   1.00
C3     C     0.92914   0.02831   0.02662   0.00000  Uiso   1.00
C4     C     0.97064   0.95689  -0.00213   0.00000  Uiso   1.00
C5     C     0.04173   0.92802   0.97872   0.00000  Uiso   1.00
C6     C     0.07165   0.96980   0.97997   0.00000  Uiso   1.00
C7     C     0.05601   0.08847   0.91305   0.00000  Uiso   1.00
C8     C     0.85530   0.05574   0.08332   0.00000  Uiso   1.00
C9     C     0.08777   0.85423   0.93285   0.00000  Uiso   1.00
C10    C     0.73891   0.13361   0.95102   0.00000  Uiso   1.00
C11    C     0.69860   0.20560   0.94414   0.00000  Uiso   1.00
C12    C     0.70732   0.09310   0.96344   0.00000  Uiso   1.00
C13    C     0.62743   0.23754   0.96861   0.00000  Uiso   1.00
C14    C     0.63607   0.12517   0.95105   0.00000  Uiso   1.00
C15    C     0.59566   0.19721   0.95688   0.00000  Uiso   1.00
C16    C     0.13464   0.12818   0.01107   0.00000  Uiso   1.00
C17    C     0.20648   0.09741   0.01452   0.00000  Uiso   1.00
C18    C     0.09369   0.20021   1.01053   0.00000  Uiso   1.00
C19    C     0.23790   0.13687   0.04042   0.00000  Uiso   1.00
C20    C     0.12509   0.23995   0.03757   0.00000  Uiso   1.00
C21    C     0.19699   0.20881   0.04920   0.00000  Uiso   1.00
C22    C     0.12617   0.73824   0.05542   0.00000  Uiso   1.00
C23    C     0.09537   0.69754   0.03279   0.00000  Uiso   1.00
C24    C     0.19826   0.70752   0.05117   0.00000  Uiso   1.00
C25    C     0.13518   0.62724   0.97504   0.00000  Uiso   1.00
C26    C     0.23802   0.63660   0.02166   0.00000  Uiso   1.00
C27    C     0.20685   0.59651   0.97358   0.00000  Uiso   1.00
C28    C     0.93796   0.91373   0.96116   0.00000  Uiso   1.00
C29    C     0.91492   0.14623   0.05496   0.00000  Uiso   1.00
C30    C     0.14788   0.93663  -0.00906   0.00000  Uiso   1.00
C31    C     0.37529   0.26189   0.00126   0.00000  Uiso   1.00
C32    C     0.27592   0.24603   0.93081   0.00000  Uiso   1.00
C33    C     0.47826   0.27648   0.06767   0.00000  Uiso   1.00
C34    C     0.36333   0.37541   0.98961   0.00000  Uiso   1.00
C35    C     0.29197   0.40515   0.99243   0.00000  Uiso   1.00
C36    C     0.30367   0.29218   0.97525   0.00000  Uiso   1.00
C37    C     0.26187   0.36348   0.97967   0.00000  Uiso   1.00
C38    C     0.40474   0.30368   1.00909   0.00000  Uiso   1.00
C39    C     0.24562   0.47901   0.04616   0.00000  Uiso   1.00
C40    C     0.31381   0.10138   0.09389   0.00000  Uiso   1.00
C41    C     0.58626   0.31373  -0.00115   0.00000  Uiso   1.00
C42    C     0.09998   0.58754   0.89689   0.00000  Uiso   1.00
C43    C     0.01741   0.23434   0.98945   0.00000  Uiso   1.00
C44    C     0.74915   0.01666   0.97250   0.00000  Uiso   1.00
C45    C     0.23175   0.75020   0.08276   0.00000  Uiso   1.00
C46    C     0.08406   0.31644   0.04969   0.00000  Uiso   1.00
C47    C     0.24874   0.02123   0.98591   0.00000  Uiso   1.00
C48    C     0.31450   0.60011   0.04239   0.00000  Uiso   1.00
C49    C     0.01915   0.73079   0.05867   0.00000  Uiso   1.00
C50    C     0.73450   0.24614   0.91380   0.00000  Uiso   1.00
C51    C     0.60020   0.08456   0.94360   0.00000  Uiso   1.00
C52    C     0.39704   0.41797   0.96073   0.00000  Uiso   1.00
C53    C     0.41769   0.18603   0.04715   0.00000  Uiso   1.00
C54    C     0.18590   0.39664   0.94504   0.00000  Uiso   1.00
H1     H     0.02605   0.12878   0.71736   0.00000  Uiso   1.00
H2     H     0.84242   0.02941   0.29090   0.00000  Uiso   1.00
H3     H     0.12775   0.84066   0.73108   0.00000  Uiso   1.00
H4     H     0.92569   0.89938   0.21931   0.00000  Uiso   1.00
H5     H     0.89044   0.94116   0.81148   0.00000  Uiso   1.00
H6     H     0.97179   0.86643   0.82395   0.00000  Uiso   1.00
H7     H     0.94216   0.16603   0.20629   0.00000  Uiso   1.00
H8     H     0.90075   0.17362   0.79928   0.00000  Uiso   1.00
H9     H     0.86755   0.15923   0.19390   0.00000  Uiso   1.00
H10    H     0.16853   0.89522   0.18807   0.00000  Uiso   1.00
H11    H     0.17167   0.91388   0.73606   0.00000  Uiso   1.00
H12    H     0.16315   0.97332   0.06492   0.00000  Uiso   1.00
H13    H     0.20503   0.49023   0.24221   0.00000  Uiso   1.00
H14    H     0.48968   0.30465   0.26415   0.00000  Uiso   1.00
H15    H     0.30344   0.20503   0.73793   0.00000  Uiso   1.00
H16    H     0.33171   0.05345   0.24120   0.00000  Uiso   1.00
H17    H     0.34283   0.08917   0.84447   0.00000  Uiso   1.00
H18    H     0.32774   0.13328   0.24642   0.00000  Uiso   1.00
H19    H     0.56796   0.32898   0.27114   0.00000  Uiso   1.00
H20    H     0.61597   0.33816  -0.07021   0.00000  Uiso   1.00
H21    H     0.54101   0.33580   0.82936   0.00000  Uiso   1.00
H22    H     0.08722   0.56822   0.13767   0.00000  Uiso   1.00
H23    H     0.05223   0.61916   0.75400   0.00000  Uiso   1.00
H24    H     0.13216   0.54340   0.73253   0.00000  Uiso   1.00
H25    H     0.99786   0.20679   0.14669   0.00000  Uiso   1.00
H26    H     0.99243   0.28679   0.08314   0.00000  Uiso   1.00
H27    H     0.00013   0.23645   0.71614   0.00000  Uiso   1.00
H28    H     0.72205   0.99278   0.85975   0.00000  Uiso   1.00
H29    H     0.79673   0.99861   0.82467   0.00000  Uiso   1.00
H30    H     0.76323   0.99658   0.24429   0.00000  Uiso   1.00
H31    H     0.28113   0.72277   0.21579   0.00000  Uiso   1.00
H32    H     0.24107   0.76613   0.82147   0.00000  Uiso   1.00
H33    H     0.19986   0.79673   0.23134   0.00000  Uiso   1.00
H34    H     0.11390   0.33575   0.17947   0.00000  Uiso   1.00
H35    H     0.07165   0.33921   0.78214   0.00000  Uiso   1.00
H36    H     0.03590   0.33490   0.19320   0.00000  Uiso   1.00
H37    H     0.25795   0.99566   0.24623   0.00000  Uiso   1.00
H38    H     0.22297   0.00160   0.82221   0.00000  Uiso   1.00
H39    H     0.29838   0.00564   0.86408   0.00000  Uiso   1.00
H40    H     0.33350   0.55279   0.19608   0.00000  Uiso   1.00
H41    H     0.33794   0.58620   0.77794   0.00000  Uiso   1.00
H42    H     0.33330   0.63072   0.16786   0.00000  Uiso   1.00
H43    H     0.99903   0.77847   0.20430   0.00000  Uiso   1.00
H44    H     0.99483   0.74365   0.79620   0.00000  Uiso   1.00
H45    H     0.00353   0.69755   0.19333   0.00000  Uiso   1.00
H46    H     0.74339   0.26161   0.17366   0.00000  Uiso   1.00
H47    H     0.78435   0.21461   0.79053   0.00000  Uiso   1.00
H48    H     0.70576   0.29250   0.75328   0.00000  Uiso   1.00
H49    H     0.59093   0.07170   0.21286   0.00000  Uiso   1.00
H50    H     0.55048   0.11488   0.81700   0.00000  Uiso   1.00
H51    H     0.62903   0.03658   0.80112   0.00000  Uiso   1.00
H52    H     0.41801   0.42187   0.21528   0.00000  Uiso   1.00
H53    H     0.36107   0.46918   0.86573   0.00000  Uiso   1.00
H54    H     0.43978   0.39477   0.77383   0.00000  Uiso   1.00
H55    H     0.16542   0.44391   0.78924   0.00000  Uiso   1.00
H56    H     0.39121   0.16682   0.21536   0.00000  Uiso   1.00
H57    H     0.42841   0.15935   0.79301   0.00000  Uiso   1.00
H58    H     0.16034   0.40958   0.20465   0.00000  Uiso   1.00
H59    H     0.17163   0.36266   0.81758   0.00000  Uiso   1.00
H60    H     0.46672   0.17168   0.16715   0.00000  Uiso   1.00
N1     N     0.80928   0.10707   0.91067   0.00000  Uiso   1.00
N2     N     0.08169   0.80820   0.10419   0.00000  Uiso   1.00
N3     N     0.10953   0.08316   0.05668   0.00000  Uiso   1.00
N4     N     0.25144   0.52736   0.90045   0.00000  Uiso   1.00
N5     N     0.52548   0.22359   0.91362   0.00000  Uiso   1.00
N6     N     0.22296   0.25295   0.09427   0.00000  Uiso   1.00
loop_
_geom_bond_atom_site_label_1
_geom_bond_atom_site_label_2
_geom_bond_distance
_geom_bond_site_symmetry_2
_ccdc_geom_bond_type
C1     C7      1.484   .     S
C1     C2      1.418   1_456 S
C1     C6      1.409   1_545 D
C2     C3      1.408   .     D
C2     C29     1.503   .     S
C2     C1      1.418   1_654 S
C3     C8      1.482   .     S
C3     C4      1.415   1_545 S
C4     C3      1.415   1_565 S
C4     C5      1.407   1_654 D
C4     C28     1.503   1_554 S
C5     C6      1.415   .     S
C5     C9      1.477   .     S
C5     C4      1.407   1_456 D
C6     C1      1.409   1_565 D
C6     C30     1.503   1_556 S
C7     H1      1.101   .     S
C7     N3      1.284   1_556 D
C8     H2      1.102   .     S
C8     N1      1.283   1_554 D
C9     H3      1.101   .     S
C9     N2      1.285   1_556 D
C10    C12     1.420   .     D
C10    C11     1.418   .     S
C10    N1      1.405   .     S
C11    C13     1.404   .     D
C11    C50     1.505   .     S
C12    C14     1.404   .     S
C12    C44     1.504   .     S
C13    C15     1.421   .     S
C13    C41     1.504   1_556 S
C14    C15     1.420   .     D
C14    C51     1.504   .     S
C15    N5      1.404   .     S
C16    C17     1.417   .     S
C16    N3      1.404   .     S
C16    C18     1.420   1_554 D
C17    C19     1.400   .     D
C17    C47     1.505   1_554 S
C18    C43     1.504   .     S
C18    C16     1.420   1_556 D
C18    C20     1.406   1_556 S
C19    C40     1.507   .     S
C19    C21     1.419   .     S
C20    C21     1.418   .     D
C20    C46     1.506   .     S
C20    C18     1.406   1_554 S
C21    N6      1.405   .     S
C22    N2      1.406   .     S
C22    C23     1.413   .     D
C22    C24     1.422   .     S
C23    C49     1.505   .     S
C23    C25     1.405   1_554 S
C24    C26     1.403   .     D
C24    C45     1.506   .     S
C25    C27     1.413   .     D
C25    C42     1.506   .     S
C25    C23     1.405   1_556 S
C26    C48     1.506   .     S
C26    C27     1.418   1_554 S
C27    N4      1.408   .     S
C27    C26     1.418   1_556 S
C28    H5      1.096   .     S
C28    H6      1.093   .     S
C28    C4      1.503   1_556 S
C28    H4      1.100   1_556 S
C29    H9      1.093   .     S
C29    H7      1.096   .     S
C29    H8      1.100   1_554 S
C30    H12     1.090   .     S
C30    H10     1.097   .     S
C30    C6      1.503   1_554 S
C30    H11     1.100   1_554 S
C31    C53     1.502   .     S
C31    C36     1.417   1_554 D
C31    C38     1.407   1_554 S
C32    H15     1.103   .     S
C32    C36     1.479   .     S
C32    N6      1.285   1_556 D
C33    H14     1.099   .     S
C33    C38     1.479   1_554 S
C33    N5      1.284   1_554 D
C34    C52     1.504   .     S
C34    C35     1.409   .     S
C34    C38     1.416   .     D
C35    C37     1.417   .     D
C35    C39     1.483   1_556 S
C36    C37     1.408   .     S
C36    C31     1.417   1_556 D
C37    C54     1.503   .     S
C38    C31     1.407   1_556 S
C38    C33     1.479   1_556 S
C39    H13     1.104   .     S
C39    C35     1.483   1_554 S
C39    N4      1.284   1_554 D
C40    H18     1.095   .     S
C40    H16     1.096   .     S
C40    H17     1.101   1_554 S
C41    H20     1.093   .     S
C41    H19     1.099   .     S
C41    C13     1.504   1_554 S
C41    H21     1.097   1_554 S
C42    H24     1.095   .     S
C42    H23     1.097   .     S
C42    H22     1.101   1_556 S
C43    H27     1.099   .     S
C43    H25     1.096   1_456 S
C43    H26     1.094   1_456 S
C44    H28     1.094   1_545 S
C44    H29     1.095   1_545 S
C44    H30     1.100   1_546 S
C45    H33     1.095   .     S
C45    H31     1.095   .     S
C45    H32     1.101   1_554 S
C46    H34     1.095   .     S
C46    H36     1.096   .     S
C46    H35     1.101   1_554 S
C47    H39     1.097   .     S
C47    H38     1.094   .     S
C47    C17     1.505   1_556 S
C47    H37     1.101   1_546 S
C48    H40     1.095   .     S
C48    H42     1.094   .     S
C48    H41     1.101   1_554 S
C49    H45     1.098   .     S
C49    H43     1.095   1_455 S
C49    H44     1.101   1_454 S
C50    H47     1.095   .     S
C50    H48     1.097   .     S
C50    H46     1.101   1_556 S
C51    H50     1.095   .     S
C51    H51     1.096   .     S
C51    H49     1.101   1_556 S
C52    H53     1.091   .     S
C52    H54     1.097   .     S
C52    H52     1.101   1_556 S
C53    H56     1.096   .     S
C53    H60     1.092   .     S
C53    H57     1.101   1_554 S
C54    H55     1.096   .     S
C54    H59     1.093   .     S
C54    H58     1.101   1_556 S
H4     C28     1.100   1_554 S
H8     C29     1.100   1_556 S
H11    C30     1.100   1_556 S
H17    C40     1.101   1_556 S
H21    C41     1.097   1_556 S
H22    C42     1.101   1_554 S
H25    C43     1.096   1_654 S
H26    C43     1.094   1_654 S
H28    C44     1.094   1_565 S
H29    C44     1.095   1_565 S
H30    C44     1.100   1_564 S
H32    C45     1.101   1_556 S
H35    C46     1.101   1_556 S
H37    C47     1.101   1_564 S
H41    C48     1.101   1_556 S
H43    C49     1.095   1_655 S
H44    C49     1.101   1_656 S
H46    C50     1.101   1_554 S
H49    C51     1.101   1_554 S
H52    C52     1.101   1_554 S
H57    C53     1.101   1_556 S
H58    C54     1.101   1_554 S
N1     C8      1.283   1_556 D
N2     C9      1.285   1_554 D
N3     C7      1.284   1_554 D
N4     C39     1.284   1_556 D
N5     C33     1.284   1_556 D
N6     C32     1.285   1_554 D
