data_108
_audit_creation_date              2023-09-08
_audit_creation_method            'Materials Studio'
_symmetry_space_group_name_H-M    'P1'
_symmetry_Int_Tables_number       1
_symmetry_cell_setting            triclinic
loop_
_symmetry_equiv_pos_as_xyz
  x,y,z
_cell_length_a                    19.6394
_cell_length_b                    19.6394
_cell_length_c                    8.9062
_cell_angle_alpha                 90.0000
_cell_angle_beta                  90.0000
_cell_angle_gamma                 90.0000
loop_
_atom_site_label
_atom_site_type_symbol
_atom_site_fract_x
_atom_site_fract_y
_atom_site_fract_z
_atom_site_U_iso_or_equiv
_atom_site_adp_type
_atom_site_occupancy
C1     C     0.50830   0.31030   0.26540   0.00000  Uiso   1.00
C2     C     0.52580   0.39530   0.01580   0.00000  Uiso   1.00
C3     C     0.57890   0.38290   0.11230   0.00000  Uiso   1.00
H4     H     0.62190   0.40350   0.09410   0.00000  Uiso   1.00
C5     C     0.57090   0.34070   0.23620   0.00000  Uiso   1.00
H6     H     0.60830   0.33250   0.30130   0.00000  Uiso   1.00
C7     C     0.46220   0.36740   0.04790   0.00000  Uiso   1.00
H8     H     0.42440   0.37730   0.98500   0.00000  Uiso   1.00
C9     C     0.45400   0.32560   0.17070   0.00000  Uiso   1.00
H10    H     0.41040   0.30680   0.19110   0.00000  Uiso   1.00
C11    C     0.43820   0.49990   0.57530   0.00000  Uiso   1.00
H12    H     0.39600   0.49960   0.62720   0.00000  Uiso   1.00
C13    C     0.49740   0.48090   0.64970   0.00000  Uiso   1.00
C14    C     0.55950   0.48040   0.57520   0.00000  Uiso   1.00
H15    H     0.59980   0.46700   0.62590   0.00000  Uiso   1.00
C16    C     0.49000   0.45460   0.80530   0.00000  Uiso   1.00
H17    H     0.44630   0.45540   0.85080   0.00000  Uiso   1.00
N18    N     0.54000   0.43121   0.88000   0.00000  Uiso   1.00
C19    C     0.00830   0.81030   0.76540   0.00000  Uiso   1.00
C20    C     0.02580   0.89530   0.51580   0.00000  Uiso   1.00
C21    C     0.07890   0.88290   0.61230   0.00000  Uiso   1.00
H22    H     0.12190   0.90350   0.59410   0.00000  Uiso   1.00
C23    C     0.07090   0.84070   0.73620   0.00000  Uiso   1.00
H24    H     0.10830   0.83250   0.80130   0.00000  Uiso   1.00
C25    C     0.96220   0.86740   0.54790   0.00000  Uiso   1.00
H26    H     0.92440   0.87730   0.48500   0.00000  Uiso   1.00
C27    C     0.95400   0.82560   0.67070   0.00000  Uiso   1.00
H28    H     0.91040   0.80680   0.69110   0.00000  Uiso   1.00
C29    C     0.93820   0.99990   0.07530   0.00000  Uiso   1.00
H30    H     0.89600   0.99960   0.12720   0.00000  Uiso   1.00
C31    C     0.99740   0.98090   0.14970   0.00000  Uiso   1.00
C32    C     0.05950   0.98040   0.07520   0.00000  Uiso   1.00
H33    H     0.09980   0.96700   0.12590   0.00000  Uiso   1.00
C34    C     0.99000   0.95460   0.30530   0.00000  Uiso   1.00
H35    H     0.94630   0.95540   0.35080   0.00000  Uiso   1.00
N36    N     0.04000   0.93121   0.38000   0.00000  Uiso   1.00
C37    C     0.99170   0.68970   0.76540   0.00000  Uiso   1.00
C38    C     0.97420   0.60470   0.51580   0.00000  Uiso   1.00
C39    C     0.92110   0.61710   0.61230   0.00000  Uiso   1.00
H40    H     0.87810   0.59650   0.59410   0.00000  Uiso   1.00
C41    C     0.92910   0.65930   0.73620   0.00000  Uiso   1.00
H42    H     0.89170   0.66750   0.80130   0.00000  Uiso   1.00
C43    C     0.03780   0.63260   0.54790   0.00000  Uiso   1.00
H44    H     0.07560   0.62270   0.48500   0.00000  Uiso   1.00
C45    C     0.04600   0.67440   0.67070   0.00000  Uiso   1.00
H46    H     0.08960   0.69320   0.69110   0.00000  Uiso   1.00
C47    C     0.06180   0.50010   0.07530   0.00000  Uiso   1.00
H48    H     0.10400   0.50040   0.12720   0.00000  Uiso   1.00
C49    C     0.00260   0.51910   0.14970   0.00000  Uiso   1.00
C50    C     0.94050   0.51960   0.07520   0.00000  Uiso   1.00
H51    H     0.90020   0.53300   0.12590   0.00000  Uiso   1.00
C52    C     0.01000   0.54540   0.30530   0.00000  Uiso   1.00
H53    H     0.05370   0.54460   0.35080   0.00000  Uiso   1.00
N54    N     0.96000   0.56879   0.38000   0.00000  Uiso   1.00
C55    C     0.49170   0.18970   0.26540   0.00000  Uiso   1.00
C56    C     0.47420   0.10470   0.01580   0.00000  Uiso   1.00
C57    C     0.42110   0.11710   0.11230   0.00000  Uiso   1.00
H58    H     0.37810   0.09650   0.09410   0.00000  Uiso   1.00
C59    C     0.42910   0.15930   0.23620   0.00000  Uiso   1.00
H60    H     0.39170   0.16750   0.30130   0.00000  Uiso   1.00
C61    C     0.53780   0.13260   0.04790   0.00000  Uiso   1.00
H62    H     0.57560   0.12270   0.98500   0.00000  Uiso   1.00
C63    C     0.54600   0.17440   0.17070   0.00000  Uiso   1.00
H64    H     0.58960   0.19320   0.19110   0.00000  Uiso   1.00
C65    C     0.56180   0.00010   0.57530   0.00000  Uiso   1.00
H66    H     0.60400   0.00040   0.62720   0.00000  Uiso   1.00
C67    C     0.50260   0.01910   0.64970   0.00000  Uiso   1.00
C68    C     0.44050   0.01960   0.57520   0.00000  Uiso   1.00
H69    H     0.40020   0.03300   0.62590   0.00000  Uiso   1.00
C70    C     0.51000   0.04540   0.80530   0.00000  Uiso   1.00
H71    H     0.55370   0.04460   0.85080   0.00000  Uiso   1.00
N72    N     0.46000   0.06879   0.88000   0.00000  Uiso   1.00
C73    C     0.43970   0.75830   0.51540   0.00000  Uiso   1.00
C74    C     0.35470   0.77580   0.26580   0.00000  Uiso   1.00
C75    C     0.36710   0.82890   0.36230   0.00000  Uiso   1.00
H76    H     0.34650   0.87190   0.34410   0.00000  Uiso   1.00
C77    C     0.40930   0.82090   0.48620   0.00000  Uiso   1.00
H78    H     0.41750   0.85830   0.55130   0.00000  Uiso   1.00
C79    C     0.38260   0.71220   0.29790   0.00000  Uiso   1.00
H80    H     0.37270   0.67440   0.23500   0.00000  Uiso   1.00
C81    C     0.42440   0.70400   0.42070   0.00000  Uiso   1.00
H82    H     0.44320   0.66040   0.44110   0.00000  Uiso   1.00
C83    C     0.25010   0.68820   0.82530   0.00000  Uiso   1.00
H84    H     0.25040   0.64600   0.87720   0.00000  Uiso   1.00
C85    C     0.26910   0.74740   0.89970   0.00000  Uiso   1.00
C86    C     0.26960   0.80950   0.82520   0.00000  Uiso   1.00
H87    H     0.28300   0.84980   0.87590   0.00000  Uiso   1.00
C88    C     0.29540   0.74000   0.05530   0.00000  Uiso   1.00
H89    H     0.29460   0.69630   0.10080   0.00000  Uiso   1.00
N90    N     0.31879   0.79000   0.13000   0.00000  Uiso   1.00
C91    C     0.93970   0.25830   0.01540   0.00000  Uiso   1.00
C92    C     0.85470   0.27580   0.76580   0.00000  Uiso   1.00
C93    C     0.86710   0.32890   0.86230   0.00000  Uiso   1.00
H94    H     0.84650   0.37190   0.84410   0.00000  Uiso   1.00
C95    C     0.90930   0.32090   0.98620   0.00000  Uiso   1.00
H96    H     0.91750   0.35830   0.05130   0.00000  Uiso   1.00
C97    C     0.88260   0.21220   0.79790   0.00000  Uiso   1.00
H98    H     0.87270   0.17440   0.73500   0.00000  Uiso   1.00
C99    C     0.92440   0.20400   0.92070   0.00000  Uiso   1.00
H100   H     0.94320   0.16040   0.94110   0.00000  Uiso   1.00
C101   C     0.75010   0.18820   0.32530   0.00000  Uiso   1.00
H102   H     0.75040   0.14600   0.37720   0.00000  Uiso   1.00
C103   C     0.76910   0.24740   0.39970   0.00000  Uiso   1.00
C104   C     0.76960   0.30950   0.32520   0.00000  Uiso   1.00
H105   H     0.78300   0.34980   0.37590   0.00000  Uiso   1.00
C106   C     0.79540   0.24000   0.55530   0.00000  Uiso   1.00
H107   H     0.79460   0.19630   0.60080   0.00000  Uiso   1.00
N108   N     0.81879   0.29000   0.63000   0.00000  Uiso   1.00
C109   C     0.06030   0.24170   0.01540   0.00000  Uiso   1.00
C110   C     0.14530   0.22420   0.76580   0.00000  Uiso   1.00
C111   C     0.13290   0.17110   0.86230   0.00000  Uiso   1.00
H112   H     0.15350   0.12810   0.84410   0.00000  Uiso   1.00
C113   C     0.09070   0.17910   0.98620   0.00000  Uiso   1.00
H114   H     0.08250   0.14170   0.05130   0.00000  Uiso   1.00
C115   C     0.11740   0.28780   0.79790   0.00000  Uiso   1.00
H116   H     0.12730   0.32560   0.73500   0.00000  Uiso   1.00
C117   C     0.07560   0.29600   0.92070   0.00000  Uiso   1.00
H118   H     0.05680   0.33960   0.94110   0.00000  Uiso   1.00
C119   C     0.24990   0.31180   0.32530   0.00000  Uiso   1.00
H120   H     0.24960   0.35400   0.37720   0.00000  Uiso   1.00
C121   C     0.23090   0.25260   0.39970   0.00000  Uiso   1.00
C122   C     0.23040   0.19050   0.32520   0.00000  Uiso   1.00
H123   H     0.21700   0.15020   0.37590   0.00000  Uiso   1.00
C124   C     0.20460   0.26000   0.55530   0.00000  Uiso   1.00
H125   H     0.20540   0.30370   0.60080   0.00000  Uiso   1.00
N126   N     0.18121   0.21000   0.63000   0.00000  Uiso   1.00
C127   C     0.56030   0.74170   0.51540   0.00000  Uiso   1.00
C128   C     0.64530   0.72420   0.26580   0.00000  Uiso   1.00
C129   C     0.63290   0.67110   0.36230   0.00000  Uiso   1.00
H130   H     0.65350   0.62810   0.34410   0.00000  Uiso   1.00
C131   C     0.59070   0.67910   0.48620   0.00000  Uiso   1.00
H132   H     0.58250   0.64170   0.55130   0.00000  Uiso   1.00
C133   C     0.61740   0.78780   0.29790   0.00000  Uiso   1.00
H134   H     0.62730   0.82560   0.23500   0.00000  Uiso   1.00
C135   C     0.57560   0.79600   0.42070   0.00000  Uiso   1.00
H136   H     0.55680   0.83960   0.44110   0.00000  Uiso   1.00
C137   C     0.74990   0.81180   0.82530   0.00000  Uiso   1.00
H138   H     0.74960   0.85400   0.87720   0.00000  Uiso   1.00
C139   C     0.73090   0.75260   0.89970   0.00000  Uiso   1.00
C140   C     0.73040   0.69050   0.82520   0.00000  Uiso   1.00
H141   H     0.71700   0.65020   0.87590   0.00000  Uiso   1.00
C142   C     0.70460   0.76000   0.05530   0.00000  Uiso   1.00
H143   H     0.70540   0.80370   0.10080   0.00000  Uiso   1.00
N144   N     0.68121   0.71000   0.13000   0.00000  Uiso   1.00
C145   C     0.49170   0.68970   0.73460   0.00000  Uiso   1.00
C146   C     0.47420   0.60470   0.98420   0.00000  Uiso   1.00
C147   C     0.42110   0.61710   0.88770   0.00000  Uiso   1.00
H148   H     0.37810   0.59650   0.90590   0.00000  Uiso   1.00
C149   C     0.42910   0.65930   0.76380   0.00000  Uiso   1.00
H150   H     0.39170   0.66750   0.69870   0.00000  Uiso   1.00
C151   C     0.53780   0.63260   0.95210   0.00000  Uiso   1.00
H152   H     0.57560   0.62270   0.01500   0.00000  Uiso   1.00
C153   C     0.54600   0.67440   0.82930   0.00000  Uiso   1.00
H154   H     0.58960   0.69320   0.80890   0.00000  Uiso   1.00
C155   C     0.56180   0.50010   0.42470   0.00000  Uiso   1.00
H156   H     0.60400   0.50040   0.37280   0.00000  Uiso   1.00
C157   C     0.50260   0.51910   0.35030   0.00000  Uiso   1.00
C158   C     0.44050   0.51960   0.42480   0.00000  Uiso   1.00
H159   H     0.40020   0.53300   0.37410   0.00000  Uiso   1.00
C160   C     0.51000   0.54540   0.19470   0.00000  Uiso   1.00
H161   H     0.55370   0.54460   0.14920   0.00000  Uiso   1.00
N162   N     0.46000   0.56879   0.12000   0.00000  Uiso   1.00
C163   C     0.99170   0.18970   0.23460   0.00000  Uiso   1.00
C164   C     0.97420   0.10470   0.48420   0.00000  Uiso   1.00
C165   C     0.92110   0.11710   0.38770   0.00000  Uiso   1.00
H166   H     0.87810   0.09650   0.40590   0.00000  Uiso   1.00
C167   C     0.92910   0.15930   0.26380   0.00000  Uiso   1.00
H168   H     0.89170   0.16750   0.19870   0.00000  Uiso   1.00
C169   C     0.03780   0.13260   0.45210   0.00000  Uiso   1.00
H170   H     0.07560   0.12270   0.51500   0.00000  Uiso   1.00
C171   C     0.04600   0.17440   0.32930   0.00000  Uiso   1.00
H172   H     0.08960   0.19320   0.30890   0.00000  Uiso   1.00
C173   C     0.06180   0.00010   0.92470   0.00000  Uiso   1.00
H174   H     0.10400   0.00040   0.87280   0.00000  Uiso   1.00
C175   C     0.00260   0.01910   0.85030   0.00000  Uiso   1.00
C176   C     0.94050   0.01960   0.92480   0.00000  Uiso   1.00
H177   H     0.90020   0.03300   0.87410   0.00000  Uiso   1.00
C178   C     0.01000   0.04540   0.69470   0.00000  Uiso   1.00
H179   H     0.05370   0.04460   0.64920   0.00000  Uiso   1.00
N180   N     0.96000   0.06879   0.62000   0.00000  Uiso   1.00
C181   C     0.00830   0.31030   0.23460   0.00000  Uiso   1.00
C182   C     0.02580   0.39530   0.48420   0.00000  Uiso   1.00
C183   C     0.07890   0.38290   0.38770   0.00000  Uiso   1.00
H184   H     0.12190   0.40350   0.40590   0.00000  Uiso   1.00
C185   C     0.07090   0.34070   0.26380   0.00000  Uiso   1.00
H186   H     0.10830   0.33250   0.19870   0.00000  Uiso   1.00
C187   C     0.96220   0.36740   0.45210   0.00000  Uiso   1.00
H188   H     0.92440   0.37730   0.51500   0.00000  Uiso   1.00
C189   C     0.95400   0.32560   0.32930   0.00000  Uiso   1.00
H190   H     0.91040   0.30680   0.30890   0.00000  Uiso   1.00
C191   C     0.93820   0.49990   0.92470   0.00000  Uiso   1.00
H192   H     0.89600   0.49960   0.87280   0.00000  Uiso   1.00
C193   C     0.99740   0.48090   0.85030   0.00000  Uiso   1.00
C194   C     0.05950   0.48040   0.92480   0.00000  Uiso   1.00
H195   H     0.09980   0.46700   0.87410   0.00000  Uiso   1.00
C196   C     0.99000   0.45460   0.69470   0.00000  Uiso   1.00
H197   H     0.94630   0.45540   0.64920   0.00000  Uiso   1.00
N198   N     0.04000   0.43121   0.62000   0.00000  Uiso   1.00
C199   C     0.50830   0.81030   0.73460   0.00000  Uiso   1.00
C200   C     0.52580   0.89530   0.98420   0.00000  Uiso   1.00
C201   C     0.57890   0.88290   0.88770   0.00000  Uiso   1.00
H202   H     0.62190   0.90350   0.90590   0.00000  Uiso   1.00
C203   C     0.57090   0.84070   0.76380   0.00000  Uiso   1.00
H204   H     0.60830   0.83250   0.69870   0.00000  Uiso   1.00
C205   C     0.46220   0.86740   0.95210   0.00000  Uiso   1.00
H206   H     0.42440   0.87730   0.01500   0.00000  Uiso   1.00
C207   C     0.45400   0.82560   0.82930   0.00000  Uiso   1.00
H208   H     0.41040   0.80680   0.80890   0.00000  Uiso   1.00
C209   C     0.43820   0.99990   0.42470   0.00000  Uiso   1.00
H210   H     0.39600   0.99960   0.37280   0.00000  Uiso   1.00
C211   C     0.49740   0.98090   0.35030   0.00000  Uiso   1.00
C212   C     0.55950   0.98040   0.42480   0.00000  Uiso   1.00
H213   H     0.59980   0.96700   0.37410   0.00000  Uiso   1.00
C214   C     0.49000   0.95460   0.19470   0.00000  Uiso   1.00
H215   H     0.44630   0.95540   0.14920   0.00000  Uiso   1.00
N216   N     0.54000   0.93121   0.12000   0.00000  Uiso   1.00
C217   C     0.56030   0.24170   0.48460   0.00000  Uiso   1.00
C218   C     0.64530   0.22420   0.73420   0.00000  Uiso   1.00
C219   C     0.63290   0.17110   0.63770   0.00000  Uiso   1.00
H220   H     0.65350   0.12810   0.65590   0.00000  Uiso   1.00
C221   C     0.59070   0.17910   0.51380   0.00000  Uiso   1.00
H222   H     0.58250   0.14170   0.44870   0.00000  Uiso   1.00
C223   C     0.61740   0.28780   0.70210   0.00000  Uiso   1.00
H224   H     0.62730   0.32560   0.76500   0.00000  Uiso   1.00
C225   C     0.57560   0.29600   0.57930   0.00000  Uiso   1.00
H226   H     0.55680   0.33960   0.55890   0.00000  Uiso   1.00
C227   C     0.74990   0.31180   0.17470   0.00000  Uiso   1.00
H228   H     0.74960   0.35400   0.12280   0.00000  Uiso   1.00
C229   C     0.73090   0.25260   0.10030   0.00000  Uiso   1.00
C230   C     0.73040   0.19050   0.17480   0.00000  Uiso   1.00
H231   H     0.71700   0.15020   0.12410   0.00000  Uiso   1.00
C232   C     0.70460   0.26000   0.94470   0.00000  Uiso   1.00
H233   H     0.70540   0.30370   0.89920   0.00000  Uiso   1.00
N234   N     0.68121   0.21000   0.87000   0.00000  Uiso   1.00
C235   C     0.06030   0.74170   0.98460   0.00000  Uiso   1.00
C236   C     0.14530   0.72420   0.23420   0.00000  Uiso   1.00
C237   C     0.13290   0.67110   0.13770   0.00000  Uiso   1.00
H238   H     0.15350   0.62810   0.15590   0.00000  Uiso   1.00
C239   C     0.09070   0.67910   0.01380   0.00000  Uiso   1.00
H240   H     0.08250   0.64170   0.94870   0.00000  Uiso   1.00
C241   C     0.11740   0.78780   0.20210   0.00000  Uiso   1.00
H242   H     0.12730   0.82560   0.26500   0.00000  Uiso   1.00
C243   C     0.07560   0.79600   0.07930   0.00000  Uiso   1.00
H244   H     0.05680   0.83960   0.05890   0.00000  Uiso   1.00
C245   C     0.24990   0.81180   0.67470   0.00000  Uiso   1.00
H246   H     0.24960   0.85400   0.62280   0.00000  Uiso   1.00
C247   C     0.23090   0.75260   0.60030   0.00000  Uiso   1.00
C248   C     0.23040   0.69050   0.67480   0.00000  Uiso   1.00
H249   H     0.21700   0.65020   0.62410   0.00000  Uiso   1.00
C250   C     0.20460   0.76000   0.44470   0.00000  Uiso   1.00
H251   H     0.20540   0.80370   0.39920   0.00000  Uiso   1.00
N252   N     0.18121   0.71000   0.37000   0.00000  Uiso   1.00
C253   C     0.93970   0.75830   0.98460   0.00000  Uiso   1.00
C254   C     0.85470   0.77580   0.23420   0.00000  Uiso   1.00
C255   C     0.86710   0.82890   0.13770   0.00000  Uiso   1.00
H256   H     0.84650   0.87190   0.15590   0.00000  Uiso   1.00
C257   C     0.90930   0.82090   0.01380   0.00000  Uiso   1.00
H258   H     0.91750   0.85830   0.94870   0.00000  Uiso   1.00
C259   C     0.88260   0.71220   0.20210   0.00000  Uiso   1.00
H260   H     0.87270   0.67440   0.26500   0.00000  Uiso   1.00
C261   C     0.92440   0.70400   0.07930   0.00000  Uiso   1.00
H262   H     0.94320   0.66040   0.05890   0.00000  Uiso   1.00
C263   C     0.75010   0.68820   0.67470   0.00000  Uiso   1.00
H264   H     0.75040   0.64600   0.62280   0.00000  Uiso   1.00
C265   C     0.76910   0.74740   0.60030   0.00000  Uiso   1.00
C266   C     0.76960   0.80950   0.67480   0.00000  Uiso   1.00
H267   H     0.78300   0.84980   0.62410   0.00000  Uiso   1.00
C268   C     0.79540   0.74000   0.44470   0.00000  Uiso   1.00
H269   H     0.79460   0.69630   0.39920   0.00000  Uiso   1.00
N270   N     0.81879   0.79000   0.37000   0.00000  Uiso   1.00
C271   C     0.43970   0.25830   0.48460   0.00000  Uiso   1.00
C272   C     0.35470   0.27580   0.73420   0.00000  Uiso   1.00
C273   C     0.36710   0.32890   0.63770   0.00000  Uiso   1.00
H274   H     0.34650   0.37190   0.65590   0.00000  Uiso   1.00
C275   C     0.40930   0.32090   0.51380   0.00000  Uiso   1.00
H276   H     0.41750   0.35830   0.44870   0.00000  Uiso   1.00
C277   C     0.38260   0.21220   0.70210   0.00000  Uiso   1.00
H278   H     0.37270   0.17440   0.76500   0.00000  Uiso   1.00
C279   C     0.42440   0.20400   0.57930   0.00000  Uiso   1.00
H280   H     0.44320   0.16040   0.55890   0.00000  Uiso   1.00
C281   C     0.25010   0.18820   0.17470   0.00000  Uiso   1.00
H282   H     0.25040   0.14600   0.12280   0.00000  Uiso   1.00
C283   C     0.26910   0.24740   0.10030   0.00000  Uiso   1.00
C284   C     0.26960   0.30950   0.17480   0.00000  Uiso   1.00
H285   H     0.28300   0.34980   0.12410   0.00000  Uiso   1.00
C286   C     0.29540   0.24000   0.94470   0.00000  Uiso   1.00
H287   H     0.29460   0.19630   0.89920   0.00000  Uiso   1.00
N288   N     0.31879   0.29000   0.87000   0.00000  Uiso   1.00
C289   C     0.50000   0.25000   0.37500   0.00000  Uiso   1.00
C290   C     0.00000   0.75000   0.87500   0.00000  Uiso   1.00
C291   C     0.50000   0.75000   0.62500   0.00000  Uiso   1.00
C292   C     0.00000   0.25000   0.12500   0.00000  Uiso   1.00
loop_
_geom_bond_atom_site_label_1
_geom_bond_atom_site_label_2
_geom_bond_distance
_geom_bond_site_symmetry_2
_ccdc_geom_bond_type
C1     C5      1.391   .     D
C1     C9      1.392   .     S
C1     C289    1.543   .     S
C2     C3      1.373   .     D
C2     C7      1.394   .     S
C2     N18     1.428   1_554 S
C3     H4      0.950   .     S
C3     C5      1.389   .     S
C5     H6      0.950   .     S
C7     H8      0.950   1_554 S
C7     C9      1.377   .     D
H8     C7      0.950   1_556 S
C9     H10     0.950   .     S
C11    H12     0.949   .     S
C11    C13     1.389   .     S
C11    C158    1.396   .     D
C13    C14     1.388   .     D
C13    C16     1.486   .     S
C14    H15     0.948   .     S
C14    C155    1.396   .     S
C16    H17     0.949   .     S
C16    N18     1.272   .     D
N18    C2      1.428   1_556 S
C19    C23     1.391   .     D
C19    C27     1.392   1_455 S
C19    C290    1.543   .     S
C20    C21     1.373   .     D
C20    C25     1.394   1_455 S
C20    N36     1.428   .     S
C21    H22     0.950   .     S
C21    C23     1.389   .     S
C23    H24     0.950   .     S
C25    C20     1.394   1_655 S
C25    H26     0.950   .     S
C25    C27     1.377   .     D
C27    C19     1.392   1_655 S
C27    H28     0.950   .     S
C29    H30     0.949   .     S
C29    C31     1.389   .     S
C29    C176    1.396   1_564 D
C31    C32     1.388   1_655 D
C31    C34     1.486   .     S
C32    C31     1.388   1_455 D
C32    H33     0.948   .     S
C32    C173    1.396   1_564 S
C34    H35     0.949   .     S
C34    N36     1.272   1_655 D
N36    C34     1.272   1_455 D
C37    C41     1.391   .     D
C37    C45     1.392   1_655 S
C37    C290    1.543   1_655 S
C38    C39     1.373   .     D
C38    C43     1.394   1_655 S
C38    N54     1.428   .     S
C39    H40     0.950   .     S
C39    C41     1.389   .     S
C41    H42     0.950   .     S
C43    C38     1.394   1_455 S
C43    H44     0.950   .     S
C43    C45     1.377   .     D
C45    C37     1.392   1_455 S
C45    H46     0.950   .     S
C47    H48     0.949   .     S
C47    C49     1.389   .     S
C47    C194    1.396   1_554 D
C49    C50     1.388   1_455 D
C49    C52     1.486   .     S
C50    C49     1.388   1_655 D
C50    H51     0.948   .     S
C50    C191    1.396   1_554 S
C52    H53     0.949   .     S
C52    N54     1.272   1_455 D
N54    C52     1.272   1_655 D
C55    C59     1.391   .     D
C55    C63     1.392   .     S
C55    C289    1.543   .     S
C56    C57     1.373   .     D
C56    C61     1.394   .     S
C56    N72     1.428   1_554 S
C57    H58     0.950   .     S
C57    C59     1.389   .     S
C59    H60     0.950   .     S
C61    H62     0.950   1_554 S
C61    C63     1.377   .     D
H62    C61     0.950   1_556 S
C63    H64     0.950   .     S
C65    H66     0.949   .     S
C65    C67     1.389   .     S
C65    C212    1.396   1_545 D
C67    C68     1.388   .     D
C67    C70     1.486   .     S
C68    H69     0.948   .     S
C68    C209    1.396   1_545 S
C70    H71     0.949   .     S
C70    N72     1.272   .     D
N72    C56     1.428   1_556 S
C73    C77     1.391   .     S
C73    C81     1.392   .     D
C73    C291    1.543   .     S
C74    C75     1.373   .     S
C74    C79     1.394   .     D
C74    N90     1.428   .     S
C75    H76     0.950   .     S
C75    C77     1.389   .     D
C77    H78     0.950   .     S
C79    H80     0.950   .     S
C79    C81     1.377   .     S
C81    H82     0.950   .     S
C83    H84     0.949   .     S
C83    C85     1.389   .     D
C83    C248    1.396   .     S
C85    C86     1.388   .     S
C85    C88     1.486   1_556 S
C86    H87     0.948   .     S
C86    C245    1.396   .     D
C88    C85     1.486   1_554 S
C88    H89     0.949   .     S
C88    N90     1.272   .     D
C91    C95     1.391   1_554 D
C91    C99     1.392   1_554 S
C91    C292    1.543   1_655 S
C92    C93     1.373   .     D
C92    C97     1.394   .     S
C92    N108    1.428   .     S
C93    H94     0.950   .     S
C93    C95     1.389   .     S
C95    C91     1.391   1_556 D
C95    H96     0.950   1_556 S
H96    C95     0.950   1_554 S
C97    H98     0.950   .     S
C97    C99     1.377   .     D
C99    C91     1.392   1_556 S
C99    H100    0.950   .     S
C101   H102    0.949   .     S
C101   C103    1.389   .     S
C101   C230    1.396   .     D
C103   C104    1.388   .     D
C103   C106    1.486   .     S
C104   H105    0.948   .     S
C104   C227    1.396   .     S
C106   H107    0.949   .     S
C106   N108    1.272   .     D
C109   C113    1.391   1_554 D
C109   C117    1.392   1_554 S
C109   C292    1.543   .     S
C110   C111    1.373   .     D
C110   C115    1.394   .     S
C110   N126    1.428   .     S
C111   H112    0.950   .     S
C111   C113    1.389   .     S
C113   C109    1.391   1_556 D
C113   H114    0.950   1_556 S
H114   C113    0.950   1_554 S
C115   H116    0.950   .     S
C115   C117    1.377   .     D
C117   C109    1.392   1_556 S
C117   H118    0.950   .     S
C119   H120    0.949   .     S
C119   C121    1.389   .     S
C119   C284    1.396   .     D
C121   C122    1.388   .     D
C121   C124    1.486   .     S
C122   H123    0.948   .     S
C122   C281    1.396   .     S
C124   H125    0.949   .     S
C124   N126    1.272   .     D
C127   C131    1.391   .     S
C127   C135    1.392   .     D
C127   C291    1.543   .     S
C128   C129    1.373   .     S
C128   C133    1.394   .     D
C128   N144    1.428   .     S
C129   H130    0.950   .     S
C129   C131    1.389   .     D
C131   H132    0.950   .     S
C133   H134    0.950   .     S
C133   C135    1.377   .     S
C135   H136    0.950   .     S
C137   H138    0.949   .     S
C137   C139    1.389   .     D
C137   C266    1.396   .     S
C139   C140    1.388   .     S
C139   C142    1.486   1_556 S
C140   H141    0.948   .     S
C140   C263    1.396   .     D
C142   C139    1.486   1_554 S
C142   H143    0.949   .     S
C142   N144    1.272   .     D
C145   C149    1.391   .     D
C145   C153    1.392   .     S
C145   C291    1.543   .     S
C146   C147    1.373   .     D
C146   C151    1.394   .     S
C146   N162    1.428   1_556 S
C147   H148    0.950   .     S
C147   C149    1.389   .     S
C149   H150    0.950   .     S
C151   H152    0.950   1_556 S
C151   C153    1.377   .     D
H152   C151    0.950   1_554 S
C153   H154    0.950   .     S
C155   H156    0.949   .     S
C155   C157    1.389   .     D
C157   C158    1.388   .     S
C157   C160    1.486   .     S
C158   H159    0.948   .     S
C160   H161    0.949   .     S
C160   N162    1.272   .     D
N162   C146    1.428   1_554 S
C163   C167    1.391   .     D
C163   C171    1.392   1_655 S
C163   C292    1.543   1_655 S
C164   C165    1.373   .     D
C164   C169    1.394   1_655 S
C164   N180    1.428   .     S
C165   H166    0.950   .     S
C165   C167    1.389   .     S
C167   H168    0.950   .     S
C169   C164    1.394   1_455 S
C169   H170    0.950   .     S
C169   C171    1.377   .     D
C171   C163    1.392   1_455 S
C171   H172    0.950   .     S
C173   C32     1.396   1_546 S
C173   H174    0.949   .     S
C173   C175    1.389   .     D
C175   C176    1.388   1_455 S
C175   C178    1.486   .     S
C176   C175    1.388   1_655 S
C176   C29     1.396   1_546 D
C176   H177    0.948   .     S
C178   H179    0.949   .     S
C178   N180    1.272   1_455 D
N180   C178    1.272   1_655 D
C181   C185    1.391   .     D
C181   C189    1.392   1_455 S
C181   C292    1.543   .     S
C182   C183    1.373   .     D
C182   C187    1.394   1_455 S
C182   N198    1.428   .     S
C183   H184    0.950   .     S
C183   C185    1.389   .     S
C185   H186    0.950   .     S
C187   C182    1.394   1_655 S
C187   H188    0.950   .     S
C187   C189    1.377   .     D
C189   C181    1.392   1_655 S
C189   H190    0.950   .     S
C191   C50     1.396   1_556 S
C191   H192    0.949   .     S
C191   C193    1.389   .     D
C193   C194    1.388   1_655 S
C193   C196    1.486   .     S
C194   C193    1.388   1_455 S
C194   C47     1.396   1_556 D
C194   H195    0.948   .     S
C196   H197    0.949   .     S
C196   N198    1.272   1_655 D
N198   C196    1.272   1_455 D
C199   C203    1.391   .     D
C199   C207    1.392   .     S
C199   C291    1.543   .     S
C200   C201    1.373   .     D
C200   C205    1.394   .     S
C200   N216    1.428   1_556 S
C201   H202    0.950   .     S
C201   C203    1.389   .     S
C203   H204    0.950   .     S
C205   H206    0.950   1_556 S
C205   C207    1.377   .     D
H206   C205    0.950   1_554 S
C207   H208    0.950   .     S
C209   C68     1.396   1_565 S
C209   H210    0.949   .     S
C209   C211    1.389   .     D
C211   C212    1.388   .     S
C211   C214    1.486   .     S
C212   C65     1.396   1_565 D
C212   H213    0.948   .     S
C214   H215    0.949   .     S
C214   N216    1.272   .     D
N216   C200    1.428   1_554 S
C217   C221    1.391   .     D
C217   C225    1.392   .     S
C217   C289    1.543   .     S
C218   C219    1.373   .     D
C218   C223    1.394   .     S
C218   N234    1.428   .     S
C219   H220    0.950   .     S
C219   C221    1.389   .     S
C221   H222    0.950   .     S
C223   H224    0.950   .     S
C223   C225    1.377   .     D
C225   H226    0.950   .     S
C227   H228    0.949   .     S
C227   C229    1.389   .     D
C229   C230    1.388   .     S
C229   C232    1.486   1_554 S
C230   H231    0.948   .     S
C232   C229    1.486   1_556 S
C232   H233    0.949   .     S
C232   N234    1.272   .     D
C235   C239    1.391   1_556 S
C235   C243    1.392   1_556 D
C235   C290    1.543   .     S
C236   C237    1.373   .     S
C236   C241    1.394   .     D
C236   N252    1.428   .     S
C237   H238    0.950   .     S
C237   C239    1.389   .     D
C239   C235    1.391   1_554 S
C239   H240    0.950   1_554 S
H240   C239    0.950   1_556 S
C241   H242    0.950   .     S
C241   C243    1.377   .     S
C243   C235    1.392   1_554 D
C243   H244    0.950   .     S
C245   H246    0.949   .     S
C245   C247    1.389   .     S
C247   C248    1.388   .     D
C247   C250    1.486   .     S
C248   H249    0.948   .     S
C250   H251    0.949   .     S
C250   N252    1.272   .     D
C253   C257    1.391   1_556 S
C253   C261    1.392   1_556 D
C253   C290    1.543   1_655 S
C254   C255    1.373   .     S
C254   C259    1.394   .     D
C254   N270    1.428   .     S
C255   H256    0.950   .     S
C255   C257    1.389   .     D
C257   C253    1.391   1_554 S
C257   H258    0.950   1_554 S
H258   C257    0.950   1_556 S
C259   H260    0.950   .     S
C259   C261    1.377   .     S
C261   C253    1.392   1_554 D
C261   H262    0.950   .     S
C263   H264    0.949   .     S
C263   C265    1.389   .     S
C265   C266    1.388   .     D
C265   C268    1.486   .     S
C266   H267    0.948   .     S
C268   H269    0.949   .     S
C268   N270    1.272   .     D
C271   C275    1.391   .     D
C271   C279    1.392   .     S
C271   C289    1.543   .     S
C272   C273    1.373   .     D
C272   C277    1.394   .     S
C272   N288    1.428   .     S
C273   H274    0.950   .     S
C273   C275    1.389   .     S
C275   H276    0.950   .     S
C277   H278    0.950   .     S
C277   C279    1.377   .     D
C279   H280    0.950   .     S
C281   H282    0.949   .     S
C281   C283    1.389   .     D
C283   C284    1.388   .     S
C283   C286    1.486   1_554 S
C284   H285    0.948   .     S
C286   C283    1.486   1_556 S
C286   H287    0.949   .     S
C286   N288    1.272   .     D
C290   C253    1.543   1_455 S
C290   C37     1.543   1_455 S
C292   C91     1.543   1_455 S
C292   C163    1.543   1_455 S
