data_1080
_audit_creation_date              2023-09-08
_audit_creation_method            'Materials Studio'
_symmetry_space_group_name_H-M    'P1'
_symmetry_Int_Tables_number       1
_symmetry_cell_setting            triclinic
loop_
_symmetry_equiv_pos_as_xyz
  x,y,z
_cell_length_a                    22.6557
_cell_length_b                    22.7056
_cell_length_c                    7.1394
_cell_angle_alpha                 91.1507
_cell_angle_beta                  88.8723
_cell_angle_gamma                 60.2294
loop_
_atom_site_label
_atom_site_type_symbol
_atom_site_fract_x
_atom_site_fract_y
_atom_site_fract_z
_atom_site_U_iso_or_equiv
_atom_site_adp_type
_atom_site_occupancy
C1     C     0.02975   0.04071   0.01384   0.00000  Uiso   1.00
C2     C     0.95808   0.07086   0.01721   0.00000  Uiso   1.00
C3     C     0.92787   0.02951   0.00923   0.00000  Uiso   1.00
C4     C     0.96965   0.95736   0.00340   0.00000  Uiso   1.00
C5     C     0.04082   0.92822   0.01163   0.00000  Uiso   1.00
C6     C     0.07120   0.96973   0.02060   0.00000  Uiso   1.00
C7     C     0.05621   0.08737   0.98088   0.00000  Uiso   1.00
C8     C     0.85495   0.05447   0.99839   0.00000  Uiso   1.00
C9     C     0.08838   0.85457  -0.01525   0.00000  Uiso   1.00
C10    C     0.73696   0.13825   0.99146   0.00000  Uiso   1.00
C11    C     0.69452   0.21009   0.98198   0.00000  Uiso   1.00
C12    C     0.70614   0.09635   0.98976   0.00000  Uiso   1.00
C13    C     0.62367   0.23993   0.96830   0.00000  Uiso   1.00
C14    C     0.63520   0.12654   0.97886   0.00000  Uiso   1.00
C15    C     0.59368   0.19807   0.97064   0.00000  Uiso   1.00
C16    C     0.13691   0.12564   0.00941   0.00000  Uiso   1.00
C17    C     0.20890   0.09526   0.99963   0.00000  Uiso   1.00
C18    C     0.09545   0.19767   1.01047   0.00000  Uiso   1.00
C19    C     0.23995   0.13543   1.00346   0.00000  Uiso   1.00
C20    C     0.12669   0.23781   0.02191   0.00000  Uiso   1.00
C21    C     0.19874   0.20720   0.01776   0.00000  Uiso   1.00
C22    C     0.12640   0.73762   1.02211   0.00000  Uiso   1.00
C23    C     0.09617   0.69584   0.01555   0.00000  Uiso   1.00
C24    C     0.19827   0.70782   1.00228   0.00000  Uiso   1.00
C25    C     0.13642   0.62532   0.98464   0.00000  Uiso   1.00
C26    C     0.23861   0.63694   0.97873   0.00000  Uiso   1.00
C27    C     0.20834   0.59516   0.97391   0.00000  Uiso   1.00
C28    C     0.24461   0.48030   1.03343   0.00000  Uiso   1.00
C29    C     0.37511   0.26366   0.00333   0.00000  Uiso   1.00
C30    C     0.27669   0.24645   0.95411   0.00000  Uiso   1.00
C31    C     0.47839   0.27606   0.04502   0.00000  Uiso   1.00
C32    C     0.36285   0.37727   0.02912   0.00000  Uiso   1.00
C33    C     0.29178   0.40614   0.01452   0.00000  Uiso   1.00
C34    C     0.30395   0.29317  -0.01324   0.00000  Uiso   1.00
C35    C     0.26206   0.36432  -0.00702   0.00000  Uiso   1.00
C36    C     0.40439   0.30560   0.02238   0.00000  Uiso   1.00
C37    C     0.25241   0.01906   0.98101   0.00000  Uiso   1.00
C38    C     0.72489   0.25599  -0.01165   0.00000  Uiso   1.00
C39    C     0.02013   0.72701   0.03961   0.00000  Uiso   1.00
C40    C     0.91597   0.14670   0.03829   0.00000  Uiso   1.00
C41    C     0.93768   0.91331  -0.01838   0.00000  Uiso   1.00
C42    C     0.14681   0.93724   0.03857   0.00000  Uiso   1.00
C43    C     0.74644   0.02008   1.00074   0.00000  Uiso   1.00
C44    C     0.58186   0.31553   0.94370   0.00000  Uiso   1.00
C45    C     0.01912   0.23105   1.00502   0.00000  Uiso   1.00
C46    C     0.31638   0.10085   1.00785   0.00000  Uiso   1.00
C47    C     0.23277   0.74994   1.01296   0.00000  Uiso   1.00
C48    C     0.10124   0.58456   0.95275   0.00000  Uiso   1.00
C49    C     0.41766   0.18796   0.01742   0.00000  Uiso   1.00
C50    C     0.08552   0.31416   0.03843   0.00000  Uiso   1.00
C51    C     0.39505   0.42106   0.05087   0.00000  Uiso   1.00
C52    C     0.31499   0.60464   0.96080   0.00000  Uiso   1.00
C53    C     0.60140   0.08359   0.97891   0.00000  Uiso   1.00
C54    C     0.18673   0.39729  -0.03457   0.00000  Uiso   1.00
C55    C     0.96995   0.95955   0.49433   0.00000  Uiso   1.00
C56    C     0.04140   0.92893   0.50671   0.00000  Uiso   1.00
C57    C     0.07174   0.96998   0.52118   0.00000  Uiso   1.00
C58    C     0.03103   0.04179   0.52342   0.00000  Uiso   1.00
C59    C     0.95961   0.07172   0.51950   0.00000  Uiso   1.00
C60    C     0.92877   0.03071   0.50357   0.00000  Uiso   1.00
C61    C     0.94277   0.91319   0.46172   0.00000  Uiso   1.00
C62    C     0.14533   0.94110   0.54336   0.00000  Uiso   1.00
C63    C     0.91255   0.14555   0.54162   0.00000  Uiso   1.00
C64    C     0.26127   0.86041   0.48169   0.00000  Uiso   1.00
C65    C     0.30305   0.78871   0.47984   0.00000  Uiso   1.00
C66    C     0.29146   0.90253   0.48361   0.00000  Uiso   1.00
C67    C     0.37431   0.75846   0.47895   0.00000  Uiso   1.00
C68    C     0.36253   0.87211   0.49000   0.00000  Uiso   1.00
C69    C     0.40434   0.80039   0.48354   0.00000  Uiso   1.00
C70    C     0.86268   0.87600   0.51401   0.00000  Uiso   1.00
C71    C     0.79092   0.90570   0.50743   0.00000  Uiso   1.00
C72    C     0.90447   0.80421   0.51397   0.00000  Uiso   1.00
C73    C     0.76076   0.86465   0.49318   0.00000  Uiso   1.00
C74    C     0.87404   0.76341   0.50734   0.00000  Uiso   1.00
C75    C     0.80222   0.79275   0.49783   0.00000  Uiso   1.00
C76    C     0.87657   0.26156   0.48729   0.00000  Uiso   1.00
C77    C     0.90636   0.30380   0.48339   0.00000  Uiso   1.00
C78    C     0.80435   0.29129   0.48932   0.00000  Uiso   1.00
C79    C     0.86537   0.37478   0.48274   0.00000  Uiso   1.00
C80    C     0.76366   0.36228   0.49593   0.00000  Uiso   1.00
C81    C     0.79358   0.40431   0.49035   0.00000  Uiso   1.00
C82    C     0.75376   0.52135   0.55550   0.00000  Uiso   1.00
C83    C     0.62405   0.73644   0.49769   0.00000  Uiso   1.00
C84    C     0.72299   0.75295   0.44810   0.00000  Uiso   1.00
C85    C     0.51991   0.72384   0.54645   0.00000  Uiso   1.00
C86    C     0.63647   0.62339   0.52573   0.00000  Uiso   1.00
C87    C     0.70796   0.59484   0.52731   0.00000  Uiso   1.00
C88    C     0.69580   0.70689   0.48798   0.00000  Uiso   1.00
C89    C     0.73789   0.63644   0.51079   0.00000  Uiso   1.00
C90    C     0.59436   0.69481   0.51832   0.00000  Uiso   1.00
C91    C     0.74743   0.98201   0.51641   0.00000  Uiso   1.00
C92    C     0.27053   0.74474   0.48035   0.00000  Uiso   1.00
C93    C     0.98266   0.27226   0.47996   0.00000  Uiso   1.00
C94    C     0.08264   0.85324   0.51664   0.00000  Uiso   1.00
C95    C     0.06467   0.08445   0.52478   0.00000  Uiso   1.00
C96    C     0.85325   0.06450   0.48139   0.00000  Uiso   1.00
C97    C     0.24975   0.97835   0.46206   0.00000  Uiso   1.00
C98    C     0.41681   0.68214   0.46459   0.00000  Uiso   1.00
C99    C     0.98013   0.77137   0.53809   0.00000  Uiso   1.00
C100   C     0.68453   0.89830   0.48246   0.00000  Uiso   1.00
C101   C     0.77123   0.24818   0.46579   0.00000  Uiso   1.00
C102   C     0.89873   0.41766   0.46307   0.00000  Uiso   1.00
C103   C     0.58107   0.81250   0.50353   0.00000  Uiso   1.00
C104   C     0.91803   0.68733   0.50775   0.00000  Uiso   1.00
C105   C     0.60559   0.57820   0.52999   0.00000  Uiso   1.00
C106   C     0.68718   0.39648   0.51098   0.00000  Uiso   1.00
C107   C     0.39648   0.91459   0.50654   0.00000  Uiso   1.00
C108   C     0.81396   0.60566   0.50667   0.00000  Uiso   1.00
H1     H     0.84429   0.01326   0.98185   0.00000  Uiso   1.00
H2     H     0.13106   0.84264   0.88658   0.00000  Uiso   1.00
H3     H     0.49355   0.30108   1.15247   0.00000  Uiso   1.00
H4     H     0.02362   0.12886   0.89066   0.00000  Uiso   1.00
H5     H     0.20076   0.49525   1.13133   0.00000  Uiso   1.00
H6     H     0.30409   0.20691   0.84303   0.00000  Uiso   1.00
H7     H     0.15941   0.97054   0.63785   0.00000  Uiso   1.00
H8     H     0.86707   0.15878   0.63003   0.00000  Uiso   1.00
H9     H     0.50480   0.69920   0.65382   0.00000  Uiso   1.00
H10    H     0.97357   0.87075   0.36164   0.00000  Uiso   1.00
H11    H     0.79310   0.50963   0.65981   0.00000  Uiso   1.00
H12    H     0.69302   0.79236   0.34829   0.00000  Uiso   1.00
H13    H     0.97655   0.85989  -0.02713   0.00000  Uiso   1.00
H14    H     0.90751   0.92543   0.85492   0.00000  Uiso   1.00
H15    H     0.90359   0.91979   0.10189   0.00000  Uiso   1.00
H16    H     0.17366   0.92660   0.90098   0.00000  Uiso   1.00
H17    H     0.16725   0.88958   0.11173   0.00000  Uiso   1.00
H18    H     0.15922   0.97096   0.11810   0.00000  Uiso   1.00
H19    H     0.86660   0.16106   0.10414   0.00000  Uiso   1.00
H20    H     0.90538   0.17153   0.90232   0.00000  Uiso   1.00
H21    H     0.94136   0.16717   0.12477   0.00000  Uiso   1.00
H22    H     0.09652   0.82853   0.37609   0.00000  Uiso   1.00
H23    H     0.05444   0.83301   0.59193   0.00000  Uiso   1.00
H24    H     0.12993   0.83813   0.58805   0.00000  Uiso   1.00
H25    H     0.83884   0.02907   0.42138   0.00000  Uiso   1.00
H26    H     0.83568   0.10752   0.38902   0.00000  Uiso   1.00
H27    H     0.82515   0.08362   0.61685   0.00000  Uiso   1.00
H28    H     0.08273   0.08645   0.38185   0.00000  Uiso   1.00
H29    H     0.10901   0.06439   0.61354   0.00000  Uiso   1.00
H30    H     0.02897   0.13651   0.57148   0.00000  Uiso   1.00
H31    H     0.43986   0.16242   0.88067   0.00000  Uiso   1.00
H32    H     0.38745   0.16669   0.07471   0.00000  Uiso   1.00
H33    H     0.46015   0.17479   0.10977   0.00000  Uiso   1.00
H34    H     0.41474   0.42705   0.91451   0.00000  Uiso   1.00
H35    H     0.43818   0.39899   0.14421   0.00000  Uiso   1.00
H36    H     0.35832   0.47197   0.10486   0.00000  Uiso   1.00
H37    H     0.17207   0.36045  -0.08102   0.00000  Uiso   1.00
H38    H     0.17063   0.43703   0.86184   0.00000  Uiso   1.00
H39    H     0.15738   0.42165   0.09662   0.00000  Uiso   1.00
H40    H     0.78056  -0.00405   0.87716   0.00000  Uiso   1.00
H41    H     0.71317   0.99807   1.00890   0.00000  Uiso   1.00
H42    H     0.77814   1.00395   0.12457   0.00000  Uiso   1.00
H43    H     0.56661   0.34445   0.07868   0.00000  Uiso   1.00
H44    H     0.53516   0.32907   0.86936   0.00000  Uiso   1.00
H45    H     0.61093   0.33402   0.86401   0.00000  Uiso   1.00
H46    H     0.99855   0.20971   0.10663   0.00000  Uiso   1.00
H47    H     0.00251   0.22475   0.86605   0.00000  Uiso   1.00
H48    H     0.99411   0.28573   1.03484   0.00000  Uiso   1.00
H49    H     0.34059   0.09596   0.86874   0.00000  Uiso   1.00
H50    H     0.33801   0.04948   0.06051   0.00000  Uiso   1.00
H51    H     0.33218   0.12930   0.10000   0.00000  Uiso   1.00
H52    H     0.23281   0.77299   0.87889   0.00000  Uiso   1.00
H53    H     0.28606   0.71950   1.05013   0.00000  Uiso   1.00
H54    H     0.20772   0.79141   0.11868   0.00000  Uiso   1.00
H55    H     0.08950   0.56690   0.08356   0.00000  Uiso   1.00
H56    H     0.13273   0.53946   0.86278   0.00000  Uiso   1.00
H57    H     0.05273   0.61494   0.88434   0.00000  Uiso   1.00
H58    H     0.23078   0.00712   0.59637   0.00000  Uiso   1.00
H59    H     0.20526   0.99196   0.37703   0.00000  Uiso   1.00
H60    H     0.27969  -0.00223   0.39186   0.00000  Uiso   1.00
H61    H     0.46411   0.66566   0.38209   0.00000  Uiso   1.00
H62    H     0.38909   0.65968   0.39807   0.00000  Uiso   1.00
H63    H     0.43102   0.65947   0.60312   0.00000  Uiso   1.00
H64    H     0.00888   0.76603   0.40719   0.00000  Uiso   1.00
H65    H     0.00111   0.72033   0.59233   0.00000  Uiso   1.00
H66    H     0.99164   0.80141   0.63766   0.00000  Uiso   1.00
H67    H     0.66365   0.87514   0.57694   0.00000  Uiso   1.00
H68    H     0.66859   0.89419   0.34039   0.00000  Uiso   1.00
H69    H     0.65970   0.95248   0.51993   0.00000  Uiso   1.00
H70    H     0.76336   0.22845   0.59771   0.00000  Uiso   1.00
H71    H     0.80255   0.20418   0.37199   0.00000  Uiso   1.00
H72    H     0.72161   0.27641   0.40236   0.00000  Uiso   1.00
H73    H     0.86793   0.46210   0.37954   0.00000  Uiso   1.00
H74    H     0.94907   0.38908   0.39336   0.00000  Uiso   1.00
H75    H     0.90635   0.43617   0.59924   0.00000  Uiso   1.00
H76    H     0.53132   0.82857   0.56934   0.00000  Uiso   1.00
H77    H     0.57121   0.83366   0.36276   0.00000  Uiso   1.00
H78    H     0.60578   0.83563   0.58252   0.00000  Uiso   1.00
H79    H     0.63144   0.53723   0.62789   0.00000  Uiso   1.00
H80    H     0.61211   0.55308   0.39173   0.00000  Uiso   1.00
H81    H     0.55122   0.60570   0.56688   0.00000  Uiso   1.00
H82    H     0.83068   0.62372   0.38629   0.00000  Uiso   1.00
H83    H     0.84059   0.55034   0.49629   0.00000  Uiso   1.00
H84    H     0.83045   0.62164   0.63196   0.00000  Uiso   1.00
H85    H     0.28606   0.00375   0.85491   0.00000  Uiso   1.00
H86    H     0.22104   0.99510  -0.02818   0.00000  Uiso   1.00
H87    H     0.28569  -0.00247   0.10023   0.00000  Uiso   1.00
H88    H     0.71931   0.28173   0.85544   0.00000  Uiso   1.00
H89    H     0.77900   0.22743   0.01603   0.00000  Uiso   1.00
H90    H     0.69916   0.29646   0.09713   0.00000  Uiso   1.00
H91    H     0.00655   0.69551   0.12488   0.00000  Uiso   1.00
H92    H     0.99529   0.73329   0.90474   0.00000  Uiso   1.00
H93    H     0.99790   0.77744   0.10745   0.00000  Uiso   1.00
H94    H     0.03748   0.33223   0.11833   0.00000  Uiso   1.00
H95    H     0.07272   0.33739   0.90022   0.00000  Uiso   1.00
H96    H     0.11528   0.33352   0.10902   0.00000  Uiso   1.00
H97    H     0.33050   0.62902   0.85423   0.00000  Uiso   1.00
H98    H     0.33782   0.55073  -0.07804   0.00000  Uiso   1.00
H99    H     0.33683   0.60887   0.09371   0.00000  Uiso   1.00
H100   H     0.60815   0.05752   0.11194   0.00000  Uiso   1.00
H101   H     0.62226   0.04412   0.86617   0.00000  Uiso   1.00
H102   H     0.54697   0.11528  -0.04121   0.00000  Uiso   1.00
H103   H     0.70482   0.99944   0.61885   0.00000  Uiso   1.00
H104   H     0.72526   0.00242   0.38082   0.00000  Uiso   1.00
H105   H     0.77783   0.00505   0.55732   0.00000  Uiso   1.00
H106   H     0.28146   0.71540   0.60843   0.00000  Uiso   1.00
H107   H     0.28910   0.70765   0.36197   0.00000  Uiso   1.00
H108   H     0.21546   0.77566   0.47061   0.00000  Uiso   1.00
H109   H     1.00129   0.29099   0.36555   0.00000  Uiso   1.00
H110   H     0.00721   0.21725   0.46039   0.00000  Uiso   1.00
H111   H     1.00043   0.28394   0.61053   0.00000  Uiso   1.00
H112   H     0.95329   0.66813   0.38453   0.00000  Uiso   1.00
H113   H     0.88665   0.66331   0.50578   0.00000  Uiso   1.00
H114   H     0.94943   0.67043   0.63229   0.00000  Uiso   1.00
H115   H     0.66922   0.36140   0.54845   0.00000  Uiso   1.00
H116   H     0.66385   0.42037   0.37919   0.00000  Uiso   1.00
H117   H     0.66713   0.43731   0.61918   0.00000  Uiso   1.00
H118   H     0.42074   0.91599   0.37263   0.00000  Uiso   1.00
H119   H     0.43686   0.89338   0.60849   0.00000  Uiso   1.00
H120   H     0.36080   0.96688   0.55422   0.00000  Uiso   1.00
N1     N     0.80623   0.11711   1.00312   0.00000  Uiso   1.00
N2     N     0.08120   0.80716   1.05846   0.00000  Uiso   1.00
N3     N     0.11252   0.08056   0.03943   0.00000  Uiso   1.00
N4     N     0.25343   0.52494  -0.05111   0.00000  Uiso   1.00
N5     N     0.22459   0.25159   0.04385   0.00000  Uiso   1.00
N6     N     0.52359   0.22367   0.95025   0.00000  Uiso   1.00
N7     N     0.19134   0.88516   0.46340   0.00000  Uiso   1.00
N8     N     0.92255   0.19156   0.46977   0.00000  Uiso   1.00
N9     N     0.88746   0.92122   0.53986   0.00000  Uiso   1.00
N10    N     0.74830   0.47397   0.47052   0.00000  Uiso   1.00
N11    N     0.77697   0.74783   0.51961   0.00000  Uiso   1.00
N12    N     0.47478   0.77518   0.46022   0.00000  Uiso   1.00
loop_
_geom_bond_atom_site_label_1
_geom_bond_atom_site_label_2
_geom_bond_distance
_geom_bond_site_symmetry_2
_ccdc_geom_bond_type
C1     C2      1.414   1_455 D
C1     C6      1.408   1_545 S
C1     C7      1.474   1_554 S
C2     C3      1.411   .     S
C2     C40     1.500   .     S
C2     C1      1.414   1_655 D
C3     C4      1.427   1_545 D
C3     C8      1.461   1_554 S
C4     C41     1.506   .     S
C4     C3      1.427   1_565 D
C4     C5      1.410   1_655 S
C5     C6      1.418   .     D
C5     C9      1.478   .     S
C5     C4      1.410   1_455 S
C6     C42     1.501   .     S
C6     C1      1.408   1_565 S
C7     H4      1.095   .     S
C7     C1      1.474   1_556 S
C7     N3      1.286   1_556 D
C8     N1      1.296   .     D
C8     H1      1.081   .     S
C8     C3      1.461   1_556 S
C9     H2      1.098   1_554 S
C9     N2      1.287   1_554 D
C10    C11     1.428   .     S
C10    C12     1.433   .     D
C10    N1      1.400   .     S
C11    C13     1.405   .     D
C11    C38     1.508   1_556 S
C12    C14     1.404   .     S
C12    C43     1.509   .     S
C13    C15     1.417   .     S
C13    C44     1.510   .     S
C14    C15     1.419   .     D
C14    C53     1.510   .     S
C15    N6      1.406   .     S
C16    N3      1.402   .     S
C16    C17     1.420   1_554 S
C16    C18     1.425   1_554 D
C17    C19     1.402   .     D
C17    C37     1.508   .     S
C17    C16     1.420   1_556 S
C18    C45     1.506   .     S
C18    C16     1.425   1_556 D
C18    C20     1.406   1_556 S
C19    C46     1.506   .     S
C19    C21     1.420   1_556 S
C20    C21     1.421   .     D
C20    C50     1.507   .     S
C20    C18     1.406   1_554 S
C21    N5      1.406   .     S
C21    C19     1.420   1_554 S
C22    N2      1.406   .     S
C22    C24     1.422   .     S
C22    C23     1.420   1_556 D
C23    C39     1.507   .     S
C23    C22     1.420   1_554 D
C23    C25     1.404   1_554 S
C24    C47     1.508   .     S
C24    C26     1.406   .     D
C25    C48     1.508   .     S
C25    C27     1.419   .     D
C25    C23     1.404   1_556 S
C26    C52     1.509   .     S
C26    C27     1.420   .     S
C27    N4      1.408   1_556 S
C28    H5      1.104   .     S
C28    C33     1.481   1_556 S
C28    N4      1.286   1_556 D
C29    C49     1.503   .     S
C29    C36     1.411   .     D
C29    C34     1.414   .     S
C30    H6      1.104   .     S
C30    C34     1.486   1_556 S
C30    N5      1.284   1_556 D
C31    C36     1.478   .     S
C31    H3      1.103   1_554 S
C31    N6      1.285   1_554 D
C32    C51     1.504   .     S
C32    C33     1.412   .     D
C32    C36     1.418   .     S
C33    C35     1.418   .     S
C33    C28     1.481   1_554 S
C34    C35     1.409   .     D
C34    C30     1.486   1_554 S
C35    C54     1.504   .     S
C37    H85     1.100   .     S
C37    H86     1.091   1_546 S
C37    H87     1.099   1_556 S
C38    H90     1.100   .     S
C38    H89     1.090   .     S
C38    C11     1.508   1_554 S
C38    H88     1.101   1_554 S
C39    H91     1.098   .     S
C39    H92     1.101   1_454 S
C39    H93     1.093   1_455 S
C40    H19     1.091   .     S
C40    H21     1.094   .     S
C40    H20     1.102   1_554 S
C41    H13     1.088   .     S
C41    H15     1.101   .     S
C41    H14     1.099   1_554 S
C42    H18     1.091   .     S
C42    H17     1.092   .     S
C42    H16     1.102   1_554 S
C43    H40     1.100   .     S
C43    H41     1.093   1_545 S
C43    H42     1.099   1_546 S
C44    H44     1.096   .     S
C44    H45     1.097   .     S
C44    H43     1.102   1_556 S
C45    H47     1.100   .     S
C45    H46     1.097   1_456 S
C45    H48     1.093   1_455 S
C46    H49     1.101   .     S
C46    H50     1.095   1_556 S
C46    H51     1.095   1_556 S
C47    H53     1.094   .     S
C47    H52     1.100   .     S
C47    H54     1.096   1_556 S
C48    H57     1.097   .     S
C48    H56     1.096   .     S
C48    H55     1.102   1_556 S
C49    H32     1.093   .     S
C49    H33     1.094   .     S
C49    H31     1.100   1_554 S
C50    H96     1.096   .     S
C50    H94     1.096   .     S
C50    H95     1.103   1_554 S
C51    H35     1.097   .     S
C51    H36     1.092   .     S
C51    H34     1.102   1_554 S
C52    H97     1.099   .     S
C52    H98     1.093   1_556 S
C52    H99     1.103   1_556 S
C53    H101    1.100   .     S
C53    H100    1.102   1_556 S
C53    H102    1.090   1_556 S
C54    H37     1.090   .     S
C54    H39     1.102   .     S
C54    H38     1.098   1_554 S
C55    C61     1.477   .     S
C55    C56     1.415   1_655 D
C55    C60     1.408   1_565 S
C56    C57     1.410   .     S
C56    C94     1.498   .     S
C56    C55     1.415   1_455 D
C57    C62     1.471   .     S
C57    C58     1.419   1_565 D
C58    C95     1.501   .     S
C58    C57     1.419   1_545 D
C58    C59     1.411   1_455 S
C59    C60     1.419   .     D
C59    C63     1.476   .     S
C59    C58     1.411   1_655 S
C60    C96     1.501   .     S
C60    C55     1.408   1_545 S
C61    H10     1.100   .     S
C61    N9      1.287   .     D
C62    H7      1.098   .     S
C62    N7      1.288   .     D
C63    H8      1.100   .     S
C63    N8      1.288   .     D
C64    N7      1.404   .     S
C64    C66     1.426   .     S
C64    C65     1.419   .     D
C65    C92     1.507   .     S
C65    C67     1.406   .     S
C66    C68     1.404   .     D
C66    C97     1.510   .     S
C67    C69     1.419   .     D
C67    C98     1.507   .     S
C68    C69     1.419   .     S
C68    C107    1.507   .     S
C69    N12     1.407   .     S
C70    C71     1.420   .     D
C70    N9      1.404   .     S
C70    C72     1.422   .     S
C71    C91     1.508   .     S
C71    C73     1.406   .     S
C72    C74     1.403   .     D
C72    C99     1.507   .     S
C73    C100    1.506   .     S
C73    C75     1.424   .     D
C74    C75     1.423   .     S
C74    C104    1.506   .     S
C75    N11     1.405   .     S
C76    N8      1.403   .     S
C76    C78     1.426   .     S
C76    C77     1.421   .     D
C77    C79     1.405   .     S
C77    C93     1.507   .     S
C78    C80     1.403   .     D
C78    C101    1.509   .     S
C79    C81     1.418   .     D
C79    C102    1.507   .     S
C80    C81     1.419   .     S
C80    C106    1.507   .     S
C81    N10     1.406   .     S
C82    H11     1.104   .     S
C82    C87     1.485   .     S
C82    N10     1.284   .     D
C83    C103    1.503   .     S
C83    C90     1.414   .     S
C83    C88     1.417   .     D
C84    H12     1.100   .     S
C84    C88     1.483   .     S
C84    N11     1.287   .     D
C85    H9      1.102   .     S
C85    C90     1.482   .     S
C85    N12     1.286   .     D
C86    C87     1.415   .     S
C86    C105    1.502   .     S
C86    C90     1.418   .     D
C87    C89     1.415   .     D
C88    C89     1.413   .     S
C89    C108    1.504   .     S
C91    H103    1.098   .     S
C91    H104    1.100   1_565 S
C91    H105    1.092   1_565 S
C92    H108    1.091   .     S
C92    H107    1.098   .     S
C92    H106    1.100   .     S
C93    H109    1.098   .     S
C93    H111    1.101   .     S
C93    H110    1.090   1_655 S
C94    H23     1.094   .     S
C94    H24     1.090   .     S
C94    H22     1.100   .     S
C95    H29     1.096   .     S
C95    H30     1.089   .     S
C95    H28     1.102   .     S
C96    H25     1.091   .     S
C96    H26     1.094   .     S
C96    H27     1.102   .     S
C97    H59     1.096   .     S
C97    H58     1.100   1_565 S
C97    H60     1.095   1_565 S
C98    H62     1.095   .     S
C98    H61     1.097   .     S
C98    H63     1.102   .     S
C99    H66     1.097   .     S
C99    H64     1.098   1_655 S
C99    H65     1.094   1_655 S
C100   H68     1.101   .     S
C100   H69     1.093   .     S
C100   H67     1.097   .     S
C101   H71     1.096   .     S
C101   H72     1.094   .     S
C101   H70     1.100   .     S
C102   H74     1.095   .     S
C102   H73     1.096   .     S
C102   H75     1.102   .     S
C103   H76     1.090   .     S
C103   H78     1.095   .     S
C103   H77     1.101   .     S
C104   H114    1.101   .     S
C104   H113    1.090   .     S
C104   H112    1.101   .     S
C105   H81     1.092   .     S
C105   H79     1.095   .     S
C105   H80     1.100   .     S
C106   H117    1.096   .     S
C106   H115    1.094   .     S
C106   H116    1.102   .     S
C107   H120    1.095   .     S
C107   H119    1.096   .     S
C107   H118    1.102   .     S
C108   H84     1.098   .     S
C108   H82     1.098   .     S
C108   H83     1.090   .     S
H2     C9      1.098   1_556 S
H3     C31     1.103   1_556 S
H14    C41     1.099   1_556 S
H16    C42     1.102   1_556 S
H20    C40     1.102   1_556 S
H31    C49     1.100   1_556 S
H34    C51     1.102   1_556 S
H38    C54     1.098   1_556 S
H41    C43     1.093   1_565 S
H42    C43     1.099   1_564 S
H43    C44     1.102   1_554 S
H46    C45     1.097   1_654 S
H48    C45     1.093   1_655 S
H50    C46     1.095   1_554 S
H51    C46     1.095   1_554 S
H54    C47     1.096   1_554 S
H55    C48     1.102   1_554 S
H58    C97     1.100   1_545 S
H60    C97     1.095   1_545 S
H64    C99     1.098   1_455 S
H65    C99     1.094   1_455 S
H86    C37     1.091   1_564 S
H87    C37     1.099   1_554 S
H88    C38     1.101   1_556 S
H92    C39     1.101   1_656 S
H93    C39     1.093   1_655 S
H95    C50     1.103   1_556 S
H98    C52     1.093   1_554 S
H99    C52     1.103   1_554 S
H100   C53     1.102   1_554 S
H102   C53     1.090   1_554 S
H104   C91     1.100   1_545 S
H105   C91     1.092   1_545 S
H110   C93     1.090   1_455 S
N2     C9      1.287   1_556 D
N3     C7      1.286   1_554 D
N4     C27     1.408   1_554 S
N4     C28     1.286   1_554 D
N5     C30     1.284   1_554 D
N6     C31     1.285   1_556 D
