data_1081
_audit_creation_date              2023-09-08
_audit_creation_method            'Materials Studio'
_symmetry_space_group_name_H-M    'P1'
_symmetry_Int_Tables_number       1
_symmetry_cell_setting            triclinic
loop_
_symmetry_equiv_pos_as_xyz
  x,y,z
_cell_length_a                    29.9509
_cell_length_b                    29.9929
_cell_length_c                    3.7393
_cell_angle_alpha                 89.7572
_cell_angle_beta                  90.0716
_cell_angle_gamma                 59.9252
loop_
_atom_site_label
_atom_site_type_symbol
_atom_site_fract_x
_atom_site_fract_y
_atom_site_fract_z
_atom_site_U_iso_or_equiv
_atom_site_adp_type
_atom_site_occupancy
C1     C     0.02337   0.03012  -0.00003   0.00000  Uiso   1.00
C2     C     0.96922   0.05425   0.00004   0.00000  Uiso   1.00
C3     C     0.94594   0.02379  -0.00001   0.00000  Uiso   1.00
C4     C     0.97599   0.96970  -0.00008   0.00000  Uiso   1.00
C5     C     0.02982   0.94641   0.00002   0.00000  Uiso   1.00
C6     C     0.05393   0.97636  -0.00004   0.00000  Uiso   1.00
C7     C     0.10982   0.95398   0.00021   0.00000  Uiso   1.00
C8     C     0.93563   0.11010  -0.00026   0.00000  Uiso   1.00
C9     C     0.95369   0.93620   0.00027   0.00000  Uiso   1.00
C10    C     0.91718   0.19581  -0.00015   0.00000  Uiso   1.00
C11    C     0.93839   0.22870   0.00026   0.00000  Uiso   1.00
C12    C     0.86305   0.21870   0.00012   0.00000  Uiso   1.00
C13    C     0.90522   0.28192   0.00012   0.00000  Uiso   1.00
C14    C     0.83100   0.27156  -0.00003   0.00000  Uiso   1.00
C15    C     0.85114   0.30512  -0.00013   0.00000  Uiso   1.00
C16    C     0.19566   0.88660   0.00009   0.00000  Uiso   1.00
C17    C     0.22878   0.83248  -0.00022   0.00000  Uiso   1.00
C18    C     0.21835   0.91793  -0.00009   0.00000  Uiso   1.00
C19    C     0.28205   0.81249  -0.00010   0.00000  Uiso   1.00
C20    C     0.27123   0.89717   0.00001   0.00000  Uiso   1.00
C21    C     0.30503   0.84346   0.00020   0.00000  Uiso   1.00
C22    C     0.88644   0.91772   0.00014   0.00000  Uiso   1.00
C23    C     0.83226   0.93868  -0.00022   0.00000  Uiso   1.00
C24    C     0.91796   0.86369  -0.00008   0.00000  Uiso   1.00
C25    C     0.81243   0.90536  -0.00013   0.00000  Uiso   1.00
C26    C     0.89740   0.83150   0.00002   0.00000  Uiso   1.00
C27    C     0.84366   0.85138   0.00017   0.00000  Uiso   1.00
C28    C     0.81707   0.36167  -0.00004   0.00000  Uiso   1.00
C29    C     0.83713   0.39533  -0.00004   0.00000  Uiso   1.00
C30    C     0.76303   0.38474   0.00014   0.00000  Uiso   1.00
C31    C     0.80496   0.44819   0.00006   0.00000  Uiso   1.00
C32    C     0.72975   0.43790   0.00025   0.00000  Uiso   1.00
C33    C     0.75078   0.47091  -0.00011   0.00000  Uiso   1.00
C34    C     0.36159   0.82109  -0.00019   0.00000  Uiso   1.00
C35    C     0.38433   0.85225   0.00006   0.00000  Uiso   1.00
C36    C     0.44844   0.74683   0.00008   0.00000  Uiso   1.00
C37    C     0.43752   0.83250   0.00024   0.00000  Uiso   1.00
C38    C     0.47085   0.77846  -0.00009   0.00000  Uiso   1.00
C39    C     0.82150   0.81710  -0.00017   0.00000  Uiso   1.00
C40    C     0.76775   0.83685  -0.00005   0.00000  Uiso   1.00
C41    C     0.85284   0.76315   0.00008   0.00000  Uiso   1.00
C42    C     0.74730   0.80451   0.00003   0.00000  Uiso   1.00
C43    C     0.83315   0.72973   0.00022   0.00000  Uiso   1.00
C44    C     0.77903   0.75046  -0.00011   0.00000  Uiso   1.00
C45    C     0.64378   0.63623  -0.00001   0.00000  Uiso   1.00
C46    C     0.61282   0.68994   0.00003   0.00000  Uiso   1.00
C47    C     0.63648   0.72033  -0.00003   0.00000  Uiso   1.00
C48    C     0.55700   0.71173  -0.00011   0.00000  Uiso   1.00
C49    C     0.69028   0.69747   0.00005   0.00000  Uiso   1.00
C50    C     0.71219   0.73132  -0.00003   0.00000  Uiso   1.00
C51    C     0.72073   0.64341  -0.00001   0.00000  Uiso   1.00
C52    C     0.69790   0.61255   0.00006   0.00000  Uiso   1.00
C53    C     0.73185   0.55678  -0.00002   0.00000  Uiso   1.00
C54    C     0.67238   0.45950  -0.00014   0.00000  Uiso   1.00
C55    C     0.99576   0.20684  -0.00010   0.00000  Uiso   1.00
C56    C     0.79644   0.99594   0.00013   0.00000  Uiso   1.00
C57    C     0.86911   0.67246  -0.00012   0.00000  Uiso   1.00
C58    C     0.20723   0.79681   0.00016   0.00000  Uiso   1.00
C59    C     0.45884   0.86839  -0.00013   0.00000  Uiso   1.00
C60    C     0.39555   0.76736  -0.00005   0.00000  Uiso   1.00
H1     H     0.12203   0.98315   0.00183   0.00000  Uiso   1.00
H2     H     0.89416   0.12232   0.99762   0.00000  Uiso   1.00
H3     H     0.98297   0.89479   0.00217   0.00000  Uiso   1.00
H4     H     0.92294   0.30602   0.00223   0.00000  Uiso   1.00
H5     H     0.78948   0.28685   0.00029   0.00000  Uiso   1.00
H6     H     0.30634   0.77066   0.99766   0.00000  Uiso   1.00
H7     H     0.28634   0.92348   0.99950   0.00000  Uiso   1.00
H8     H     0.77056   0.92284   0.99768   0.00000  Uiso   1.00
H9     H     0.92388   0.79008   0.99940   0.00000  Uiso   1.00
H10    H     0.87866   0.38008   0.99998   0.00000  Uiso   1.00
H11    H     0.74541   0.36055   0.00218   0.00000  Uiso   1.00
H12    H     0.38053   0.74098   0.00030   0.00000  Uiso   1.00
H13    H     0.35989   0.89405   0.00192   0.00000  Uiso   1.00
H14    H     0.74124   0.87827   0.00029   0.00000  Uiso   1.00
H15    H     0.89469   0.74573   0.00216   0.00000  Uiso   1.00
H16    H     0.54529   0.68216   0.99893   0.00000  Uiso   1.00
H17    H     0.68265   0.77265   0.99988   0.00000  Uiso   1.00
H18    H     0.77326   0.54482   0.00012   0.00000  Uiso   1.00
H19    H     0.65310   0.49386   0.16841   0.00000  Uiso   1.00
H20    H     0.65637   0.47172   0.72925   0.00000  Uiso   1.00
H21    H     0.66281   0.43054   0.09322   0.00000  Uiso   1.00
H22    H     0.01510   0.17206   0.16701   0.00000  Uiso   1.00
H23    H     0.01142   0.19523   0.72894   0.00000  Uiso   1.00
H24    H     0.00568   0.23541   0.09480   0.00000  Uiso   1.00
H25    H     0.79263   0.01159   0.27074   0.00000  Uiso   1.00
H26    H     0.81150   0.01543   0.83197   0.00000  Uiso   1.00
H27    H     0.75780   0.00572   0.90630   0.00000  Uiso   1.00
H28    H     0.85434   0.65293   0.17026   0.00000  Uiso   1.00
H29    H     0.87263   0.65675   0.72976   0.00000  Uiso   1.00
H30    H     0.90782   0.66284   0.09102   0.00000  Uiso   1.00
H31    H     0.19520   0.79286   0.27035   0.00000  Uiso   1.00
H32    H     0.17277   0.81188   0.83010   0.00000  Uiso   1.00
H33    H     0.23626   0.75827   0.90842   0.00000  Uiso   1.00
H34    H     0.49312   0.85353   0.17156   0.00000  Uiso   1.00
H35    H     0.47117   0.87207   0.73000   0.00000  Uiso   1.00
H36    H     0.42960   0.90696   0.08948   0.00000  Uiso   1.00
H37    H     0.95982   0.84615   0.99901   0.00000  Uiso   1.00
H38    H     0.70546   0.82197   0.00046   0.00000  Uiso   1.00
H39    H     0.82260   0.47234   0.00035   0.00000  Uiso   1.00
H40    H     0.84526   0.19468   0.00085   0.00000  Uiso   1.00
H41    H     0.19411   0.95974   0.99911   0.00000  Uiso   1.00
H42    H     0.47286   0.70502   0.00060   0.00000  Uiso   1.00
H43    H     0.05372   0.90449   0.00013   0.00000  Uiso   1.00
H44    H     0.90395   0.04189   0.00013   0.00000  Uiso   1.00
H45    H     0.04142   0.05397   0.99987   0.00000  Uiso   1.00
H46    H     0.62615   0.61199   0.99978   0.00000  Uiso   1.00
H47    H     0.61219   0.76222   0.99980   0.00000  Uiso   1.00
H48    H     0.76268   0.62571   0.99972   0.00000  Uiso   1.00
N1     N     0.14228   0.90523  -0.00013   0.00000  Uiso   1.00
N2     N     0.95192   0.14249   0.00015   0.00000  Uiso   1.00
N3     N     0.90490   0.95251  -0.00015   0.00000  Uiso   1.00
N4     N     0.52411   0.76034   0.00008   0.00000  Uiso   1.00
N5     N     0.76089   0.71541   0.00003   0.00000  Uiso   1.00
N6     N     0.71585   0.52416   0.00002   0.00000  Uiso   1.00
loop_
_geom_bond_atom_site_label_1
_geom_bond_atom_site_label_2
_geom_bond_distance
_geom_bond_site_symmetry_2
_ccdc_geom_bond_type
C1     C2      1.406   1_455 S
C1     C6      1.399   1_545 D
C1     H45     1.092   1_554 S
C2     C8      1.459   .     S
C2     C3      1.400   .     D
C2     C1      1.406   1_655 S
C3     H44     1.092   .     S
C3     C4      1.407   1_545 S
C4     C9      1.459   .     S
C4     C3      1.407   1_565 S
C4     C5      1.399   1_655 D
C5     H43     1.091   .     S
C5     C6      1.407   .     S
C5     C4      1.399   1_455 D
C6     C7      1.458   .     S
C6     C1      1.399   1_565 D
C7     H1      1.105   .     S
C7     N1      1.288   .     D
C8     N2      1.287   .     D
C8     H2      1.105   1_554 S
C9     H3      1.105   .     S
C9     N3      1.288   .     D
C10    C11     1.416   .     D
C10    C12     1.409   .     S
C10    N2      1.404   .     S
C11    C13     1.395   .     S
C11    C55     1.501   .     S
C12    H40     1.090   .     S
C12    C14     1.382   .     D
C13    H4      1.090   .     S
C13    C15     1.406   .     D
C14    C15     1.409   .     S
C14    H5      1.089   .     S
C15    C28     1.478   .     S
C16    N1      1.405   .     S
C16    C18     1.409   .     D
C16    C17     1.416   .     S
C17    C19     1.395   .     D
C17    C58     1.501   .     S
C18    C20     1.381   .     S
C18    H41     1.090   1_554 S
C19    C21     1.406   .     S
C19    H6      1.090   1_554 S
C20    C21     1.409   .     D
C20    H7      1.089   1_554 S
C21    C34     1.477   .     S
C22    C23     1.416   .     S
C22    N3      1.405   .     S
C22    C24     1.409   .     D
C23    C25     1.395   .     D
C23    C56     1.501   .     S
C24    C26     1.381   .     S
C24    H37     1.090   1_554 S
C25    C27     1.407   .     S
C25    H8      1.090   1_554 S
C26    C27     1.409   .     D
C26    H9      1.089   1_554 S
C27    C39     1.477   .     S
C28    C29     1.410   .     D
C28    C30     1.406   .     S
C29    C31     1.382   .     S
C29    H10     1.089   1_554 S
C30    H11     1.090   .     S
C30    C32     1.394   .     D
C31    H39     1.090   .     S
C31    C33     1.410   .     D
C32    C33     1.415   .     S
C32    C54     1.502   .     S
C33    N6      1.404   .     S
C34    C60     1.410   .     D
C34    C35     1.405   .     S
C35    C37     1.394   .     D
C35    H13     1.090   .     S
C36    H42     1.090   .     S
C36    C60     1.382   .     S
C36    C38     1.410   .     D
C37    C59     1.502   .     S
C37    C38     1.415   .     S
C38    N4      1.404   .     S
C39    C40     1.410   .     S
C39    C41     1.406   .     D
C40    H14     1.089   .     S
C40    C42     1.383   .     D
C41    C43     1.395   .     S
C41    H15     1.090   .     S
C42    H38     1.089   .     S
C42    C44     1.410   .     S
C43    C44     1.416   .     D
C43    C57     1.502   .     S
C44    N5      1.405   .     S
C45    C46     1.399   .     S
C45    C52     1.406   .     D
C45    H46     1.092   1_554 S
C46    C47     1.407   .     D
C46    C48     1.458   .     S
C47    C49     1.400   .     S
C47    H47     1.092   1_554 S
C48    N4      1.287   .     D
C48    H16     1.105   1_554 S
C49    C50     1.459   .     S
C49    C51     1.407   .     D
C50    N5      1.287   .     D
C50    H17     1.105   1_554 S
C51    C52     1.399   .     S
C51    H48     1.092   1_554 S
C52    C53     1.458   .     S
C53    H18     1.105   .     S
C53    N6      1.287   .     D
C54    H19     1.097   .     S
C54    H21     1.098   .     S
C54    H20     1.099   1_554 S
C55    H22     1.096   1_655 S
C55    H23     1.099   1_654 S
C55    H24     1.098   1_655 S
C56    H25     1.099   1_565 S
C56    H26     1.097   1_564 S
C56    H27     1.098   1_564 S
C57    H30     1.098   .     S
C57    H28     1.096   .     S
C57    H29     1.099   1_554 S
C58    H31     1.099   .     S
C58    H32     1.096   1_554 S
C58    H33     1.098   1_554 S
C59    H36     1.098   .     S
C59    H34     1.096   .     S
C59    H35     1.099   1_554 S
C60    H12     1.089   .     S
H2     C8      1.105   1_556 S
H6     C19     1.090   1_556 S
H7     C20     1.089   1_556 S
H8     C25     1.090   1_556 S
H9     C26     1.089   1_556 S
H10    C29     1.089   1_556 S
H16    C48     1.105   1_556 S
H17    C50     1.105   1_556 S
H20    C54     1.099   1_556 S
H22    C55     1.096   1_455 S
H23    C55     1.099   1_456 S
H24    C55     1.098   1_455 S
H25    C56     1.099   1_545 S
H26    C56     1.097   1_546 S
H27    C56     1.098   1_546 S
H29    C57     1.099   1_556 S
H32    C58     1.096   1_556 S
H33    C58     1.098   1_556 S
H35    C59     1.099   1_556 S
H37    C24     1.090   1_556 S
H41    C18     1.090   1_556 S
H45    C1      1.092   1_556 S
H46    C45     1.092   1_556 S
H47    C47     1.092   1_556 S
H48    C51     1.092   1_556 S
