data_1082
_audit_creation_date              2023-09-08
_audit_creation_method            'Materials Studio'
_symmetry_space_group_name_H-M    'P1'
_symmetry_Int_Tables_number       1
_symmetry_cell_setting            triclinic
loop_
_symmetry_equiv_pos_as_xyz
  x,y,z
_cell_length_a                    29.9788
_cell_length_b                    29.9817
_cell_length_c                    7.1590
_cell_angle_alpha                 90.0400
_cell_angle_beta                  90.0468
_cell_angle_gamma                 59.9903
loop_
_atom_site_label
_atom_site_type_symbol
_atom_site_fract_x
_atom_site_fract_y
_atom_site_fract_z
_atom_site_U_iso_or_equiv
_atom_site_adp_type
_atom_site_occupancy
C1     C     0.02284   0.03065  -0.00000   0.00000  Uiso   1.00
C2     C     0.96881   0.05401   0.00005   0.00000  Uiso   1.00
C3     C     0.94615   0.02302  -0.00000   0.00000  Uiso   1.00
C4     C     0.97679   0.96899   0.00006   0.00000  Uiso   1.00
C5     C     0.03044   0.94636   0.00001   0.00000  Uiso   1.00
C6     C     0.05384   0.97700   0.00005   0.00000  Uiso   1.00
C7     C     0.10952   0.95528  -0.00020   0.00000  Uiso   1.00
C8     C     0.93481   0.10971  -0.00016   0.00000  Uiso   1.00
C9     C     0.95512   0.93499  -0.00021   0.00000  Uiso   1.00
C10    C     0.91676   0.19545  -0.00007   0.00000  Uiso   1.00
C11    C     0.93810   0.22830   0.00013   0.00000  Uiso   1.00
C12    C     0.86257   0.21841   0.00001   0.00000  Uiso   1.00
C13    C     0.90491   0.28161   0.00009   0.00000  Uiso   1.00
C14    C     0.83064   0.27131  -0.00005   0.00000  Uiso   1.00
C15    C     0.85095   0.30486  -0.00005   0.00000  Uiso   1.00
C16    C     0.19523   0.88768  -0.00007   0.00000  Uiso   1.00
C17    C     0.22809   0.83349   0.00014   0.00000  Uiso   1.00
C18    C     0.21813   0.91893   0.00002   0.00000  Uiso   1.00
C19    C     0.28138   0.81338   0.00011   0.00000  Uiso   1.00
C20    C     0.27103   0.89797  -0.00005   0.00000  Uiso   1.00
C21    C     0.30460   0.84412  -0.00007   0.00000  Uiso   1.00
C22    C     0.88772   0.91661  -0.00009   0.00000  Uiso   1.00
C23    C     0.83352   0.93797   0.00015   0.00000  Uiso   1.00
C24    C     0.91897   0.86244   0.00004   0.00000  Uiso   1.00
C25    C     0.81338   0.90483   0.00010   0.00000  Uiso   1.00
C26    C     0.89797   0.83051  -0.00005   0.00000  Uiso   1.00
C27    C     0.84414   0.85083  -0.00006   0.00000  Uiso   1.00
C28    C     0.81722   0.36146  -0.00004   0.00000  Uiso   1.00
C29    C     0.83742   0.39506  -0.00003   0.00000  Uiso   1.00
C30    C     0.76322   0.38470   0.00006   0.00000  Uiso   1.00
C31    C     0.80546   0.44804   0.00002   0.00000  Uiso   1.00
C32    C     0.73016   0.43793   0.00010   0.00000  Uiso   1.00
C33    C     0.75136   0.47087  -0.00005   0.00000  Uiso   1.00
C34    C     0.36118   0.82131  -0.00005   0.00000  Uiso   1.00
C35    C     0.38436   0.85211   0.00009   0.00000  Uiso   1.00
C36    C     0.44776   0.74650   0.00005   0.00000  Uiso   1.00
C37    C     0.43760   0.83196   0.00015   0.00000  Uiso   1.00
C38    C     0.47056   0.77780  -0.00008   0.00000  Uiso   1.00
C39    C     0.82126   0.81711  -0.00008   0.00000  Uiso   1.00
C40    C     0.76742   0.83732  -0.00003   0.00000  Uiso   1.00
C41    C     0.85199   0.76314   0.00011   0.00000  Uiso   1.00
C42    C     0.74646   0.80535   0.00007   0.00000  Uiso   1.00
C43    C     0.83188   0.73002   0.00018   0.00000  Uiso   1.00
C44    C     0.77774   0.75121  -0.00011   0.00000  Uiso   1.00
C45    C     0.64388   0.63565   0.00001   0.00000  Uiso   1.00
C46    C     0.61239   0.68931   0.00004   0.00000  Uiso   1.00
C47    C     0.63542   0.72031   0.00001   0.00000  Uiso   1.00
C48    C     0.55663   0.71068  -0.00015   0.00000  Uiso   1.00
C49    C     0.68908   0.69813   0.00006   0.00000  Uiso   1.00
C50    C     0.71047   0.73248  -0.00022   0.00000  Uiso   1.00
C51    C     0.72012   0.64410   0.00001   0.00000  Uiso   1.00
C52    C     0.69792   0.61265   0.00003   0.00000  Uiso   1.00
C53    C     0.73235   0.55691  -0.00011   0.00000  Uiso   1.00
C54    C     0.39479   0.76749  -0.00004   0.00000  Uiso   1.00
C55    C     0.79768   0.99525  -0.00006   0.00000  Uiso   1.00
C56    C     0.20686   0.79746  -0.00006   0.00000  Uiso   1.00
C57    C     0.86792   0.67277  -0.00010   0.00000  Uiso   1.00
C58    C     0.67285   0.45956  -0.00006   0.00000  Uiso   1.00
C59    C     0.99536   0.20727  -0.00005   0.00000  Uiso   1.00
C60    C     0.45912   0.86772  -0.00008   0.00000  Uiso   1.00
C61    C     0.97694   0.96927   0.50000   0.00000  Uiso   1.00
C62    C     0.03096   0.94594   0.50002   0.00000  Uiso   1.00
C63    C     0.05358   0.97695   0.49999   0.00000  Uiso   1.00
C64    C     0.02291   0.03097   0.50006   0.00000  Uiso   1.00
C65    C     0.96927   0.05360   0.49998   0.00000  Uiso   1.00
C66    C     0.94594   0.02292   0.50004   0.00000  Uiso   1.00
C67    C     0.89027   0.04468   0.49986   0.00000  Uiso   1.00
C68    C     0.06487   0.89027   0.49991   0.00000  Uiso   1.00
C69    C     0.04466   0.06487   0.49978   0.00000  Uiso   1.00
C70    C     0.08299   0.80464   0.49996   0.00000  Uiso   1.00
C71    C     0.06151   0.77192   0.50010   0.00000  Uiso   1.00
C72    C     0.13710   0.78172   0.49999   0.00000  Uiso   1.00
C73    C     0.09454   0.71865   0.50007   0.00000  Uiso   1.00
C74    C     0.16896   0.72878   0.49996   0.00000  Uiso   1.00
C75    C     0.14858   0.69535   0.49997   0.00000  Uiso   1.00
C76    C     0.80458   0.11223   0.49994   0.00000  Uiso   1.00
C77    C     0.77182   0.16645   0.50012   0.00000  Uiso   1.00
C78    C     0.78167   0.08104   0.50001   0.00000  Uiso   1.00
C79    C     0.71853   0.18666   0.50009   0.00000  Uiso   1.00
C80    C     0.72872   0.10213   0.49995   0.00000  Uiso   1.00
C81    C     0.69523   0.15595   0.49995   0.00000  Uiso   1.00
C82    C     0.11233   0.08281   0.49990   0.00000  Uiso   1.00
C83    C     0.16655   0.06135   0.50015   0.00000  Uiso   1.00
C84    C     0.08113   0.13694   0.50004   0.00000  Uiso   1.00
C85    C     0.18675   0.09444   0.50011   0.00000  Uiso   1.00
C86    C     0.10217   0.16878   0.49994   0.00000  Uiso   1.00
C87    C     0.15602   0.14843   0.49992   0.00000  Uiso   1.00
C88    C     0.18231   0.63876   0.49992   0.00000  Uiso   1.00
C89    C     0.16213   0.60509   0.49996   0.00000  Uiso   1.00
C90    C     0.23621   0.61558   0.50009   0.00000  Uiso   1.00
C91    C     0.19416   0.55217   0.50005   0.00000  Uiso   1.00
C92    C     0.26944   0.56232   0.50015   0.00000  Uiso   1.00
C93    C     0.24835   0.52929   0.49991   0.00000  Uiso   1.00
C94    C     0.63862   0.17880   0.49991   0.00000  Uiso   1.00
C95    C     0.61548   0.14801   0.50010   0.00000  Uiso   1.00
C96    C     0.55194   0.25351   0.50004   0.00000  Uiso   1.00
C97    C     0.56223   0.16804   0.50016   0.00000  Uiso   1.00
C98    C     0.52913   0.22217   0.49991   0.00000  Uiso   1.00
C99    C     0.17883   0.18218   0.49993   0.00000  Uiso   1.00
C100   C     0.23265   0.16201   0.49997   0.00000  Uiso   1.00
C101   C     0.14799   0.23613   0.50010   0.00000  Uiso   1.00
C102   C     0.25357   0.19403   0.50006   0.00000  Uiso   1.00
C103   C     0.16807   0.26927   0.50018   0.00000  Uiso   1.00
C104   C     0.22222   0.24815   0.49990   0.00000  Uiso   1.00
C105   C     0.35574   0.36431   0.50000   0.00000  Uiso   1.00
C106   C     0.38724   0.31063   0.50005   0.00000  Uiso   1.00
C107   C     0.36420   0.27963   0.50001   0.00000  Uiso   1.00
C108   C     0.44300   0.28934   0.49979   0.00000  Uiso   1.00
C109   C     0.31052   0.30180   0.50005   0.00000  Uiso   1.00
C110   C     0.28925   0.26730   0.49978   0.00000  Uiso   1.00
C111   C     0.27953   0.35586   0.50002   0.00000  Uiso   1.00
C112   C     0.30169   0.38737   0.50004   0.00000  Uiso   1.00
C113   C     0.26719   0.44315   0.49982   0.00000  Uiso   1.00
C114   C     0.60488   0.23264   0.49996   0.00000  Uiso   1.00
C115   C     0.20239   0.00405   0.49998   0.00000  Uiso   1.00
C116   C     0.79354   0.20204   0.49997   0.00000  Uiso   1.00
C117   C     0.13208   0.32649   0.49990   0.00000  Uiso   1.00
C118   C     0.32661   0.54160   0.49992   0.00000  Uiso   1.00
C119   C     0.00416   0.79375   0.49998   0.00000  Uiso   1.00
C120   C     0.54139   0.13169   0.49990   0.00000  Uiso   1.00
H1     H     0.12149   0.98461   0.99882   0.00000  Uiso   1.00
H2     H     0.89350   0.12168   0.99902   0.00000  Uiso   1.00
H3     H     0.98452   0.89369   0.99871   0.00000  Uiso   1.00
H4     H     0.92271   0.30564   0.00097   0.00000  Uiso   1.00
H5     H     0.78917   0.28661   0.99991   0.00000  Uiso   1.00
H6     H     0.30544   0.77154   0.00114   0.00000  Uiso   1.00
H7     H     0.28629   0.92417   0.99988   0.00000  Uiso   1.00
H8     H     0.77155   0.92261   0.00113   0.00000  Uiso   1.00
H9     H     0.92416   0.78904   0.99996   0.00000  Uiso   1.00
H10    H     0.87890   0.37979  -0.00000   0.00000  Uiso   1.00
H11    H     0.74546   0.36065   0.00075   0.00000  Uiso   1.00
H12    H     0.36028   0.89393   0.00098   0.00000  Uiso   1.00
H13    H     0.74119   0.87878   0.00012   0.00000  Uiso   1.00
H14    H     0.89382   0.74537   0.00122   0.00000  Uiso   1.00
H15    H     0.54502   0.68104   0.99907   0.00000  Uiso   1.00
H16    H     0.68087   0.77374   0.99858   0.00000  Uiso   1.00
H17    H     0.77360   0.54529   0.99938   0.00000  Uiso   1.00
H18    H     0.82331   0.47202   0.00021   0.00000  Uiso   1.00
H19    H     0.47176   0.70467   0.00032   0.00000  Uiso   1.00
H20    H     0.84471   0.19444   0.99987   0.00000  Uiso   1.00
H21    H     0.19412   0.96076   0.99988   0.00000  Uiso   1.00
H22    H     0.37951   0.74131   0.00003   0.00000  Uiso   1.00
H23    H     0.70464   0.82314   0.00049   0.00000  Uiso   1.00
H24    H     0.96081   0.84456   0.00007   0.00000  Uiso   1.00
H25    H     0.87823   0.01540   0.49918   0.00000  Uiso   1.00
H26    H     0.10619   0.87823   0.49945   0.00000  Uiso   1.00
H27    H     0.01538   0.10618   0.49861   0.00000  Uiso   1.00
H28    H     0.07671   0.69466   0.50070   0.00000  Uiso   1.00
H29    H     0.21044   0.71345   0.49979   0.00000  Uiso   1.00
H30    H     0.69451   0.22850   0.50092   0.00000  Uiso   1.00
H31    H     0.71340   0.07598   0.49983   0.00000  Uiso   1.00
H32    H     0.22858   0.07662   0.50118   0.00000  Uiso   1.00
H33    H     0.07600   0.21026   0.49993   0.00000  Uiso   1.00
H34    H     0.12066   0.62035   0.50009   0.00000  Uiso   1.00
H35    H     0.25395   0.63967   0.50102   0.00000  Uiso   1.00
H36    H     0.63962   0.10619   0.50120   0.00000  Uiso   1.00
H37    H     0.25887   0.12055   0.50009   0.00000  Uiso   1.00
H38    H     0.10618   0.25383   0.50119   0.00000  Uiso   1.00
H39    H     0.45456   0.31901   0.49873   0.00000  Uiso   1.00
H40    H     0.31897   0.22608   0.49865   0.00000  Uiso   1.00
H41    H     0.22596   0.45469   0.49895   0.00000  Uiso   1.00
H42    H     0.17636   0.52814   0.50035   0.00000  Uiso   1.00
H43    H     0.52787   0.29534   0.50043   0.00000  Uiso   1.00
H44    H     0.15500   0.80565   0.49974   0.00000  Uiso   1.00
H45    H     0.80559   0.03920   0.49979   0.00000  Uiso   1.00
H46    H     0.62008   0.25889   0.50010   0.00000  Uiso   1.00
H47    H     0.29540   0.17624   0.50046   0.00000  Uiso   1.00
H48    H     0.03929   0.15480   0.50012   0.00000  Uiso   1.00
H49    H     0.21031   0.98868   0.35660   0.00000  Uiso   1.00
H50    H     0.18568   0.98395   0.57426   0.00000  Uiso   1.00
H51    H     0.23946   0.99440   0.56388   0.00000  Uiso   1.00
H52    H     0.80773   0.20428   0.36053   0.00000  Uiso   1.00
H53    H     0.82657   0.18846   0.59471   0.00000  Uiso   1.00
H54    H     0.76394   0.24113   0.54067   0.00000  Uiso   1.00
H55    H     0.09434   0.33577   0.55620   0.00000  Uiso   1.00
H56    H     0.12613   0.34192   0.35697   0.00000  Uiso   1.00
H57    H     0.14787   0.34635   0.58142   0.00000  Uiso   1.00
H58    H     0.33989   0.54424   0.35924   0.00000  Uiso   1.00
H59    H     0.34749   0.50110   0.54208   0.00000  Uiso   1.00
H60    H     0.33651   0.56433   0.59397   0.00000  Uiso   1.00
H61    H     0.99473   0.76346   0.52880   0.00000  Uiso   1.00
H62    H     0.98717   0.81121   0.36428   0.00000  Uiso   1.00
H63    H     0.98514   0.82454   0.60389   0.00000  Uiso   1.00
H64    H     0.56659   0.09693   0.58100   0.00000  Uiso   1.00
H65    H     0.53962   0.11932   0.35664   0.00000  Uiso   1.00
H66    H     0.50228   0.15022   0.55685   0.00000  Uiso   1.00
H67    H     0.75988   0.00478   0.05640   0.00000  Uiso   1.00
H68    H     0.79160   0.01096   0.85732   0.00000  Uiso   1.00
H69    H     0.81346   0.01517   0.08121   0.00000  Uiso   1.00
H70    H     0.87581   0.65767   0.85624   0.00000  Uiso   1.00
H71    H     0.85118   0.65268   0.07411   0.00000  Uiso   1.00
H72    H     0.90490   0.66335   0.06403   0.00000  Uiso   1.00
H73    H     0.23192   0.76250   0.08039   0.00000  Uiso   1.00
H74    H     0.20465   0.78517   0.85690   0.00000  Uiso   1.00
H75    H     0.16782   0.81599   0.05751   0.00000  Uiso   1.00
H76    H     0.47324   0.86976   0.86022   0.00000  Uiso   1.00
H77    H     0.49207   0.85409   0.09503   0.00000  Uiso   1.00
H78    H     0.42934   0.90675   0.04035   0.00000  Uiso   1.00
H79    H     0.66361   0.42913   0.02872   0.00000  Uiso   1.00
H80    H     0.65611   0.47689   0.86393   0.00000  Uiso   1.00
H81    H     0.65396   0.49030   0.10405   0.00000  Uiso   1.00
H82    H     0.00899   0.20955   0.85944   0.00000  Uiso   1.00
H83    H     0.01620   0.16678   0.04238   0.00000  Uiso   1.00
H84    H     0.00558   0.22981   0.09370   0.00000  Uiso   1.00
H85    H     0.37302   0.38886   0.49983   0.00000  Uiso   1.00
H86    H     0.38878   0.23781   0.49982   0.00000  Uiso   1.00
H87    H     0.23769   0.37312   0.49982   0.00000  Uiso   1.00
H88    H     0.62671   0.61101   0.99987   0.00000  Uiso   1.00
H89    H     0.61081   0.76214   0.99984   0.00000  Uiso   1.00
H90    H     0.76194   0.62690   0.99981   0.00000  Uiso   1.00
H91    H     0.05465   0.90450   0.99982   0.00000  Uiso   1.00
H92    H     0.90427   0.04070   0.99983   0.00000  Uiso   1.00
H93    H     0.04050   0.05484   0.99983   0.00000  Uiso   1.00
H94    H     0.95936   0.94500   0.49988   0.00000  Uiso   1.00
H95    H     0.09545   0.95933   0.49982   0.00000  Uiso   1.00
H96    H     0.94498   0.09545   0.49985   0.00000  Uiso   1.00
N1     N     0.14191   0.90650   0.00011   0.00000  Uiso   1.00
N2     N     0.95118   0.14210   0.00010   0.00000  Uiso   1.00
N3     N     0.90636   0.95124   0.00012   0.00000  Uiso   1.00
N4     N     0.52383   0.75932   0.00009   0.00000  Uiso   1.00
N5     N     0.75913   0.71654   0.00014   0.00000  Uiso   1.00
N6     N     0.71651   0.52411   0.00006   0.00000  Uiso   1.00
N7     N     0.85789   0.09349   0.50007   0.00000  Uiso   1.00
N8     N     0.04840   0.85793   0.50004   0.00000  Uiso   1.00
N9     N     0.09348   0.04835   0.50013   0.00000  Uiso   1.00
N10    N     0.47585   0.24072   0.50013   0.00000  Uiso   1.00
N11    N     0.24063   0.28300   0.50013   0.00000  Uiso   1.00
N12    N     0.28298   0.47598   0.50011   0.00000  Uiso   1.00
loop_
_geom_bond_atom_site_label_1
_geom_bond_atom_site_label_2
_geom_bond_distance
_geom_bond_site_symmetry_2
_ccdc_geom_bond_type
C1     C2      1.407   1_455 S
C1     C6      1.398   1_545 D
C1     H93     1.091   1_554 S
C2     C3      1.399   .     D
C2     C8      1.458   .     S
C2     C1      1.407   1_655 S
C3     C4      1.407   1_545 S
C3     H92     1.092   1_554 S
C4     C9      1.457   .     S
C4     C3      1.407   1_565 S
C4     C5      1.398   1_655 D
C5     C6      1.407   .     S
C5     C4      1.398   1_455 D
C5     H91     1.091   1_554 S
C6     C7      1.457   .     S
C6     C1      1.398   1_565 D
C7     N1      1.289   .     D
C7     H1      1.104   1_554 S
C8     N2      1.289   .     D
C8     H2      1.104   1_554 S
C9     N3      1.289   .     D
C9     H3      1.104   1_554 S
C10    C11     1.418   .     D
C10    C12     1.412   .     S
C10    N2      1.404   .     S
C11    C13     1.398   .     S
C11    C59     1.504   .     S
C12    C14     1.383   .     D
C12    H20     1.090   1_554 S
C13    H4      1.090   .     S
C13    C15     1.405   .     D
C14    C15     1.413   .     S
C14    H5      1.089   1_554 S
C15    C28     1.478   .     S
C16    N1      1.404   .     S
C16    C18     1.412   .     D
C16    C17     1.417   .     S
C17    C19     1.397   .     D
C17    C56     1.503   .     S
C18    C20     1.383   .     S
C18    H21     1.090   1_554 S
C19    H6      1.090   .     S
C19    C21     1.406   .     S
C20    C21     1.412   .     D
C20    H7      1.089   1_554 S
C21    C34     1.478   .     S
C22    C23     1.418   .     S
C22    N3      1.404   .     S
C22    C24     1.412   .     D
C23    C25     1.397   .     D
C23    C55     1.503   .     S
C24    H24     1.090   .     S
C24    C26     1.384   .     S
C25    H8      1.090   .     S
C25    C27     1.406   .     S
C26    C27     1.411   .     D
C26    H9      1.089   1_554 S
C27    C39     1.479   .     S
C28    C29     1.411   .     D
C28    C30     1.406   .     S
C29    C31     1.385   .     S
C29    H10     1.089   .     S
C30    H11     1.090   .     S
C30    C32     1.395   .     D
C31    H18     1.090   .     S
C31    C33     1.410   .     D
C32    C33     1.417   .     S
C32    C58     1.503   .     S
C33    N6      1.404   .     S
C34    C54     1.412   .     D
C34    C35     1.406   .     S
C35    C37     1.396   .     D
C35    H12     1.090   .     S
C36    H19     1.090   .     S
C36    C54     1.385   .     S
C36    C38     1.410   .     D
C37    C60     1.503   .     S
C37    C38     1.417   .     S
C38    N4      1.404   .     S
C39    C40     1.412   .     S
C39    C41     1.406   .     D
C40    H13     1.089   .     S
C40    C42     1.384   .     D
C41    C43     1.396   .     S
C41    H14     1.090   .     S
C42    H23     1.090   .     S
C42    C44     1.411   .     S
C43    C44     1.417   .     D
C43    C57     1.503   .     S
C44    N5      1.404   .     S
C45    C46     1.400   .     S
C45    C52     1.408   .     D
C45    H88     1.091   1_554 S
C46    C47     1.408   .     D
C46    C48     1.461   .     S
C47    C49     1.400   .     S
C47    H89     1.092   1_554 S
C48    N4      1.288   .     D
C48    H15     1.105   1_554 S
C49    C51     1.408   .     D
C49    C50     1.460   .     S
C50    N5      1.288   .     D
C50    H16     1.104   1_554 S
C51    C52     1.400   .     S
C51    H90     1.091   1_554 S
C52    C53     1.460   .     S
C53    N6      1.288   .     D
C53    H17     1.104   1_554 S
C54    H22     1.089   .     S
C55    H67     1.098   1_565 S
C55    H68     1.101   1_564 S
C55    H69     1.096   1_565 S
C56    H73     1.099   .     S
C56    H75     1.095   .     S
C56    H74     1.101   1_554 S
C57    H72     1.098   .     S
C57    H71     1.096   .     S
C57    H70     1.101   1_554 S
C58    H81     1.097   .     S
C58    H79     1.098   .     S
C58    H80     1.100   1_554 S
C59    H82     1.101   1_654 S
C59    H83     1.094   1_655 S
C59    H84     1.099   1_655 S
C60    H78     1.098   .     S
C60    H77     1.096   .     S
C60    H76     1.100   1_554 S
C61    H94     1.091   .     S
C61    C62     1.407   1_655 D
C61    C66     1.398   1_565 S
C62    C68     1.457   .     S
C62    C63     1.398   .     S
C62    C61     1.407   1_455 D
C63    H95     1.091   .     S
C63    C64     1.407   1_565 D
C64    C69     1.456   .     S
C64    C63     1.407   1_545 D
C64    C65     1.398   1_455 S
C65    C66     1.407   .     D
C65    H96     1.091   .     S
C65    C64     1.398   1_655 S
C66    C67     1.457   .     S
C66    C61     1.398   1_545 S
C67    H25     1.104   .     S
C67    N7      1.290   .     D
C68    N8      1.290   .     D
C68    H26     1.103   .     S
C69    N9      1.289   .     D
C69    H27     1.103   .     S
C70    C72     1.410   .     D
C70    C71     1.417   .     S
C70    N8      1.404   .     S
C71    C119    1.503   .     S
C71    C73     1.396   .     D
C72    H44     1.090   .     S
C72    C74     1.384   .     S
C73    H28     1.090   .     S
C73    C75     1.407   .     S
C74    H29     1.089   .     S
C74    C75     1.411   .     D
C75    C88     1.478   .     S
C76    C78     1.410   .     S
C76    N7      1.404   .     S
C76    C77     1.418   .     D
C77    C79     1.397   .     S
C77    C116    1.503   .     S
C78    C80     1.384   .     D
C78    H45     1.090   .     S
C79    C81     1.407   .     D
C79    H30     1.090   .     S
C80    H31     1.089   .     S
C80    C81     1.411   .     S
C81    C94     1.479   .     S
C82    C84     1.411   .     S
C82    N9      1.404   .     S
C82    C83     1.418   .     D
C83    C115    1.503   .     S
C83    C85     1.397   .     S
C84    H48     1.090   .     S
C84    C86     1.383   .     D
C85    H32     1.090   .     S
C85    C87     1.406   .     D
C86    C87     1.412   .     S
C86    H33     1.089   .     S
C87    C99     1.478   .     S
C88    C90     1.404   .     D
C88    C89     1.413   .     S
C89    C91     1.384   .     D
C89    H34     1.089   .     S
C90    H35     1.090   .     S
C90    C92     1.397   .     S
C91    H42     1.090   .     S
C91    C93     1.412   .     S
C92    C93     1.417   .     D
C92    C118    1.503   .     S
C93    N12     1.404   .     S
C94    C95     1.405   .     S
C94    C114    1.413   .     D
C95    C97     1.396   .     D
C95    H36     1.090   .     S
C96    C98     1.412   .     D
C96    C114    1.385   .     S
C96    H43     1.090   .     S
C97    C98     1.417   .     S
C97    C120    1.503   .     S
C98    N10     1.404   .     S
C99    C100    1.412   .     D
C99    C101    1.405   .     S
C100   C102    1.385   .     S
C100   H37     1.089   .     S
C101   H38     1.090   .     S
C101   C103    1.396   .     D
C102   H47     1.090   .     S
C102   C104    1.411   .     D
C103   C104    1.417   .     S
C103   C117    1.502   .     S
C104   N11     1.405   .     S
C105   H85     1.092   .     S
C105   C112    1.408   .     S
C105   C106    1.401   .     D
C106   C108    1.461   .     S
C106   C107    1.408   .     S
C107   C109    1.401   .     D
C107   H86     1.091   .     S
C108   H39     1.104   .     S
C108   N10     1.288   .     D
C109   C111    1.409   .     S
C109   C110    1.462   .     S
C110   H40     1.104   .     S
C110   N11     1.288   .     D
C111   H87     1.092   .     S
C111   C112    1.401   .     D
C112   C113    1.462   .     S
C113   N12     1.288   .     D
C113   H41     1.104   .     S
C114   H46     1.089   .     S
C115   H49     1.101   1_545 S
C115   H50     1.095   1_545 S
C115   H51     1.098   1_545 S
C116   H53     1.096   .     S
C116   H54     1.098   .     S
C116   H52     1.101   .     S
C117   H55     1.098   .     S
C117   H57     1.096   .     S
C117   H56     1.100   .     S
C118   H59     1.094   .     S
C118   H60     1.099   .     S
C118   H58     1.101   .     S
C119   H61     1.097   1_455 S
C119   H62     1.100   1_455 S
C119   H63     1.097   1_455 S
C120   H64     1.098   .     S
C120   H66     1.095   .     S
C120   H65     1.101   .     S
H1     C7      1.104   1_556 S
H2     C8      1.104   1_556 S
H3     C9      1.104   1_556 S
H5     C14     1.089   1_556 S
H7     C20     1.089   1_556 S
H9     C26     1.089   1_556 S
H15    C48     1.105   1_556 S
H16    C50     1.104   1_556 S
H17    C53     1.104   1_556 S
H20    C12     1.090   1_556 S
H21    C18     1.090   1_556 S
H49    C115    1.101   1_565 S
H50    C115    1.095   1_565 S
H51    C115    1.098   1_565 S
H61    C119    1.097   1_655 S
H62    C119    1.100   1_655 S
H63    C119    1.097   1_655 S
H67    C55     1.098   1_545 S
H68    C55     1.101   1_546 S
H69    C55     1.096   1_545 S
H70    C57     1.101   1_556 S
H74    C56     1.101   1_556 S
H76    C60     1.100   1_556 S
H80    C58     1.100   1_556 S
H82    C59     1.101   1_456 S
H83    C59     1.094   1_455 S
H84    C59     1.099   1_455 S
H88    C45     1.091   1_556 S
H89    C47     1.092   1_556 S
H90    C51     1.091   1_556 S
H91    C5      1.091   1_556 S
H92    C3      1.092   1_556 S
H93    C1      1.091   1_556 S
