data_1083
_audit_creation_date              2023-09-08
_audit_creation_method            'Materials Studio'
_symmetry_space_group_name_H-M    'P1'
_symmetry_Int_Tables_number       1
_symmetry_cell_setting            triclinic
loop_
_symmetry_equiv_pos_as_xyz
  x,y,z
_cell_length_a                    22.6875
_cell_length_b                    22.6852
_cell_length_c                    3.7839
_cell_angle_alpha                 90.1895
_cell_angle_beta                  90.0069
_cell_angle_gamma                 59.9910
loop_
_atom_site_label
_atom_site_type_symbol
_atom_site_fract_x
_atom_site_fract_y
_atom_site_fract_z
_atom_site_U_iso_or_equiv
_atom_site_adp_type
_atom_site_occupancy
C1     C     0.02575   0.04528  -0.00000   0.00000  Uiso   1.00
C2     C     0.95537   0.07052  -0.00000   0.00000  Uiso   1.00
C3     C     0.92915   0.02603  -0.00000   0.00000  Uiso   1.00
C4     C     0.97429   0.95565  -0.00000   0.00000  Uiso   1.00
C5     C     0.04500   0.92940  -0.00000   0.00000  Uiso   1.00
C6     C     0.07023   0.97454  -0.00000   0.00000  Uiso   1.00
C7     C     0.04875   0.09495  -0.00000   0.00000  Uiso   1.00
C8     C     0.85647   0.04900  -0.00000   0.00000  Uiso   1.00
C9     C     0.09471   0.85669   0.00000   0.00000  Uiso   1.00
C10    C     0.73943   0.13384  -0.00000   0.00000  Uiso   1.00
C11    C     0.69739   0.20523   0.00000   0.00000  Uiso   1.00
C12    C     0.70669   0.09408  -0.00000   0.00000  Uiso   1.00
C13    C     0.62656   0.23981  -0.00000   0.00000  Uiso   1.00
C14    C     0.63587   0.12865  -0.00000   0.00000  Uiso   1.00
C15    C     0.59384   0.20004  -0.00000   0.00000  Uiso   1.00
C16    C     0.13366   0.12702  -0.00000   0.00000  Uiso   1.00
C17    C     0.20505   0.09765  -0.00000   0.00000  Uiso   1.00
C18    C     0.09390   0.19953  -0.00000   0.00000  Uiso   1.00
C19    C     0.23962   0.13390   0.00000   0.00000  Uiso   1.00
C20    C     0.12849   0.23576  -0.00000   0.00000  Uiso   1.00
C21    C     0.19987   0.20642  -0.00000   0.00000  Uiso   1.00
C22    C     0.12690   0.73965  -0.00000   0.00000  Uiso   1.00
C23    C     0.09756   0.69762   0.00000   0.00000  Uiso   1.00
C24    C     0.19941   0.70688  -0.00000   0.00000  Uiso   1.00
C25    C     0.13381   0.62677  -0.00000   0.00000  Uiso   1.00
C26    C     0.23567   0.63603  -0.00000   0.00000  Uiso   1.00
C27    C     0.20632   0.59401  -0.00000   0.00000  Uiso   1.00
C28    C     0.37798   0.26324  -0.00000   0.00000  Uiso   1.00
C29    C     0.47682   0.28485  -0.00000   0.00000  Uiso   1.00
C30    C     0.35892   0.37815  -0.00000   0.00000  Uiso   1.00
C31    C     0.28822   0.40432  -0.00000   0.00000  Uiso   1.00
C32    C     0.23848   0.47699  -0.00000   0.00000  Uiso   1.00
C33    C     0.28470   0.23862  -0.00000   0.00000  Uiso   1.00
C34    C     0.30762   0.28839  -0.00000   0.00000  Uiso   1.00
C35    C     0.26307   0.35910  -0.00000   0.00000  Uiso   1.00
C36    C     0.40415   0.30778  -0.00000   0.00000  Uiso   1.00
C37    C     0.31620   0.09328  -0.00000   0.00000  Uiso   1.00
C38    C     0.59059   0.31639  -0.00000   0.00000  Uiso   1.00
C39    C     0.09318   0.59084  -0.00000   0.00000  Uiso   1.00
C40    C     0.01733   0.24021  -0.00000   0.00000  Uiso   1.00
C41    C     0.74267   0.01750  -0.00000   0.00000  Uiso   1.00
C42    C     0.24005   0.74282  -0.00000   0.00000  Uiso   1.00
H1     H     0.00633   0.14737   0.99977   0.00000  Uiso   1.00
H2     H     0.84652   0.00657   0.00034   0.00000  Uiso   1.00
H3     H     0.14710   0.84677   0.99983   0.00000  Uiso   1.00
H4     H     0.18608   0.48692   0.00010   0.00000  Uiso   1.00
H5     H     0.32721   0.18624   0.99987   0.00000  Uiso   1.00
H6     H     0.48670   0.32735   0.00002   0.00000  Uiso   1.00
H7     H     0.33347   0.03866   0.00068   0.00000  Uiso   1.00
H8     H     0.33836   0.10373   0.76675   0.00000  Uiso   1.00
H9     H     0.33821   0.10424   0.23262   0.00000  Uiso   1.00
H10    H     0.55775   0.33868   0.23300   0.00000  Uiso   1.00
H11    H     0.62795   0.33363   0.99983   0.00000  Uiso   1.00
H12    H     0.55787   0.33833   0.76714   0.00000  Uiso   1.00
H13    H     0.10371   0.55831   0.23325   0.00000  Uiso   1.00
H14    H     0.03858   0.62825   0.99954   0.00000  Uiso   1.00
H15    H     0.10399   0.55784   0.76723   0.00000  Uiso   1.00
H16    H     0.99515   0.22968   0.23281   0.00000  Uiso   1.00
H17    H     0.00017   0.29481   0.00036   0.00000  Uiso   1.00
H18    H     0.99532   0.22944   0.76682   0.00000  Uiso   1.00
H19    H     0.70530   0.00026   0.99924   0.00000  Uiso   1.00
H20    H     0.77564   0.99525   0.76745   0.00000  Uiso   1.00
H21    H     0.77525   0.99560   0.23334   0.00000  Uiso   1.00
H22    H     0.29466   0.70543   0.00060   0.00000  Uiso   1.00
H23    H     0.22953   0.77534   0.76677   0.00000  Uiso   1.00
H24    H     0.22921   0.77585   0.23264   0.00000  Uiso   1.00
H25    H     0.23440   0.04212   0.00005   0.00000  Uiso   1.00
H26    H     0.60970   0.09930   1.00001   0.00000  Uiso   1.00
H27    H     0.29119   0.60985   0.00000   0.00000  Uiso   1.00
H28    H     0.09917   0.29130   0.99999   0.00000  Uiso   1.00
H29    H     0.72354   0.23459   0.99995   0.00000  Uiso   1.00
H30    H     0.04203   0.72383   0.99999   0.00000  Uiso   1.00
H31    H     0.95480   0.92033   1.00000   0.00000  Uiso   1.00
H32    H     0.12503   0.95507   0.00002   0.00000  Uiso   1.00
H33    H     0.92005   0.12533   0.99998   0.00000  Uiso   1.00
H34    H     0.41338   0.20844   0.00001   0.00000  Uiso   1.00
H35    H     0.37832   0.41355   1.00001   0.00000  Uiso   1.00
H36    H     0.20827   0.37854   0.99998   0.00000  Uiso   1.00
N1     N     0.80911   0.11209   0.00000   0.00000  Uiso   1.00
N2     N     0.07899   0.80935  -0.00000   0.00000  Uiso   1.00
N3     N     0.11186   0.07914  -0.00000   0.00000  Uiso   1.00
N4     N     0.22163   0.25433  -0.00000   0.00000  Uiso   1.00
N5     N     0.52417   0.22178  -0.00000   0.00000  Uiso   1.00
N6     N     0.25421   0.52433   0.00000   0.00000  Uiso   1.00
loop_
_geom_bond_atom_site_label_1
_geom_bond_atom_site_label_2
_geom_bond_distance
_geom_bond_site_symmetry_2
_ccdc_geom_bond_type
C1     C7      1.459   .     S
C1     C2      1.401   1_455 D
C1     C6      1.405   1_545 S
C2     C3      1.405   .     S
C2     C1      1.401   1_655 D
C2     H33     1.092   1_554 S
C3     C8      1.460   .     S
C3     C4      1.401   1_545 D
C4     C3      1.401   1_565 D
C4     C5      1.404   1_655 S
C4     H31     1.092   1_554 S
C5     C6      1.401   .     D
C5     C9      1.460   .     S
C5     C4      1.404   1_455 S
C6     H32     1.092   .     S
C6     C1      1.405   1_565 S
C7     N3      1.290   .     D
C7     H1      1.093   1_554 S
C8     H2      1.093   .     S
C8     N1      1.290   .     D
C9     N2      1.290   .     D
C9     H3      1.094   1_554 S
C10    C12     1.427   .     D
C10    N1      1.401   .     S
C10    C11     1.410   .     S
C11    C13     1.392   .     D
C11    H29     1.091   1_554 S
C12    C14     1.391   .     S
C12    C41     1.505   .     S
C13    C15     1.427   .     S
C13    C38     1.505   .     S
C14    C15     1.410   .     D
C14    H26     1.091   1_554 S
C15    N5      1.401   .     S
C16    C17     1.410   .     D
C16    C18     1.427   .     S
C16    N3      1.401   .     S
C17    C19     1.392   .     S
C17    H25     1.091   .     S
C18    C40     1.505   .     S
C18    C20     1.392   .     D
C19    C37     1.505   .     S
C19    C21     1.427   .     D
C20    C21     1.410   .     S
C20    H28     1.092   1_554 S
C21    N4      1.401   .     S
C22    N2      1.401   .     S
C22    C23     1.410   .     D
C22    C24     1.427   .     S
C23    C25     1.392   .     S
C23    H30     1.092   1_554 S
C24    C26     1.392   .     D
C24    C42     1.506   .     S
C25    C39     1.505   .     S
C25    C27     1.427   .     D
C26    H27     1.091   .     S
C26    C27     1.410   .     S
C27    N6      1.400   .     S
C28    H34     1.092   .     S
C28    C34     1.401   .     S
C28    C36     1.405   .     D
C29    C36     1.460   .     S
C29    H6      1.094   .     S
C29    N5      1.290   .     D
C30    C31     1.405   .     D
C30    C36     1.401   .     S
C30    H35     1.092   1_554 S
C31    C32     1.460   .     S
C31    C35     1.401   .     S
C32    N6      1.290   .     D
C32    H4      1.094   .     S
C33    N4      1.290   .     D
C33    C34     1.460   .     S
C33    H5      1.094   1_554 S
C34    C35     1.405   .     D
C35    H36     1.092   1_554 S
C37    H9      1.099   .     S
C37    H7      1.097   .     S
C37    H8      1.099   1_554 S
C38    H10     1.099   .     S
C38    H11     1.097   1_554 S
C38    H12     1.099   1_554 S
C39    H13     1.099   .     S
C39    H14     1.097   1_554 S
C39    H15     1.099   1_554 S
C40    H17     1.097   .     S
C40    H16     1.099   1_455 S
C40    H18     1.099   1_454 S
C41    H19     1.097   1_554 S
C41    H20     1.099   1_544 S
C41    H21     1.099   1_545 S
C42    H24     1.099   .     S
C42    H22     1.097   .     S
C42    H23     1.099   1_554 S
H1     C7      1.093   1_556 S
H3     C9      1.094   1_556 S
H5     C33     1.094   1_556 S
H8     C37     1.099   1_556 S
H11    C38     1.097   1_556 S
H12    C38     1.099   1_556 S
H14    C39     1.097   1_556 S
H15    C39     1.099   1_556 S
H16    C40     1.099   1_655 S
H18    C40     1.099   1_656 S
H19    C41     1.097   1_556 S
H20    C41     1.099   1_566 S
H21    C41     1.099   1_565 S
H23    C42     1.099   1_556 S
H26    C14     1.091   1_556 S
H28    C20     1.092   1_556 S
H29    C11     1.091   1_556 S
H30    C23     1.092   1_556 S
H31    C4      1.092   1_556 S
H33    C2      1.092   1_556 S
H35    C30     1.092   1_556 S
H36    C35     1.092   1_556 S
