data_1084
_audit_creation_date              2023-09-08
_audit_creation_method            'Materials Studio'
_symmetry_space_group_name_H-M    'P1'
_symmetry_Int_Tables_number       1
_symmetry_cell_setting            triclinic
loop_
_symmetry_equiv_pos_as_xyz
  x,y,z
_cell_length_a                    22.6785
_cell_length_b                    22.6620
_cell_length_c                    6.7659
_cell_angle_alpha                 90.0757
_cell_angle_beta                  90.1121
_cell_angle_gamma                 60.0030
loop_
_atom_site_label
_atom_site_type_symbol
_atom_site_fract_x
_atom_site_fract_y
_atom_site_fract_z
_atom_site_U_iso_or_equiv
_atom_site_adp_type
_atom_site_occupancy
C1     C     0.02480   0.04540   0.00001   0.00000  Uiso   1.00
C2     C     0.95452   0.07031   0.00000   0.00000  Uiso   1.00
C3     C     0.92870   0.02542  -0.00000   0.00000  Uiso   1.00
C4     C     0.97405   0.95512   0.00000   0.00000  Uiso   1.00
C5     C     0.04470   0.92928  -0.00001   0.00000  Uiso   1.00
C6     C     0.06960   0.97466  -0.00000   0.00000  Uiso   1.00
C7     C     0.04751   0.09524  -0.00005   0.00000  Uiso   1.00
C8     C     0.85625   0.04796   0.00002   0.00000  Uiso   1.00
C9     C     0.09461   0.85679   0.00001   0.00000  Uiso   1.00
C10    C     0.73937   0.13291   0.00000   0.00000  Uiso   1.00
C11    C     0.69754   0.20444   0.00000   0.00000  Uiso   1.00
C12    C     0.70669   0.09296  -0.00001   0.00000  Uiso   1.00
C13    C     0.62666   0.23947   0.00001   0.00000  Uiso   1.00
C14    C     0.63574   0.12809   0.00000   0.00000  Uiso   1.00
C15    C     0.59383   0.19967   0.00000   0.00000  Uiso   1.00
C16    C     0.13265   0.12706  -0.00003   0.00000  Uiso   1.00
C17    C     0.20414   0.09733   0.00001   0.00000  Uiso   1.00
C18    C     0.09291   0.19973  -0.00002   0.00000  Uiso   1.00
C19    C     0.23922   0.13318   0.00002   0.00000  Uiso   1.00
C20    C     0.12807   0.23555   0.00001   0.00000  Uiso   1.00
C21    C     0.19962   0.20582  -0.00002   0.00000  Uiso   1.00
C22    C     0.12675   0.73975   0.00000   0.00000  Uiso   1.00
C23    C     0.09716   0.69781   0.00000   0.00000  Uiso   1.00
C24    C     0.19934   0.70710   0.00000   0.00000  Uiso   1.00
C25    C     0.13313   0.62687   0.00000   0.00000  Uiso   1.00
C26    C     0.23526   0.63611   0.00001   0.00000  Uiso   1.00
C27    C     0.20573   0.59410   0.00000   0.00000  Uiso   1.00
C28    C     0.23796   0.47692  -0.00001   0.00000  Uiso   1.00
C29    C     0.37789   0.26278  -0.00001   0.00000  Uiso   1.00
C30    C     0.28471   0.23785  -0.00008   0.00000  Uiso   1.00
C31    C     0.47676   0.28464  -0.00001   0.00000  Uiso   1.00
C32    C     0.35867   0.37792   0.00000   0.00000  Uiso   1.00
C33    C     0.28789   0.40410   0.00001   0.00000  Uiso   1.00
C34    C     0.30748   0.28787  -0.00001   0.00000  Uiso   1.00
C35    C     0.26282   0.35871   0.00001   0.00000  Uiso   1.00
C36    C     0.40402   0.30746   0.00001   0.00000  Uiso   1.00
C37    C     0.74245   0.01622  -0.00001   0.00000  Uiso   1.00
C38    C     0.59128   0.31612   0.00000   0.00000  Uiso   1.00
C39    C     0.01625   0.24068   0.00001   0.00000  Uiso   1.00
C40    C     0.31579   0.09184   0.00002   0.00000  Uiso   1.00
C41    C     0.24016   0.74297   0.00000   0.00000  Uiso   1.00
C42    C     0.09202   0.59132  -0.00001   0.00000  Uiso   1.00
C43    C     0.97434   0.95465   0.50003   0.00000  Uiso   1.00
C44    C     0.04462   0.92955   0.50000   0.00000  Uiso   1.00
C45    C     0.07063   0.97426   0.49999   0.00000  Uiso   1.00
C46    C     0.02541   0.04462   0.49999   0.00000  Uiso   1.00
C47    C     0.95471   0.07068   0.49998   0.00000  Uiso   1.00
C48    C     0.92966   0.02540   0.50000   0.00000  Uiso   1.00
C49    C     0.95170   0.90477   0.49980   0.00000  Uiso   1.00
C50    C     0.14311   0.95152   0.50001   0.00000  Uiso   1.00
C51    C     0.90482   0.14321   0.50002   0.00000  Uiso   1.00
C52    C     0.26006   0.86665   0.50000   0.00000  Uiso   1.00
C53    C     0.30203   0.79512   0.50000   0.00000  Uiso   1.00
C54    C     0.29266   0.90668   0.49999   0.00000  Uiso   1.00
C55    C     0.37292   0.76021   0.50000   0.00000  Uiso   1.00
C56    C     0.36362   0.87166   0.50000   0.00000  Uiso   1.00
C57    C     0.40564   0.80010   0.50000   0.00000  Uiso   1.00
C58    C     0.86688   0.87265   0.49995   0.00000  Uiso   1.00
C59    C     0.79541   0.90233   0.50000   0.00000  Uiso   1.00
C60    C     0.90681   0.79997   0.50001   0.00000  Uiso   1.00
C61    C     0.76043   0.86640   0.50001   0.00000  Uiso   1.00
C62    C     0.87172   0.76409   0.50003   0.00000  Uiso   1.00
C63    C     0.80019   0.79377   0.49995   0.00000  Uiso   1.00
C64    C     0.87256   0.26029   0.50001   0.00000  Uiso   1.00
C65    C     0.90211   0.30224   0.49998   0.00000  Uiso   1.00
C66    C     0.79994   0.29297   0.49999   0.00000  Uiso   1.00
C67    C     0.86618   0.37318   0.49999   0.00000  Uiso   1.00
C68    C     0.76402   0.36398   0.49999   0.00000  Uiso   1.00
C69    C     0.79359   0.40598   0.50000   0.00000  Uiso   1.00
C70    C     0.76149   0.52310   0.50002   0.00000  Uiso   1.00
C71    C     0.62164   0.73719   0.50000   0.00000  Uiso   1.00
C72    C     0.71506   0.76191   0.49993   0.00000  Uiso   1.00
C73    C     0.52278   0.71522   0.50000   0.00000  Uiso   1.00
C74    C     0.64083   0.62205   0.49999   0.00000  Uiso   1.00
C75    C     0.71160   0.59589   0.49999   0.00000  Uiso   1.00
C76    C     0.69207   0.71207   0.50001   0.00000  Uiso   1.00
C77    C     0.73667   0.64125   0.50000   0.00000  Uiso   1.00
C78    C     0.59550   0.69250   0.50001   0.00000  Uiso   1.00
C79    C     0.25675   0.98339   0.49999   0.00000  Uiso   1.00
C80    C     0.40843   0.68353   0.49999   0.00000  Uiso   1.00
C81    C     0.98348   0.75904   0.50005   0.00000  Uiso   1.00
C82    C     0.68382   0.90766   0.50002   0.00000  Uiso   1.00
C83    C     0.75916   0.25705   0.49999   0.00000  Uiso   1.00
C84    C     0.90737   0.40862   0.49998   0.00000  Uiso   1.00
H1     H     0.84607   0.00569   0.00009   0.00000  Uiso   1.00
H2     H     0.14705   0.84660   0.00003   0.00000  Uiso   1.00
H3     H     0.48681   0.32708   0.99987   0.00000  Uiso   1.00
H4     H     0.23332   0.04171   0.00010   0.00000  Uiso   1.00
H5     H     0.72389   0.23368   0.00001   0.00000  Uiso   1.00
H6     H     0.04159   0.72412   0.99981   0.00000  Uiso   1.00
H7     H     0.00534   0.14774   0.99954   0.00000  Uiso   1.00
H8     H     0.09894   0.29115   0.00006   0.00000  Uiso   1.00
H9     H     0.29082   0.60976   0.99997   0.00000  Uiso   1.00
H10    H     0.60933   0.09891   0.99995   0.00000  Uiso   1.00
H11    H     0.18551   0.48693   0.99989   0.00000  Uiso   1.00
H12    H     0.32713   0.18536   0.99932   0.00000  Uiso   1.00
H13    H     0.15337   0.99375   0.50006   0.00000  Uiso   1.00
H14    H     0.85240   0.15338   0.50015   0.00000  Uiso   1.00
H15    H     0.51284   0.67269   0.49995   0.00000  Uiso   1.00
H16    H     0.76618   0.95794   0.50013   0.00000  Uiso   1.00
H17    H     0.27579   0.76576   0.50000   0.00000  Uiso   1.00
H18    H     0.95767   0.27597   0.49992   0.00000  Uiso   1.00
H19    H     0.99393   0.85229   0.49839   0.00000  Uiso   1.00
H20    H     0.90087   0.70849   0.50018   0.00000  Uiso   1.00
H21    H     0.70846   0.39033   0.49996   0.00000  Uiso   1.00
H22    H     0.38994   0.90092   0.49997   0.00000  Uiso   1.00
H23    H     0.81395   0.51301   0.50005   0.00000  Uiso   1.00
H24    H     0.67275   0.81444   0.49944   0.00000  Uiso   1.00
H25    H     0.77523   0.99394   0.86963   0.00000  Uiso   1.00
H26    H     0.70482   0.99925   0.99890   0.00000  Uiso   1.00
H27    H     0.77481   0.99401   0.13141   0.00000  Uiso   1.00
H28    H     0.55869   0.33843   0.13067   0.00000  Uiso   1.00
H29    H     0.55867   0.33839   0.86910   0.00000  Uiso   1.00
H30    H     0.62915   0.33276   0.00022   0.00000  Uiso   1.00
H31    H     0.99406   0.23006   0.13030   0.00000  Uiso   1.00
H32    H     0.99397   0.23059   0.86853   0.00000  Uiso   1.00
H33    H     0.99931   0.29529   0.00120   0.00000  Uiso   1.00
H34    H     0.33800   0.10160   0.86818   0.00000  Uiso   1.00
H35    H     0.33238   0.03732   0.00210   0.00000  Uiso   1.00
H36    H     0.33822   0.10264   0.12971   0.00000  Uiso   1.00
H37    H     0.22962   0.77567   0.86934   0.00000  Uiso   1.00
H38    H     0.29474   0.70532   0.99945   0.00000  Uiso   1.00
H39    H     0.23000   0.77543   0.13119   0.00000  Uiso   1.00
H40    H     0.10253   0.55865   0.13068   0.00000  Uiso   1.00
H41    H     0.10230   0.55873   0.86909   0.00000  Uiso   1.00
H42    H     0.03750   0.62911   0.00022   0.00000  Uiso   1.00
H43    H     0.22441   0.00556   0.63122   0.00000  Uiso   1.00
H44    H     0.22395   0.00555   0.36939   0.00000  Uiso   1.00
H45    H     0.29430   0.00045   0.49935   0.00000  Uiso   1.00
H46    H     0.44107   0.66126   0.36941   0.00000  Uiso   1.00
H47    H     0.37066   0.66677   0.49959   0.00000  Uiso   1.00
H48    H     0.44100   0.66131   0.63098   0.00000  Uiso   1.00
H49    H     0.00556   0.76800   0.36647   0.00000  Uiso   1.00
H50    H     0.00041   0.70445   0.50568   0.00000  Uiso   1.00
H51    H     0.00587   0.77071   0.62811   0.00000  Uiso   1.00
H52    H     0.66155   0.89699   0.62995   0.00000  Uiso   1.00
H53    H     0.66149   0.89775   0.36838   0.00000  Uiso   1.00
H54    H     0.66723   0.96219   0.50166   0.00000  Uiso   1.00
H55    H     0.76948   0.22465   0.63127   0.00000  Uiso   1.00
H56    H     0.76972   0.22421   0.36950   0.00000  Uiso   1.00
H57    H     0.70455   0.29458   0.49918   0.00000  Uiso   1.00
H58    H     0.89686   0.44138   0.36952   0.00000  Uiso   1.00
H59    H     0.96186   0.37070   0.49938   0.00000  Uiso   1.00
H60    H     0.89728   0.44108   0.63111   0.00000  Uiso   1.00
H61    H     0.41326   0.20792   0.99999   0.00000  Uiso   1.00
H62    H     0.37815   0.41330   0.99999   0.00000  Uiso   1.00
H63    H     0.20799   0.37817   0.99999   0.00000  Uiso   1.00
H64    H     0.58627   0.79206   0.49999   0.00000  Uiso   1.00
H65    H     0.62139   0.58664   0.50000   0.00000  Uiso   1.00
H66    H     0.79149   0.62182   0.49999   0.00000  Uiso   1.00
H67    H     0.95464   0.91971   0.99999   0.00000  Uiso   1.00
H68    H     0.12441   0.95520   0.99998   0.00000  Uiso   1.00
H69    H     0.91917   0.12516   0.00000   0.00000  Uiso   1.00
H70    H     0.07983   0.87468   0.49998   0.00000  Uiso   1.00
H71    H     0.87482   0.04504   0.50000   0.00000  Uiso   1.00
H72    H     0.04507   0.07984   0.49999   0.00000  Uiso   1.00
N1     N     0.80905   0.11130  -0.00001   0.00000  Uiso   1.00
N2     N     0.07861   0.80949  -0.00001   0.00000  Uiso   1.00
N3     N     0.11084   0.07907   0.00003   0.00000  Uiso   1.00
N4     N     0.25372   0.52432   0.00001   0.00000  Uiso   1.00
N5     N     0.22157   0.25368   0.00004   0.00000  Uiso   1.00
N6     N     0.52409   0.22146   0.00001   0.00000  Uiso   1.00
N7     N     0.19036   0.88819   0.49999   0.00000  Uiso   1.00
N8     N     0.92076   0.19056   0.49999   0.00000  Uiso   1.00
N9     N     0.88843   0.92082   0.50011   0.00000  Uiso   1.00
N10    N     0.74563   0.47577   0.49999   0.00000  Uiso   1.00
N11    N     0.77826   0.74589   0.50003   0.00000  Uiso   1.00
N12    N     0.47537   0.77836   0.50000   0.00000  Uiso   1.00
loop_
_geom_bond_atom_site_label_1
_geom_bond_atom_site_label_2
_geom_bond_distance
_geom_bond_site_symmetry_2
_ccdc_geom_bond_type
C1     C7      1.457   .     S
C1     C2      1.400   1_455 D
C1     C6      1.405   1_545 S
C2     C3      1.405   .     S
C2     H69     1.091   .     S
C2     C1      1.400   1_655 D
C3     C8      1.456   .     S
C3     C4      1.399   1_545 D
C4     C3      1.399   1_565 D
C4     C5      1.404   1_655 S
C4     H67     1.091   1_554 S
C5     C6      1.399   .     D
C5     C9      1.456   .     S
C5     C4      1.404   1_455 S
C6     C1      1.405   1_565 S
C6     H68     1.092   1_554 S
C7     N3      1.293   .     D
C7     H7      1.092   1_554 S
C8     H1      1.092   .     S
C8     N1      1.292   .     D
C9     H2      1.092   .     S
C9     N2      1.292   .     D
C10    C11     1.411   .     D
C10    C12     1.428   .     S
C10    N1      1.401   .     S
C11    H5      1.092   .     S
C11    C13     1.392   .     S
C12    C14     1.394   .     D
C12    C37     1.507   .     S
C13    C15     1.428   .     D
C13    C38     1.506   .     S
C14    C15     1.412   .     S
C14    H10     1.092   1_554 S
C15    N6      1.402   .     S
C16    C18     1.428   .     S
C16    C17     1.411   .     D
C16    N3      1.402   .     S
C17    C19     1.393   .     S
C17    H4      1.092   .     S
C18    C39     1.507   .     S
C18    C20     1.394   .     D
C19    C40     1.505   .     S
C19    C21     1.428   .     D
C20    H8      1.092   .     S
C20    C21     1.412   .     S
C21    N5      1.401   .     S
C22    C24     1.428   .     S
C22    N2      1.402   .     S
C22    C23     1.411   .     D
C23    C25     1.392   .     S
C23    H6      1.092   1_554 S
C24    C26     1.393   .     D
C24    C41     1.507   .     S
C25    C42     1.506   .     S
C25    C27     1.428   .     D
C26    C27     1.412   .     S
C26    H9      1.092   1_554 S
C27    N4      1.402   .     S
C28    N4      1.291   .     D
C28    C33     1.462   .     S
C28    H11     1.094   1_554 S
C29    C34     1.402   .     S
C29    C36     1.406   .     D
C29    H61     1.092   1_554 S
C30    C34     1.462   .     S
C30    N5      1.291   .     D
C30    H12     1.094   1_554 S
C31    C36     1.461   .     S
C31    N6      1.291   .     D
C31    H3      1.094   1_554 S
C32    C33     1.406   .     D
C32    C36     1.402   .     S
C32    H62     1.092   1_554 S
C33    C35     1.402   .     S
C34    C35     1.406   .     D
C35    H63     1.092   1_554 S
C37    H25     1.101   1_544 S
C37    H26     1.097   1_544 S
C37    H27     1.101   1_545 S
C38    H28     1.101   .     S
C38    H30     1.097   .     S
C38    H29     1.101   1_554 S
C39    H31     1.101   1_455 S
C39    H32     1.101   1_454 S
C39    H33     1.097   1_455 S
C40    H36     1.100   .     S
C40    H35     1.097   .     S
C40    H34     1.101   1_554 S
C41    H39     1.101   .     S
C41    H37     1.101   1_554 S
C41    H38     1.097   1_554 S
C42    H40     1.101   .     S
C42    H42     1.097   .     S
C42    H41     1.101   1_554 S
C43    C49     1.457   .     S
C43    C44     1.399   1_655 D
C43    C48     1.405   1_565 S
C44    C45     1.404   .     S
C44    H70     1.091   .     S
C44    C43     1.399   1_455 D
C45    C50     1.456   .     S
C45    C46     1.400   1_565 D
C46    H72     1.092   .     S
C46    C45     1.400   1_545 D
C46    C47     1.405   1_455 S
C47    C48     1.399   .     D
C47    C51     1.457   .     S
C47    C46     1.405   1_655 S
C48    H71     1.091   .     S
C48    C43     1.405   1_545 S
C49    N9      1.292   .     D
C49    H19     1.092   .     S
C50    H13     1.092   .     S
C50    N7      1.292   .     D
C51    H14     1.092   .     S
C51    N8      1.292   .     D
C52    N7      1.402   .     S
C52    C54     1.428   .     S
C52    C53     1.411   .     D
C53    H17     1.092   .     S
C53    C55     1.392   .     S
C54    C79     1.507   .     S
C54    C56     1.394   .     D
C55    C57     1.428   .     D
C55    C80     1.506   .     S
C56    H22     1.092   .     S
C56    C57     1.412   .     S
C57    N12     1.402   .     S
C58    C59     1.410   .     D
C58    N9      1.401   .     S
C58    C60     1.429   .     S
C59    C61     1.392   .     S
C59    H16     1.092   .     S
C60    C62     1.393   .     D
C60    C81     1.507   .     S
C61    C82     1.506   .     S
C61    C63     1.428   .     D
C62    C63     1.412   .     S
C62    H20     1.092   .     S
C63    N11     1.402   .     S
C64    N8      1.402   .     S
C64    C66     1.429   .     S
C64    C65     1.411   .     D
C65    H18     1.092   .     S
C65    C67     1.392   .     S
C66    C68     1.394   .     D
C66    C83     1.507   .     S
C67    C69     1.428   .     D
C67    C84     1.506   .     S
C68    C69     1.412   .     S
C68    H21     1.092   .     S
C69    N10     1.402   .     S
C70    H23     1.093   .     S
C70    N10     1.291   .     D
C70    C75     1.461   .     S
C71    H64     1.092   .     S
C71    C78     1.406   .     S
C71    C76     1.402   .     D
C72    N11     1.291   .     D
C72    H24     1.093   .     S
C72    C76     1.462   .     S
C73    H15     1.094   .     S
C73    C78     1.461   .     S
C73    N12     1.290   .     D
C74    C75     1.406   .     S
C74    H65     1.092   .     S
C74    C78     1.402   .     D
C75    C77     1.402   .     D
C76    C77     1.406   .     S
C77    H66     1.092   .     S
C79    H43     1.101   1_565 S
C79    H44     1.101   1_565 S
C79    H45     1.097   1_565 S
C80    H46     1.100   .     S
C80    H47     1.097   .     S
C80    H48     1.101   .     S
C81    H49     1.101   1_655 S
C81    H50     1.097   1_655 S
C81    H51     1.100   1_655 S
C82    H54     1.097   .     S
C82    H53     1.101   .     S
C82    H52     1.100   .     S
C83    H56     1.101   .     S
C83    H57     1.097   .     S
C83    H55     1.101   .     S
C84    H58     1.100   .     S
C84    H59     1.097   .     S
C84    H60     1.101   .     S
H3     C31     1.094   1_556 S
H6     C23     1.092   1_556 S
H7     C7      1.092   1_556 S
H9     C26     1.092   1_556 S
H10    C14     1.092   1_556 S
H11    C28     1.094   1_556 S
H12    C30     1.094   1_556 S
H25    C37     1.101   1_566 S
H26    C37     1.097   1_566 S
H27    C37     1.101   1_565 S
H29    C38     1.101   1_556 S
H31    C39     1.101   1_655 S
H32    C39     1.101   1_656 S
H33    C39     1.097   1_655 S
H34    C40     1.101   1_556 S
H37    C41     1.101   1_556 S
H38    C41     1.097   1_556 S
H41    C42     1.101   1_556 S
H43    C79     1.101   1_545 S
H44    C79     1.101   1_545 S
H45    C79     1.097   1_545 S
H49    C81     1.101   1_455 S
H50    C81     1.097   1_455 S
H51    C81     1.100   1_455 S
H61    C29     1.092   1_556 S
H62    C32     1.092   1_556 S
H63    C35     1.092   1_556 S
H67    C4      1.091   1_556 S
H68    C6      1.092   1_556 S
