data_1085
_audit_creation_date              2023-09-08
_audit_creation_method            'Materials Studio'
_symmetry_space_group_name_H-M    'P1'
_symmetry_Int_Tables_number       1
_symmetry_cell_setting            triclinic
loop_
_symmetry_equiv_pos_as_xyz
  x,y,z
_cell_length_a                    30.2361
_cell_length_b                    30.2325
_cell_length_c                    3.7704
_cell_angle_alpha                 89.9432
_cell_angle_beta                  90.0126
_cell_angle_gamma                 59.9590
loop_
_atom_site_label
_atom_site_type_symbol
_atom_site_fract_x
_atom_site_fract_y
_atom_site_fract_z
_atom_site_U_iso_or_equiv
_atom_site_adp_type
_atom_site_occupancy
C1     C     0.02261   0.03039   0.00006   0.00000  Uiso   1.00
C2     C     0.96913   0.05368   0.00014   0.00000  Uiso   1.00
C3     C     0.94671   0.02275  -0.00006   0.00000  Uiso   1.00
C4     C     0.97693   0.96928  -0.00015   0.00000  Uiso   1.00
C5     C     0.03030   0.94683  -0.00007   0.00000  Uiso   1.00
C6     C     0.05355   0.97701  -0.00015   0.00000  Uiso   1.00
C7     C     0.10866   0.95678   0.00053   0.00000  Uiso   1.00
C8     C     0.93422   0.10880  -0.00108   0.00000  Uiso   1.00
C9     C     0.95684   0.93430   0.00057   0.00000  Uiso   1.00
C10    C     0.91272   0.19583  -0.00028   0.00000  Uiso   1.00
C11    C     0.93522   0.22753   0.00078   0.00000  Uiso   1.00
C12    C     0.85813   0.22052   0.00009   0.00000  Uiso   1.00
C13    C     0.90456   0.28056   0.00046   0.00000  Uiso   1.00
C14    C     0.82956   0.27362  -0.00013   0.00000  Uiso   1.00
C15    C     0.85097   0.30535  -0.00040   0.00000  Uiso   1.00
C16    C     0.19573   0.89142   0.00021   0.00000  Uiso   1.00
C17    C     0.22764   0.83721  -0.00083   0.00000  Uiso   1.00
C18    C     0.22016   0.92154  -0.00004   0.00000  Uiso   1.00
C19    C     0.28063   0.81504  -0.00047   0.00000  Uiso   1.00
C20    C     0.27324   0.89719   0.00011   0.00000  Uiso   1.00
C21    C     0.30518   0.84403   0.00036   0.00000  Uiso   1.00
C22    C     0.89162   0.91245   0.00020   0.00000  Uiso   1.00
C23    C     0.83743   0.93479  -0.00077   0.00000  Uiso   1.00
C24    C     0.92175   0.85786  -0.00002   0.00000  Uiso   1.00
C25    C     0.81525   0.90402  -0.00045   0.00000  Uiso   1.00
C26    C     0.89741   0.82914   0.00020   0.00000  Uiso   1.00
C27    C     0.84426   0.85043   0.00042   0.00000  Uiso   1.00
C28    C     0.81819   0.36148  -0.00042   0.00000  Uiso   1.00
C29    C     0.83924   0.39355  -0.00007   0.00000  Uiso   1.00
C30    C     0.76464   0.38588   0.00047   0.00000  Uiso   1.00
C31    C     0.81025   0.44666   0.00017   0.00000  Uiso   1.00
C32    C     0.73365   0.43881   0.00079   0.00000  Uiso   1.00
C33    C     0.75569   0.47091  -0.00029   0.00000  Uiso   1.00
C34    C     0.36130   0.82078  -0.00045   0.00000  Uiso   1.00
C35    C     0.38564   0.84997   0.00044   0.00000  Uiso   1.00
C36    C     0.44647   0.74347   0.00000   0.00000  Uiso   1.00
C37    C     0.43856   0.82798   0.00083   0.00000  Uiso   1.00
C38    C     0.47067   0.77380  -0.00024   0.00000  Uiso   1.00
C39    C     0.82095   0.81765  -0.00046   0.00000  Uiso   1.00
C40    C     0.76781   0.83884  -0.00007   0.00000  Uiso   1.00
C41    C     0.85004   0.76409   0.00038   0.00000  Uiso   1.00
C42    C     0.74356   0.81003   0.00017   0.00000  Uiso   1.00
C43    C     0.82797   0.73322   0.00079   0.00000  Uiso   1.00
C44    C     0.77378   0.75544  -0.00021   0.00000  Uiso   1.00
C45    C     0.64446   0.63591   0.00014   0.00000  Uiso   1.00
C46    C     0.61298   0.68922   0.00018   0.00000  Uiso   1.00
C47    C     0.63562   0.71997   0.00011   0.00000  Uiso   1.00
C48    C     0.55799   0.70882  -0.00071   0.00000  Uiso   1.00
C49    C     0.68893   0.69810   0.00023   0.00000  Uiso   1.00
C50    C     0.70861   0.73341  -0.00097   0.00000  Uiso   1.00
C51    C     0.71970   0.64467   0.00015   0.00000  Uiso   1.00
C52    C     0.69787   0.61323   0.00019   0.00000  Uiso   1.00
C53    C     0.73329   0.55822  -0.00107   0.00000  Uiso   1.00
C54    C     0.67665   0.46087  -0.00017   0.00000  Uiso   1.00
C55    C     0.99237   0.20477  -0.00014   0.00000  Uiso   1.00
C56    C     0.80277   0.99190   0.00018   0.00000  Uiso   1.00
C57    C     0.86277   0.67616  -0.00014   0.00000  Uiso   1.00
C58    C     0.20531   0.80247   0.00020   0.00000  Uiso   1.00
C59    C     0.46068   0.86284  -0.00016   0.00000  Uiso   1.00
C60    C     0.84064   0.47382   0.00014   0.00000  Uiso   1.00
C61    C     0.82717   0.19402   0.00014   0.00000  Uiso   1.00
C62    C     0.19339   0.97907  -0.00006   0.00000  Uiso   1.00
C63    C     0.47362   0.68590   0.00012   0.00000  Uiso   1.00
C64    C     0.68601   0.84064   0.00018   0.00000  Uiso   1.00
C65    C     0.97927   0.82714  -0.00005   0.00000  Uiso   1.00
C66    C     0.39338   0.76763  -0.00015   0.00000  Uiso   1.00
H1     H     0.11762   0.98753   0.00204   0.00000  Uiso   1.00
H2     H     0.89445   0.11786   0.99595   0.00000  Uiso   1.00
H3     H     0.98769   0.89458   0.00213   0.00000  Uiso   1.00
H4     H     0.92384   0.30287   0.00243   0.00000  Uiso   1.00
H5     H     0.78818   0.29065   0.00025   0.00000  Uiso   1.00
H6     H     0.30312   0.77342   0.99763   0.00000  Uiso   1.00
H7     H     0.29008   0.92171   0.99966   0.00000  Uiso   1.00
H8     H     0.77364   0.92319   0.99767   0.00000  Uiso   1.00
H9     H     0.92193   0.78776   0.99971   0.00000  Uiso   1.00
H10    H     0.88062   0.37678   0.00041   0.00000  Uiso   1.00
H11    H     0.74567   0.36330   0.00247   0.00000  Uiso   1.00
H12    H     0.37663   0.74302   0.00050   0.00000  Uiso   1.00
H13    H     0.36300   0.89156   0.00238   0.00000  Uiso   1.00
H14    H     0.74325   0.88023   0.00063   0.00000  Uiso   1.00
H15    H     0.89163   0.74499   0.00238   0.00000  Uiso   1.00
H16    H     0.54946   0.67776   0.99755   0.00000  Uiso   1.00
H17    H     0.67760   0.77307   0.99663   0.00000  Uiso   1.00
H18    H     0.77290   0.54968   0.99647   0.00000  Uiso   1.00
H19    H     0.65724   0.49603   0.15647   0.00000  Uiso   1.00
H20    H     0.66122   0.47080   0.72898   0.00000  Uiso   1.00
H21    H     0.66704   0.43277   0.10428   0.00000  Uiso   1.00
H22    H     0.01149   0.16932   0.15402   0.00000  Uiso   1.00
H23    H     0.00766   0.19524   0.72866   0.00000  Uiso   1.00
H24    H     0.00250   0.23235   0.10709   0.00000  Uiso   1.00
H25    H     0.79729   0.00728   0.27097   0.00000  Uiso   1.00
H26    H     0.81870   0.01115   0.84366   0.00000  Uiso   1.00
H27    H     0.76495   0.00185   0.89549   0.00000  Uiso   1.00
H28    H     0.84692   0.65685   0.15668   0.00000  Uiso   1.00
H29    H     0.86821   0.66081   0.72905   0.00000  Uiso   1.00
H30    H     0.90056   0.66634   0.10416   0.00000  Uiso   1.00
H31    H     0.19554   0.79681   0.27105   0.00000  Uiso   1.00
H32    H     0.17009   0.81834   0.84381   0.00000  Uiso   1.00
H33    H     0.23328   0.76471   0.89537   0.00000  Uiso   1.00
H34    H     0.49581   0.84704   0.15727   0.00000  Uiso   1.00
H35    H     0.47068   0.86826   0.72908   0.00000  Uiso   1.00
H36    H     0.43260   0.90063   0.10337   0.00000  Uiso   1.00
H37    H     0.88160   0.44558   0.00615   0.00000  Uiso   1.00
H38    H     0.83349   0.49763   0.76290   0.00000  Uiso   1.00
H39    H     0.83233   0.49891   0.23097   0.00000  Uiso   1.00
H40    H     0.78634   0.22269   0.00381   0.00000  Uiso   1.00
H41    H     0.83418   0.17011   0.76412   0.00000  Uiso   1.00
H42    H     0.83500   0.16918   0.23227   0.00000  Uiso   1.00
H43    H     0.16897   0.99591   0.23388   0.00000  Uiso   1.00
H44    H     0.22189   0.99143   0.00038   0.00000  Uiso   1.00
H45    H     0.16897   0.99599   0.76574   0.00000  Uiso   1.00
H46    H     0.49847   0.66906   0.23242   0.00000  Uiso   1.00
H47    H     0.44536   0.67323   0.00343   0.00000  Uiso   1.00
H48    H     0.49765   0.66922   0.76426   0.00000  Uiso   1.00
H49    H     0.67345   0.88155   0.00565   0.00000  Uiso   1.00
H50    H     0.66925   0.83362   0.76321   0.00000  Uiso   1.00
H51    H     0.66917   0.83243   0.23130   0.00000  Uiso   1.00
H52    H     0.99616   0.83474   0.23356   0.00000  Uiso   1.00
H53    H     0.99171   0.78624   0.00104   0.00000  Uiso   1.00
H54    H     0.99610   0.83463   0.76544   0.00000  Uiso   1.00
H55    H     0.62746   0.61144   0.99973   0.00000  Uiso   1.00
H56    H     0.61113   0.76147   0.99972   0.00000  Uiso   1.00
H57    H     0.76119   0.62765   0.99971   0.00000  Uiso   1.00
H58    H     0.05439   0.90528   0.00022   0.00000  Uiso   1.00
H59    H     0.90517   0.04024   0.00011   0.00000  Uiso   1.00
H60    H     0.04004   0.05448   0.99989   0.00000  Uiso   1.00
N1     N     0.14316   0.90899  -0.00017   0.00000  Uiso   1.00
N2     N     0.94756   0.14322   0.00047   0.00000  Uiso   1.00
N3     N     0.90911   0.94749  -0.00017   0.00000  Uiso   1.00
N4     N     0.52317   0.75649   0.00024   0.00000  Uiso   1.00
N5     N     0.75631   0.72040   0.00038   0.00000  Uiso   1.00
N6     N     0.72046   0.52342   0.00040   0.00000  Uiso   1.00
loop_
_geom_bond_atom_site_label_1
_geom_bond_atom_site_label_2
_geom_bond_distance
_geom_bond_site_symmetry_2
_ccdc_geom_bond_type
C1     C2      1.404   1_455 S
C1     C6      1.403   1_545 D
C1     H60     1.092   1_554 S
C2     C8      1.459   .     S
C2     C3      1.403   .     D
C2     C1      1.404   1_655 S
C3     H59     1.092   .     S
C3     C4      1.403   1_545 S
C4     C9      1.460   .     S
C4     C3      1.403   1_565 S
C4     C5      1.403   1_655 D
C5     C6      1.403   .     S
C5     H58     1.092   .     S
C5     C4      1.403   1_455 D
C6     C7      1.460   .     S
C6     C1      1.403   1_565 D
C7     H1      1.091   .     S
C7     N1      1.291   .     D
C8     N2      1.291   .     D
C8     H2      1.091   1_554 S
C9     H3      1.091   .     S
C9     N3      1.291   .     D
C10    C11     1.426   .     D
C10    C12     1.431   .     S
C10    N2      1.401   .     S
C11    C13     1.393   .     S
C11    C55     1.506   .     S
C12    C61     1.506   .     S
C12    C14     1.391   .     D
C13    H4      1.090   .     S
C13    C15     1.404   .     D
C14    C15     1.400   .     S
C14    H5      1.089   .     S
C15    C28     1.476   .     S
C16    N1      1.401   .     S
C16    C18     1.431   .     D
C16    C17     1.426   .     S
C17    C19     1.393   .     D
C17    C58     1.506   .     S
C18    C62     1.507   .     S
C18    C20     1.391   .     S
C19    C21     1.404   .     S
C19    H6      1.090   1_554 S
C20    C21     1.401   .     D
C20    H7      1.089   1_554 S
C21    C34     1.476   .     S
C22    N3      1.401   .     S
C22    C23     1.426   .     S
C22    C24     1.431   .     D
C23    C25     1.393   .     D
C23    C56     1.506   .     S
C24    C65     1.507   .     S
C24    C26     1.391   .     S
C25    C27     1.404   .     S
C25    H8      1.090   1_554 S
C26    C27     1.400   .     D
C26    H9      1.089   1_554 S
C27    C39     1.476   .     S
C28    C29     1.401   .     D
C28    C30     1.404   .     S
C29    C31     1.392   .     S
C29    H10     1.090   .     S
C30    H11     1.090   .     S
C30    C32     1.392   .     D
C31    C60     1.508   .     S
C31    C33     1.431   .     D
C32    C33     1.426   .     S
C32    C54     1.505   .     S
C33    N6      1.401   .     S
C34    C66     1.401   .     D
C34    C35     1.404   .     S
C35    C37     1.392   .     D
C35    H13     1.090   .     S
C36    C63     1.508   .     S
C36    C66     1.392   .     S
C36    C38     1.431   .     D
C37    C59     1.505   .     S
C37    C38     1.426   .     S
C38    N4      1.401   .     S
C39    C40     1.401   .     S
C39    C41     1.403   .     D
C40    H14     1.089   .     S
C40    C42     1.391   .     D
C41    H15     1.090   .     S
C41    C43     1.393   .     S
C42    C64     1.507   .     S
C42    C44     1.431   .     S
C43    C44     1.426   .     D
C43    C57     1.505   .     S
C44    N5      1.401   .     S
C45    C52     1.403   .     D
C45    C46     1.403   .     S
C45    H55     1.092   1_554 S
C46    C47     1.404   .     D
C46    C48     1.459   .     S
C47    C49     1.403   .     S
C47    H56     1.092   1_554 S
C48    N4      1.291   .     D
C48    H16     1.091   1_554 S
C49    C51     1.404   .     D
C49    C50     1.459   .     S
C50    N5      1.291   .     D
C50    H17     1.091   1_554 S
C51    C52     1.403   .     S
C51    H57     1.092   1_554 S
C52    C53     1.459   .     S
C53    N6      1.291   .     D
C53    H18     1.092   1_554 S
C54    H19     1.095   .     S
C54    H21     1.099   .     S
C54    H20     1.100   1_554 S
C55    H22     1.095   1_655 S
C55    H23     1.100   1_654 S
C55    H24     1.099   1_655 S
C56    H25     1.100   1_565 S
C56    H26     1.095   1_564 S
C56    H27     1.100   1_564 S
C57    H28     1.095   .     S
C57    H30     1.099   .     S
C57    H29     1.100   1_554 S
C58    H31     1.100   .     S
C58    H32     1.095   1_554 S
C58    H33     1.100   1_554 S
C59    H36     1.099   .     S
C59    H34     1.095   .     S
C59    H35     1.100   1_554 S
C60    H39     1.098   .     S
C60    H37     1.098   .     S
C60    H38     1.099   1_554 S
C61    H42     1.098   .     S
C61    H40     1.097   .     S
C61    H41     1.099   1_554 S
C62    H43     1.099   .     S
C62    H44     1.098   .     S
C62    H45     1.099   1_554 S
C63    H47     1.098   .     S
C63    H46     1.099   .     S
C63    H48     1.099   1_554 S
C64    H51     1.098   .     S
C64    H49     1.097   .     S
C64    H50     1.099   1_554 S
C65    H52     1.099   .     S
C65    H53     1.098   .     S
C65    H54     1.099   1_554 S
C66    H12     1.090   .     S
H2     C8      1.091   1_556 S
H6     C19     1.090   1_556 S
H7     C20     1.089   1_556 S
H8     C25     1.090   1_556 S
H9     C26     1.089   1_556 S
H16    C48     1.091   1_556 S
H17    C50     1.091   1_556 S
H18    C53     1.092   1_556 S
H20    C54     1.100   1_556 S
H22    C55     1.095   1_455 S
H23    C55     1.100   1_456 S
H24    C55     1.099   1_455 S
H25    C56     1.100   1_545 S
H26    C56     1.095   1_546 S
H27    C56     1.100   1_546 S
H29    C57     1.100   1_556 S
H32    C58     1.095   1_556 S
H33    C58     1.100   1_556 S
H35    C59     1.100   1_556 S
H38    C60     1.099   1_556 S
H41    C61     1.099   1_556 S
H45    C62     1.099   1_556 S
H48    C63     1.099   1_556 S
H50    C64     1.099   1_556 S
H54    C65     1.099   1_556 S
H55    C45     1.092   1_556 S
H56    C47     1.092   1_556 S
H57    C51     1.092   1_556 S
H60    C1      1.092   1_556 S
