data_1086
_audit_creation_date              2023-09-08
_audit_creation_method            'Materials Studio'
_symmetry_space_group_name_H-M    'P1'
_symmetry_Int_Tables_number       1
_symmetry_cell_setting            triclinic
loop_
_symmetry_equiv_pos_as_xyz
  x,y,z
_cell_length_a                    30.2367
_cell_length_b                    30.2269
_cell_length_c                    7.1426
_cell_angle_alpha                 89.9654
_cell_angle_beta                  90.0142
_cell_angle_gamma                 59.9819
loop_
_atom_site_label
_atom_site_type_symbol
_atom_site_fract_x
_atom_site_fract_y
_atom_site_fract_z
_atom_site_U_iso_or_equiv
_atom_site_adp_type
_atom_site_occupancy
C1     C     0.02253   0.03038   0.00031   0.00000  Uiso   1.00
C2     C     0.96912   0.05341   0.00015   0.00000  Uiso   1.00
C3     C     0.94674   0.02250   0.00023   0.00000  Uiso   1.00
C4     C     0.97710   0.96909   0.00015   0.00000  Uiso   1.00
C5     C     0.03043   0.94670   0.00020   0.00000  Uiso   1.00
C6     C     0.05346   0.97706   0.00036   0.00000  Uiso   1.00
C7     C     0.10840   0.95693  -0.00079   0.00000  Uiso   1.00
C8     C     0.93406   0.10831  -0.00171   0.00000  Uiso   1.00
C9     C     0.95713   0.93414  -0.00159   0.00000  Uiso   1.00
C10    C     0.91228   0.19538   0.00000   0.00000  Uiso   1.00
C11    C     0.93443   0.22745   0.00072   0.00000  Uiso   1.00
C12    C     0.85759   0.21953   0.00008   0.00000  Uiso   1.00
C13    C     0.90328   0.28045   0.00040   0.00000  Uiso   1.00
C14    C     0.82860   0.27272  -0.00007   0.00000  Uiso   1.00
C15    C     0.84971   0.30485  -0.00027   0.00000  Uiso   1.00
C16    C     0.19533   0.89135  -0.00005   0.00000  Uiso   1.00
C17    C     0.22733   0.83709   0.00082   0.00000  Uiso   1.00
C18    C     0.21960   0.92177  -0.00017   0.00000  Uiso   1.00
C19    C     0.28035   0.81509   0.00052   0.00000  Uiso   1.00
C20    C     0.27275   0.89745  -0.00029   0.00000  Uiso   1.00
C21    C     0.30478   0.84419  -0.00036   0.00000  Uiso   1.00
C22    C     0.89185   0.91240  -0.00007   0.00000  Uiso   1.00
C23    C     0.83760   0.93473   0.00066   0.00000  Uiso   1.00
C24    C     0.92230   0.85776   0.00005   0.00000  Uiso   1.00
C25    C     0.81567   0.90367   0.00040   0.00000  Uiso   1.00
C26    C     0.89804   0.82882  -0.00010   0.00000  Uiso   1.00
C27    C     0.84482   0.85003  -0.00030   0.00000  Uiso   1.00
C28    C     0.81707   0.36114  -0.00014   0.00000  Uiso   1.00
C29    C     0.83875   0.39270  -0.00016   0.00000  Uiso   1.00
C30    C     0.76339   0.38618   0.00011   0.00000  Uiso   1.00
C31    C     0.81051   0.44589  -0.00002   0.00000  Uiso   1.00
C32    C     0.73308   0.43927   0.00027   0.00000  Uiso   1.00
C33    C     0.75593   0.47072   0.00004   0.00000  Uiso   1.00
C34    C     0.36100   0.82059  -0.00018   0.00000  Uiso   1.00
C35    C     0.38574   0.84950   0.00020   0.00000  Uiso   1.00
C36    C     0.44600   0.74277   0.00003   0.00000  Uiso   1.00
C37    C     0.43877   0.82708   0.00034   0.00000  Uiso   1.00
C38    C     0.47052   0.77279   0.00004   0.00000  Uiso   1.00
C39    C     0.82117   0.81740  -0.00024   0.00000  Uiso   1.00
C40    C     0.76792   0.83900  -0.00016   0.00000  Uiso   1.00
C41    C     0.84988   0.76374   0.00036   0.00000  Uiso   1.00
C42    C     0.74314   0.81063   0.00014   0.00000  Uiso   1.00
C43    C     0.82726   0.73331   0.00060   0.00000  Uiso   1.00
C44    C     0.77296   0.75603   0.00008   0.00000  Uiso   1.00
C45    C     0.64487   0.63524   0.00005   0.00000  Uiso   1.00
C46    C     0.61293   0.68851   0.00003   0.00000  Uiso   1.00
C47    C     0.63508   0.71975   0.00000   0.00000  Uiso   1.00
C48    C     0.55794   0.70767  -0.00039   0.00000  Uiso   1.00
C49    C     0.68833   0.69839  -0.00001   0.00000  Uiso   1.00
C50    C     0.70756   0.73416  -0.00089   0.00000  Uiso   1.00
C51    C     0.71961   0.64497   0.00010   0.00000  Uiso   1.00
C52    C     0.69827   0.61307   0.00007   0.00000  Uiso   1.00
C53    C     0.73401   0.55805  -0.00006   0.00000  Uiso   1.00
C54    C     0.39282   0.76736  -0.00016   0.00000  Uiso   1.00
C55    C     0.84157   0.47237  -0.00003   0.00000  Uiso   1.00
C56    C     0.47276   0.68518   0.00007   0.00000  Uiso   1.00
C57    C     0.80238   0.99181   0.00077   0.00000  Uiso   1.00
C58    C     0.20581   0.80157   0.00081   0.00000  Uiso   1.00
C59    C     0.86137   0.67615  -0.00007   0.00000  Uiso   1.00
C60    C     0.67589   0.46274   0.00003   0.00000  Uiso   1.00
C61    C     0.99145   0.20610   0.00054   0.00000  Uiso   1.00
C62    C     0.82738   0.19214   0.00003   0.00000  Uiso   1.00
C63    C     0.19239   0.97935  -0.00061   0.00000  Uiso   1.00
C64    C     0.46183   0.86116   0.00002   0.00000  Uiso   1.00
C65    C     0.68558   0.84162   0.00018   0.00000  Uiso   1.00
C66    C     0.97989   0.82750   0.00015   0.00000  Uiso   1.00
C67    C     0.97741   0.96943   0.50016   0.00000  Uiso   1.00
C68    C     0.03083   0.94640   0.50028   0.00000  Uiso   1.00
C69    C     0.05315   0.97739   0.50027   0.00000  Uiso   1.00
C70    C     0.02272   0.03083   0.50004   0.00000  Uiso   1.00
C71    C     0.96942   0.05318   0.50008   0.00000  Uiso   1.00
C72    C     0.94643   0.02276   0.50017   0.00000  Uiso   1.00
C73    C     0.89149   0.04282   0.49917   0.00000  Uiso   1.00
C74    C     0.06578   0.89142   0.49959   0.00000  Uiso   1.00
C75    C     0.04259   0.06587   0.49824   0.00000  Uiso   1.00
C76    C     0.08737   0.80440   0.49992   0.00000  Uiso   1.00
C77    C     0.06488   0.77263   0.50047   0.00000  Uiso   1.00
C78    C     0.14196   0.78006   0.49980   0.00000  Uiso   1.00
C79    C     0.09570   0.71958   0.50034   0.00000  Uiso   1.00
C80    C     0.17069   0.72684   0.49986   0.00000  Uiso   1.00
C81    C     0.14932   0.69498   0.49981   0.00000  Uiso   1.00
C82    C     0.80449   0.10822   0.49992   0.00000  Uiso   1.00
C83    C     0.77260   0.16250   0.50062   0.00000  Uiso   1.00
C84    C     0.78027   0.07785   0.49981   0.00000  Uiso   1.00
C85    C     0.71958   0.18459   0.50043   0.00000  Uiso   1.00
C86    C     0.72708   0.10223   0.49977   0.00000  Uiso   1.00
C87    C     0.69511   0.15547   0.49976   0.00000  Uiso   1.00
C88    C     0.10793   0.08756   0.49989   0.00000  Uiso   1.00
C89    C     0.16220   0.06520   0.50066   0.00000  Uiso   1.00
C90    C     0.07753   0.14221   0.50001   0.00000  Uiso   1.00
C91    C     0.18422   0.09620   0.50040   0.00000  Uiso   1.00
C92    C     0.10187   0.17104   0.49987   0.00000  Uiso   1.00
C93    C     0.15510   0.14980   0.49960   0.00000  Uiso   1.00
C94    C     0.18199   0.63873   0.49966   0.00000  Uiso   1.00
C95    C     0.16087   0.60663   0.49996   0.00000  Uiso   1.00
C96    C     0.23553   0.61427   0.50038   0.00000  Uiso   1.00
C97    C     0.18977   0.55347   0.50031   0.00000  Uiso   1.00
C98    C     0.26654   0.56125   0.50066   0.00000  Uiso   1.00
C99    C     0.24442   0.52916   0.50010   0.00000  Uiso   1.00
C100   C     0.63888   0.17899   0.49974   0.00000  Uiso   1.00
C101   C     0.61439   0.14992   0.50040   0.00000  Uiso   1.00
C102   C     0.55368   0.25654   0.50034   0.00000  Uiso   1.00
C103   C     0.56140   0.17200   0.50063   0.00000  Uiso   1.00
C104   C     0.52936   0.22623   0.50010   0.00000  Uiso   1.00
C105   C     0.17865   0.18250   0.49979   0.00000  Uiso   1.00
C106   C     0.23186   0.16114   0.50001   0.00000  Uiso   1.00
C107   C     0.14971   0.23613   0.50031   0.00000  Uiso   1.00
C108   C     0.25639   0.18976   0.50024   0.00000  Uiso   1.00
C109   C     0.17203   0.26682   0.50042   0.00000  Uiso   1.00
C110   C     0.22628   0.24437   0.50005   0.00000  Uiso   1.00
C111   C     0.35555   0.36412   0.50015   0.00000  Uiso   1.00
C112   C     0.38701   0.31079   0.50016   0.00000  Uiso   1.00
C113   C     0.36434   0.28002   0.50020   0.00000  Uiso   1.00
C114   C     0.44202   0.29127   0.49845   0.00000  Uiso   1.00
C115   C     0.31101   0.30191   0.50013   0.00000  Uiso   1.00
C116   C     0.29143   0.26647   0.49873   0.00000  Uiso   1.00
C117   C     0.28025   0.35536   0.50012   0.00000  Uiso   1.00
C118   C     0.30213   0.38680   0.50006   0.00000  Uiso   1.00
C119   C     0.26667   0.44183   0.49844   0.00000  Uiso   1.00
C120   C     0.60683   0.23221   0.49997   0.00000  Uiso   1.00
C121   C     0.15936   0.52629   0.50044   0.00000  Uiso   1.00
C122   C     0.52658   0.31413   0.50044   0.00000  Uiso   1.00
C123   C     0.19739   0.00809   0.50080   0.00000  Uiso   1.00
C124   C     0.79476   0.19744   0.50054   0.00000  Uiso   1.00
C125   C     0.13762   0.32392   0.49997   0.00000  Uiso   1.00
C126   C     0.32352   0.53952   0.49996   0.00000  Uiso   1.00
C127   C     0.00776   0.79509   0.50043   0.00000  Uiso   1.00
C128   C     0.17241   0.80718   0.49928   0.00000  Uiso   1.00
C129   C     0.80749   0.02025   0.49943   0.00000  Uiso   1.00
C130   C     0.53934   0.13705   0.49996   0.00000  Uiso   1.00
C131   C     0.31396   0.15903   0.50031   0.00000  Uiso   1.00
C132   C     0.01993   0.17260   0.49986   0.00000  Uiso   1.00
H1     H     0.11754   0.98751   0.99722   0.00000  Uiso   1.00
H2     H     0.89443   0.11723   0.99460   0.00000  Uiso   1.00
H3     H     0.98778   0.89446   0.99484   0.00000  Uiso   1.00
H4     H     0.92231   0.30300   0.00143   0.00000  Uiso   1.00
H5     H     0.78723   0.28945   0.00033   0.00000  Uiso   1.00
H6     H     0.30285   0.77347   0.00151   0.00000  Uiso   1.00
H7     H     0.28952   0.92204   0.00001   0.00000  Uiso   1.00
H8     H     0.77408   0.92275   0.00144   0.00000  Uiso   1.00
H9     H     0.92266   0.78744   0.00025   0.00000  Uiso   1.00
H10    H     0.88015   0.37550   0.99984   0.00000  Uiso   1.00
H11    H     0.74392   0.36404   0.00038   0.00000  Uiso   1.00
H12    H     0.36339   0.89111   0.00057   0.00000  Uiso   1.00
H13    H     0.74362   0.88042   0.00004   0.00000  Uiso   1.00
H14    H     0.89149   0.74433   0.00110   0.00000  Uiso   1.00
H15    H     0.54954   0.67647   0.99895   0.00000  Uiso   1.00
H16    H     0.67645   0.77381   0.99722   0.00000  Uiso   1.00
H17    H     0.77367   0.54947   0.99981   0.00000  Uiso   1.00
H18    H     0.37586   0.74293   0.99990   0.00000  Uiso   1.00
H19    H     0.88241   0.01220   0.49740   0.00000  Uiso   1.00
H20    H     0.10550   0.88231   0.49862   0.00000  Uiso   1.00
H21    H     0.01190   0.10556   0.49446   0.00000  Uiso   1.00
H22    H     0.07653   0.69716   0.50086   0.00000  Uiso   1.00
H23    H     0.21206   0.70995   0.49987   0.00000  Uiso   1.00
H24    H     0.69709   0.22620   0.50117   0.00000  Uiso   1.00
H25    H     0.71030   0.07765   0.49995   0.00000  Uiso   1.00
H26    H     0.22581   0.07708   0.50151   0.00000  Uiso   1.00
H27    H     0.07729   0.21243   0.50026   0.00000  Uiso   1.00
H28    H     0.11950   0.62336   0.50034   0.00000  Uiso   1.00
H29    H     0.25455   0.63682   0.50147   0.00000  Uiso   1.00
H30    H     0.63693   0.10832   0.50141   0.00000  Uiso   1.00
H31    H     0.25634   0.11973   0.50021   0.00000  Uiso   1.00
H32    H     0.10812   0.25532   0.50095   0.00000  Uiso   1.00
H33    H     0.45057   0.32232   0.49484   0.00000  Uiso   1.00
H34    H     0.32240   0.22680   0.49568   0.00000  Uiso   1.00
H35    H     0.22707   0.45043   0.49496   0.00000  Uiso   1.00
H36    H     0.62357   0.25683   0.50031   0.00000  Uiso   1.00
H37    H     0.20582   0.99285   0.35752   0.00000  Uiso   1.00
H38    H     0.18069   0.98803   0.57319   0.00000  Uiso   1.00
H39    H     0.23411   0.99824   0.56602   0.00000  Uiso   1.00
H40    H     0.80908   0.19964   0.36166   0.00000  Uiso   1.00
H41    H     0.82735   0.18429   0.59561   0.00000  Uiso   1.00
H42    H     0.76547   0.23640   0.53976   0.00000  Uiso   1.00
H43    H     0.09813   0.33371   0.53048   0.00000  Uiso   1.00
H44    H     0.13791   0.34036   0.36278   0.00000  Uiso   1.00
H45    H     0.14985   0.34250   0.60303   0.00000  Uiso   1.00
H46    H     0.33818   0.53392   0.35558   0.00000  Uiso   1.00
H47    H     0.34357   0.50230   0.56968   0.00000  Uiso   1.00
H48    H     0.33317   0.56611   0.56872   0.00000  Uiso   1.00
H49    H     0.99802   0.76523   0.52802   0.00000  Uiso   1.00
H50    H     0.99075   0.81266   0.36538   0.00000  Uiso   1.00
H51    H     0.98877   0.82545   0.60446   0.00000  Uiso   1.00
H52    H     0.56742   0.09929   0.55490   0.00000  Uiso   1.00
H53    H     0.52946   0.13156   0.35673   0.00000  Uiso   1.00
H54    H     0.50422   0.15266   0.58278   0.00000  Uiso   1.00
H55    H     0.76457   0.00138   0.05441   0.00000  Uiso   1.00
H56    H     0.79672   0.00769   0.85873   0.00000  Uiso   1.00
H57    H     0.81752   0.01166   0.08385   0.00000  Uiso   1.00
H58    H     0.86290   0.66024   0.85993   0.00000  Uiso   1.00
H59    H     0.84743   0.65751   0.09580   0.00000  Uiso   1.00
H60    H     0.90045   0.66594   0.03958   0.00000  Uiso   1.00
H61    H     0.23060   0.76687   0.08163   0.00000  Uiso   1.00
H62    H     0.20397   0.78903   0.85797   0.00000  Uiso   1.00
H63    H     0.16703   0.81977   0.05742   0.00000  Uiso   1.00
H64    H     0.48190   0.85787   0.86786   0.00000  Uiso   1.00
H65    H     0.49017   0.85082   0.11208   0.00000  Uiso   1.00
H66    H     0.43183   0.90122   0.01783   0.00000  Uiso   1.00
H67    H     0.66551   0.43284   0.01203   0.00000  Uiso   1.00
H68    H     0.65896   0.48439   0.87059   0.00000  Uiso   1.00
H69    H     0.65821   0.48987   0.11588   0.00000  Uiso   1.00
H70    H     0.00537   0.20628   0.85848   0.00000  Uiso   1.00
H71    H     0.01225   0.16662   0.05067   0.00000  Uiso   1.00
H72    H     0.00139   0.22990   0.08724   0.00000  Uiso   1.00
H73    H     0.16827   0.50063   0.62129   0.00000  Uiso   1.00
H74    H     0.16582   0.50335   0.37308   0.00000  Uiso   1.00
H75    H     0.11846   0.55454   0.50668   0.00000  Uiso   1.00
H76    H     0.50089   0.33089   0.62106   0.00000  Uiso   1.00
H77    H     0.50368   0.33067   0.37289   0.00000  Uiso   1.00
H78    H     0.55484   0.32675   0.50703   0.00000  Uiso   1.00
H79    H     0.16512   0.83110   0.37425   0.00000  Uiso   1.00
H80    H     0.21337   0.77890   0.50071   0.00000  Uiso   1.00
H81    H     0.16447   0.83189   0.62230   0.00000  Uiso   1.00
H82    H     0.83118   0.00366   0.37407   0.00000  Uiso   1.00
H83    H     0.77933   0.00745   0.50224   0.00000  Uiso   1.00
H84    H     0.83262   0.00345   0.62150   0.00000  Uiso   1.00
H85    H     0.33054   0.16548   0.37316   0.00000  Uiso   1.00
H86    H     0.32642   0.11815   0.50620   0.00000  Uiso   1.00
H87    H     0.33083   0.16768   0.62137   0.00000  Uiso   1.00
H88    H     0.00316   0.16361   0.62026   0.00000  Uiso   1.00
H89    H     0.00341   0.16635   0.37230   0.00000  Uiso   1.00
H90    H     0.00721   0.21353   0.50644   0.00000  Uiso   1.00
H91    H     0.66870   0.83361   0.12282   0.00000  Uiso   1.00
H92    H     0.66880   0.83479   0.87448   0.00000  Uiso   1.00
H93    H     0.67334   0.88247   0.00310   0.00000  Uiso   1.00
H94    H     0.99644   0.83408   0.87355   0.00000  Uiso   1.00
H95    H     0.99285   0.78652   0.00622   0.00000  Uiso   1.00
H96    H     0.99668   0.83652   0.12030   0.00000  Uiso   1.00
H97    H     0.49691   0.66844   0.87559   0.00000  Uiso   1.00
H98    H     0.44425   0.67283   0.00059   0.00000  Uiso   1.00
H99    H     0.49719   0.66836   0.12398   0.00000  Uiso   1.00
H100   H     0.16733   0.99611   0.12152   0.00000  Uiso   1.00
H101   H     0.16871   0.99598   0.87387   0.00000  Uiso   1.00
H102   H     0.22057   0.99212   0.00215   0.00000  Uiso   1.00
H103   H     0.83430   0.49649   0.12446   0.00000  Uiso   1.00
H104   H     0.83405   0.49677   0.87603   0.00000  Uiso   1.00
H105   H     0.88238   0.44366   0.99941   0.00000  Uiso   1.00
H106   H     0.83656   0.16615   0.11987   0.00000  Uiso   1.00
H107   H     0.83373   0.16922   0.87295   0.00000  Uiso   1.00
H108   H     0.78642   0.22016   0.00679   0.00000  Uiso   1.00
H109   H     0.37257   0.38858   0.49959   0.00000  Uiso   1.00
H110   H     0.38882   0.23852   0.49966   0.00000  Uiso   1.00
H111   H     0.23877   0.37237   0.49965   0.00000  Uiso   1.00
H112   H     0.62838   0.61031   0.99989   0.00000  Uiso   1.00
H113   H     0.61018   0.76119   0.99982   0.00000  Uiso   1.00
H114   H     0.76104   0.62845   0.99983   0.00000  Uiso   1.00
H115   H     0.05445   0.90516   0.99963   0.00000  Uiso   1.00
H116   H     0.90522   0.03997   0.99965   0.00000  Uiso   1.00
H117   H     0.04003   0.05440   0.99971   0.00000  Uiso   1.00
H118   H     0.96003   0.94529   0.49975   0.00000  Uiso   1.00
H119   H     0.09467   0.95999   0.49979   0.00000  Uiso   1.00
H120   H     0.94528   0.09471   0.49965   0.00000  Uiso   1.00
N1     N     0.14272   0.90900   0.00040   0.00000  Uiso   1.00
N2     N     0.94739   0.14280   0.00083   0.00000  Uiso   1.00
N3     N     0.90926   0.94757   0.00075   0.00000  Uiso   1.00
N4     N     0.52306   0.75533   0.00010   0.00000  Uiso   1.00
N5     N     0.75525   0.72118   0.00039   0.00000  Uiso   1.00
N6     N     0.72104   0.52332  -0.00001   0.00000  Uiso   1.00
N7     N     0.85708   0.09074   0.50027   0.00000  Uiso   1.00
N8     N     0.05227   0.85702   0.50010   0.00000  Uiso   1.00
N9     N     0.09044   0.05247   0.50076   0.00000  Uiso   1.00
N10    N     0.47683   0.24359   0.50085   0.00000  Uiso   1.00
N11    N     0.24372   0.27948   0.50070   0.00000  Uiso   1.00
N12    N     0.27957   0.47660   0.50083   0.00000  Uiso   1.00
loop_
_geom_bond_atom_site_label_1
_geom_bond_atom_site_label_2
_geom_bond_distance
_geom_bond_site_symmetry_2
_ccdc_geom_bond_type
C1     C2      1.403   1_455 S
C1     C6      1.401   1_545 D
C1     H117    1.092   1_554 S
C2     C3      1.401   .     D
C2     C8      1.455   .     S
C2     C1      1.403   1_655 S
C3     C4      1.402   1_545 S
C3     H116    1.092   1_554 S
C4     C9      1.456   .     S
C4     C3      1.402   1_565 S
C4     C5      1.402   1_655 D
C5     C6      1.402   .     S
C5     C4      1.402   1_455 D
C5     H115    1.092   1_554 S
C6     C7      1.456   .     S
C6     C1      1.401   1_565 D
C7     N1      1.293   .     D
C7     H1      1.089   1_554 S
C8     N2      1.292   .     D
C8     H2      1.089   1_554 S
C9     N3      1.293   .     D
C9     H3      1.089   1_554 S
C10    N2      1.402   .     S
C10    C11     1.428   .     D
C10    C12     1.435   .     S
C11    C61     1.509   .     S
C11    C13     1.394   .     S
C12    C62     1.509   .     S
C12    C14     1.394   .     D
C13    H4      1.090   .     S
C13    C15     1.404   .     D
C14    C15     1.404   .     S
C14    H5      1.090   .     S
C15    C28     1.479   .     S
C16    C18     1.435   .     D
C16    N1      1.402   .     S
C16    C17     1.428   .     S
C17    C19     1.395   .     D
C17    C58     1.508   .     S
C18    C20     1.393   .     S
C18    C63     1.508   .     S
C19    H6      1.091   .     S
C19    C21     1.403   .     S
C20    C21     1.403   .     D
C20    H7      1.089   .     S
C21    C34     1.478   .     S
C22    N3      1.403   .     S
C22    C23     1.428   .     S
C22    C24     1.433   .     D
C23    C25     1.394   .     D
C23    C57     1.507   .     S
C24    C66     1.508   .     S
C24    C26     1.395   .     S
C25    H8      1.090   .     S
C25    C27     1.406   .     S
C26    C27     1.403   .     D
C26    H9      1.090   .     S
C27    C39     1.480   .     S
C28    C29     1.402   .     D
C28    C30     1.406   .     S
C29    C31     1.393   .     S
C29    H10     1.089   1_554 S
C30    H11     1.090   .     S
C30    C32     1.394   .     D
C31    C55     1.508   .     S
C31    C33     1.431   .     D
C32    C33     1.428   .     S
C32    C60     1.505   .     S
C33    N6      1.401   .     S
C34    C54     1.402   .     D
C34    C35     1.406   .     S
C35    C37     1.394   .     D
C35    H12     1.090   .     S
C36    C56     1.509   .     S
C36    C38     1.430   .     D
C36    C54     1.394   .     S
C37    C64     1.505   .     S
C37    C38     1.428   .     S
C38    N4      1.401   .     S
C39    C40     1.402   .     S
C39    C41     1.406   .     D
C40    H13     1.089   .     S
C40    C42     1.393   .     D
C41    H14     1.090   .     S
C41    C43     1.394   .     S
C42    C44     1.431   .     S
C42    C65     1.508   .     S
C43    C44     1.428   .     D
C43    C59     1.505   .     S
C44    N5      1.400   .     S
C45    C52     1.405   .     D
C45    C46     1.403   .     S
C45    H112    1.092   1_554 S
C46    C47     1.405   .     D
C46    C48     1.462   .     S
C47    C49     1.403   .     S
C47    H113    1.092   1_554 S
C48    N4      1.291   .     D
C48    H15     1.093   1_554 S
C49    C50     1.462   .     S
C49    C51     1.405   .     D
C50    N5      1.291   .     D
C50    H16     1.092   1_554 S
C51    C52     1.403   .     S
C51    H114    1.092   1_554 S
C52    C53     1.461   .     S
C53    N6      1.291   .     D
C53    H17     1.093   1_554 S
C54    H18     1.090   1_554 S
C55    H103    1.100   .     S
C55    H104    1.100   1_554 S
C55    H105    1.097   1_554 S
C56    H98     1.097   .     S
C56    H99     1.100   .     S
C56    H97     1.100   1_554 S
C57    H55     1.099   1_565 S
C57    H56     1.098   1_564 S
C57    H57     1.094   1_565 S
C58    H61     1.099   .     S
C58    H63     1.094   .     S
C58    H62     1.100   1_554 S
C59    H59     1.096   .     S
C59    H60     1.098   .     S
C59    H58     1.101   1_554 S
C60    H67     1.098   .     S
C60    H69     1.098   .     S
C60    H68     1.100   1_554 S
C61    H70     1.100   1_654 S
C61    H71     1.094   1_655 S
C61    H72     1.099   1_655 S
C62    H106    1.099   .     S
C62    H108    1.097   .     S
C62    H107    1.099   1_554 S
C63    H100    1.099   .     S
C63    H102    1.097   .     S
C63    H101    1.099   1_554 S
C64    H65     1.097   .     S
C64    H66     1.098   .     S
C64    H64     1.100   1_554 S
C65    H91     1.100   .     S
C65    H93     1.098   .     S
C65    H92     1.100   1_554 S
C66    H96     1.099   .     S
C66    H95     1.097   .     S
C66    H94     1.099   1_554 S
C67    H118    1.092   .     S
C67    C68     1.403   1_655 D
C67    C72     1.402   1_565 S
C68    C74     1.457   .     S
C68    C69     1.402   .     S
C68    C67     1.403   1_455 D
C69    H119    1.092   .     S
C69    C70     1.403   1_565 D
C70    C75     1.456   .     S
C70    C69     1.403   1_545 D
C70    C71     1.402   1_455 S
C71    C72     1.403   .     D
C71    H120    1.092   .     S
C71    C70     1.402   1_655 S
C72    C73     1.456   .     S
C72    C67     1.402   1_545 S
C73    H19     1.089   .     S
C73    N7      1.293   .     D
C74    H20     1.090   .     S
C74    N8      1.293   .     D
C75    N9      1.293   .     D
C75    H21     1.090   .     S
C76    C77     1.428   .     S
C76    C78     1.432   .     D
C76    N8      1.403   .     S
C77    C127    1.507   .     S
C77    C79     1.394   .     D
C78    C128    1.508   .     S
C78    C80     1.394   .     S
C79    H22     1.090   .     S
C79    C81     1.405   .     S
C80    H23     1.089   .     S
C80    C81     1.403   .     D
C81    C94     1.479   .     S
C82    C84     1.432   .     S
C82    N7      1.403   .     S
C82    C83     1.428   .     D
C83    C85     1.395   .     S
C83    C124    1.507   .     S
C84    C86     1.394   .     D
C84    C129    1.508   .     S
C85    C87     1.405   .     D
C85    H24     1.090   .     S
C86    H25     1.089   .     S
C86    C87     1.403   .     S
C87    C100    1.479   .     S
C88    C90     1.433   .     S
C88    N9      1.402   .     S
C88    C89     1.428   .     D
C89    C123    1.508   .     S
C89    C91     1.395   .     S
C90    C132    1.509   .     S
C90    C92     1.394   .     D
C91    H26     1.090   .     S
C91    C93     1.405   .     D
C92    C93     1.403   .     S
C92    H27     1.090   .     S
C93    C105    1.479   .     S
C94    C96     1.404   .     D
C94    C95     1.403   .     S
C95    C97     1.393   .     D
C95    H28     1.090   .     S
C96    H29     1.090   .     S
C96    C98     1.394   .     S
C97    C121    1.509   .     S
C97    C99     1.434   .     S
C98    C99     1.427   .     D
C98    C126    1.506   .     S
C99    N12     1.401   .     S
C100   C101    1.404   .     S
C100   C120    1.403   .     D
C101   C103    1.394   .     D
C101   H30     1.090   .     S
C102   C104    1.433   .     D
C102   C120    1.393   .     S
C102   C122    1.508   .     S
C103   C130    1.505   .     S
C103   C104    1.427   .     S
C104   N10     1.402   .     S
C105   C106    1.402   .     D
C105   C107    1.405   .     S
C106   C108    1.393   .     S
C106   H31     1.090   .     S
C107   H32     1.090   .     S
C107   C109    1.394   .     D
C108   C131    1.508   .     S
C108   C110    1.432   .     D
C109   C110    1.427   .     S
C109   C125    1.505   .     S
C110   N11     1.402   .     S
C111   H109    1.092   .     S
C111   C118    1.404   .     S
C111   C112    1.403   .     D
C112   C113    1.405   .     S
C112   C114    1.460   .     S
C113   C115    1.404   .     D
C113   H110    1.092   .     S
C114   N10     1.291   .     D
C114   H33     1.091   .     S
C115   C117    1.404   .     S
C115   C116    1.460   .     S
C116   N11     1.292   .     D
C116   H34     1.092   .     S
C117   H111    1.092   .     S
C117   C118    1.404   .     D
C118   C119    1.460   .     S
C119   N12     1.291   .     D
C119   H35     1.091   .     S
C120   H36     1.089   .     S
C121   H73     1.100   .     S
C121   H75     1.097   .     S
C121   H74     1.101   .     S
C122   H76     1.100   .     S
C122   H78     1.097   .     S
C122   H77     1.101   .     S
C123   H37     1.099   1_545 S
C123   H38     1.094   1_545 S
C123   H39     1.099   1_545 S
C124   H41     1.094   .     S
C124   H42     1.098   .     S
C124   H40     1.098   .     S
C125   H43     1.099   .     S
C125   H45     1.096   .     S
C125   H44     1.100   .     S
C126   H47     1.095   .     S
C126   H48     1.099   .     S
C126   H46     1.102   .     S
C127   H49     1.098   1_455 S
C127   H50     1.097   1_455 S
C127   H51     1.094   1_455 S
C128   H80     1.098   .     S
C128   H81     1.100   .     S
C128   H79     1.099   .     S
C129   H83     1.098   .     S
C129   H84     1.099   .     S
C129   H82     1.099   .     S
C130   H54     1.095   .     S
C130   H52     1.099   .     S
C130   H53     1.101   .     S
C131   H87     1.100   .     S
C131   H86     1.098   .     S
C131   H85     1.101   .     S
C132   H88     1.099   .     S
C132   H90     1.098   .     S
C132   H89     1.100   .     S
H1     C7      1.089   1_556 S
H2     C8      1.089   1_556 S
H3     C9      1.089   1_556 S
H10    C29     1.089   1_556 S
H15    C48     1.093   1_556 S
H16    C50     1.092   1_556 S
H17    C53     1.093   1_556 S
H18    C54     1.090   1_556 S
H37    C123    1.099   1_565 S
H38    C123    1.094   1_565 S
H39    C123    1.099   1_565 S
H49    C127    1.098   1_655 S
H50    C127    1.097   1_655 S
H51    C127    1.094   1_655 S
H55    C57     1.099   1_545 S
H56    C57     1.098   1_546 S
H57    C57     1.094   1_545 S
H58    C59     1.101   1_556 S
H62    C58     1.100   1_556 S
H64    C64     1.100   1_556 S
H68    C60     1.100   1_556 S
H70    C61     1.100   1_456 S
H71    C61     1.094   1_455 S
H72    C61     1.099   1_455 S
H92    C65     1.100   1_556 S
H94    C66     1.099   1_556 S
H97    C56     1.100   1_556 S
H101   C63     1.099   1_556 S
H104   C55     1.100   1_556 S
H105   C55     1.097   1_556 S
H107   C62     1.099   1_556 S
H112   C45     1.092   1_556 S
H113   C47     1.092   1_556 S
H114   C51     1.092   1_556 S
H115   C5      1.092   1_556 S
H116   C3      1.092   1_556 S
H117   C1      1.092   1_556 S
