data_1087
_audit_creation_date              2023-09-08
_audit_creation_method            'Materials Studio'
_symmetry_space_group_name_H-M    'P1'
_symmetry_Int_Tables_number       1
_symmetry_cell_setting            triclinic
loop_
_symmetry_equiv_pos_as_xyz
  x,y,z
_cell_length_a                    22.7098
_cell_length_b                    22.7188
_cell_length_c                    3.7846
_cell_angle_alpha                 89.8129
_cell_angle_beta                  88.7867
_cell_angle_gamma                 59.9847
loop_
_atom_site_label
_atom_site_type_symbol
_atom_site_fract_x
_atom_site_fract_y
_atom_site_fract_z
_atom_site_U_iso_or_equiv
_atom_site_adp_type
_atom_site_occupancy
C1     C     0.02392   0.04664   0.00004   0.00000  Uiso   1.00
C2     C     0.95400   0.06985   0.00047   0.00000  Uiso   1.00
C3     C     0.92966   0.02392   0.00018   0.00000  Uiso   1.00
C4     C     0.97637   0.95403  -0.00032   0.00000  Uiso   1.00
C5     C     0.04668   0.92967  -0.00071   0.00000  Uiso   1.00
C6     C     0.06990   0.97635  -0.00064   0.00000  Uiso   1.00
C7     C     0.04476   0.09800   0.00226   0.00000  Uiso   1.00
C8     C     0.85744   0.04479  -0.00015   0.00000  Uiso   1.00
C9     C     0.09805   0.85745   0.00054   0.00000  Uiso   1.00
C10    C     0.73918   0.13307  -0.00086   0.00000  Uiso   1.00
C11    C     0.69970   0.20555  -0.00142   0.00000  Uiso   1.00
C12    C     0.70506   0.09468  -0.00094   0.00000  Uiso   1.00
C13    C     0.62836   0.23896  -0.00021   0.00000  Uiso   1.00
C14    C     0.63375   0.12808  -0.00280   0.00000  Uiso   1.00
C15    C     0.59427   0.20056  -0.00130   0.00000  Uiso   1.00
C16    C     0.13300   0.12805  -0.00145   0.00000  Uiso   1.00
C17    C     0.20550   0.09506  -0.00241   0.00000  Uiso   1.00
C18    C     0.09453   0.20057  -0.00083   0.00000  Uiso   1.00
C19    C     0.23884   0.13299   0.00038   0.00000  Uiso   1.00
C20    C     0.12788   0.23851   0.00207   0.00000  Uiso   1.00
C21    C     0.20039   0.20549   0.00120   0.00000  Uiso   1.00
C22    C     0.12795   0.73924   0.00169   0.00000  Uiso   1.00
C23    C     0.09488   0.69983   0.00225   0.00000  Uiso   1.00
C24    C     0.20048   0.70510   0.00121   0.00000  Uiso   1.00
C25    C     0.13277   0.62854   0.00007   0.00000  Uiso   1.00
C26    C     0.23839   0.63378   0.00247   0.00000  Uiso   1.00
C27    C     0.20531   0.59438   0.00080   0.00000  Uiso   1.00
C28    C     0.37938   0.26371  -0.00032   0.00000  Uiso   1.00
C29    C     0.28861   0.23556  -0.00226   0.00000  Uiso   1.00
C30    C     0.47594   0.28880  -0.00041   0.00000  Uiso   1.00
C31    C     0.35698   0.37955  -0.00016   0.00000  Uiso   1.00
C32    C     0.28666   0.40390   0.00074   0.00000  Uiso   1.00
C33    C     0.30946   0.28691   0.00003   0.00000  Uiso   1.00
C34    C     0.26346   0.35720   0.00072   0.00000  Uiso   1.00
C35    C     0.40371   0.30966  -0.00056   0.00000  Uiso   1.00
C36    C     0.23527   0.47612   0.00015   0.00000  Uiso   1.00
C37    C     0.31540   0.09571   0.00258   0.00000  Uiso   1.00
C38    C     0.58911   0.31553   0.00264   0.00000  Uiso   1.00
C39    C     0.09536   0.58941  -0.00261   0.00000  Uiso   1.00
C40    C     0.01796   0.23789  -0.00284   0.00000  Uiso   1.00
C41    C     0.74425   0.01814   0.00234   0.00000  Uiso   1.00
C42    C     0.23791   0.74423  -0.00227   0.00000  Uiso   1.00
C43    C     0.08732   0.31522   0.00135   0.00000  Uiso   1.00
C44    C     0.24606   0.01837  -0.00147   0.00000  Uiso   1.00
C45    C     0.31514   0.59751   0.00141   0.00000  Uiso   1.00
C46    C     0.01814   0.73613   0.00170   0.00000  Uiso   1.00
C47    C     0.73592   0.24603  -0.00142   0.00000  Uiso   1.00
C48    C     0.59752   0.08759  -0.00139   0.00000  Uiso   1.00
H1     H     0.00083   0.14944   0.00838   0.00000  Uiso   1.00
H2     H     0.84987   0.00092   0.99842   0.00000  Uiso   1.00
H3     H     0.14952   0.84987   0.00192   0.00000  Uiso   1.00
H4     H     0.18378   0.48372   0.00109   0.00000  Uiso   1.00
H5     H     0.48347   0.33271   0.99918   0.00000  Uiso   1.00
H6     H     0.33256   0.18412   0.99164   0.00000  Uiso   1.00
H7     H     0.33712   0.04073   0.01602   0.00000  Uiso   1.00
H8     H     0.33684   0.10639   0.76394   0.00000  Uiso   1.00
H9     H     0.33434   0.11082   0.22953   0.00000  Uiso   1.00
H10    H     0.55405   0.33582   0.23197   0.00000  Uiso   1.00
H11    H     0.62242   0.33722   0.01214   0.00000  Uiso   1.00
H12    H     0.55807   0.33557   0.76601   0.00000  Uiso   1.00
H13    H     0.10577   0.55795   0.23474   0.00000  Uiso   1.00
H14    H     0.04037   0.62280   0.98665   0.00000  Uiso   1.00
H15    H     0.11064   0.55481   0.76881   0.00000  Uiso   1.00
H16    H     0.99656   0.22721   0.23593   0.00000  Uiso   1.00
H17    H     0.99626   0.29288   0.98380   0.00000  Uiso   1.00
H18    H     0.99902   0.22277   0.77029   0.00000  Uiso   1.00
H19    H     0.71084   0.99650   0.01331   0.00000  Uiso   1.00
H20    H     0.77718   0.99724   0.76522   0.00000  Uiso   1.00
H21    H     0.77748   0.99865   0.23107   0.00000  Uiso   1.00
H22    H     0.29300   0.71082   0.98684   0.00000  Uiso   1.00
H23    H     0.22460   0.77799   0.76868   0.00000  Uiso   1.00
H24    H     0.22551   0.77656   0.23459   0.00000  Uiso   1.00
H25    H     0.11941   0.33601   0.07813   0.00000  Uiso   1.00
H26    H     0.06827   0.33437   0.73602   0.00000  Uiso   1.00
H27    H     0.04294   0.33510   0.18176   0.00000  Uiso   1.00
H28    H     0.26506   0.99923   0.26397   0.00000  Uiso   1.00
H29    H     0.21399   0.99757   0.92160   0.00000  Uiso   1.00
H30    H     0.29048   0.99848   0.81835   0.00000  Uiso   1.00
H31    H     0.33543   0.54457   0.07865   0.00000  Uiso   1.00
H32    H     0.33587   0.59750   0.73585   0.00000  Uiso   1.00
H33    H     0.33404   0.62177   0.18133   0.00000  Uiso   1.00
H34    H     0.99724   0.78932   0.07863   0.00000  Uiso   1.00
H35    H     0.99957   0.73529   0.73642   0.00000  Uiso   1.00
H36    H     0.99772   0.71247   0.18201   0.00000  Uiso   1.00
H37    H     0.73431   0.26669   0.26361   0.00000  Uiso   1.00
H38    H     0.78936   0.21342   0.92181   0.00000  Uiso   1.00
H39    H     0.71270   0.28927   0.81793   0.00000  Uiso   1.00
H40    H     0.59722   0.06767   0.26380   0.00000  Uiso   1.00
H41    H     0.54467   0.11999   0.92337   0.00000  Uiso   1.00
H42    H     0.62211   0.04387   0.81720   0.00000  Uiso   1.00
H43    H     0.95845   0.91751   0.99942   0.00000  Uiso   1.00
H44    H     0.12437   0.95842   0.00041   0.00000  Uiso   1.00
H45    H     0.91746   0.12431   0.00105   0.00000  Uiso   1.00
H46    H     0.41593   0.20926   0.00002   0.00000  Uiso   1.00
H47    H     0.37489   0.41609   0.99954   0.00000  Uiso   1.00
H48    H     0.20900   0.37512   0.99954   0.00000  Uiso   1.00
N1     N     0.80935   0.10737   0.00074   0.00000  Uiso   1.00
N2     N     0.08352   0.80941  -0.00008   0.00000  Uiso   1.00
N3     N     0.10734   0.08355  -0.00220   0.00000  Uiso   1.00
N4     N     0.24977   0.52419  -0.00046   0.00000  Uiso   1.00
N5     N     0.52407   0.22625  -0.00011   0.00000  Uiso   1.00
N6     N     0.22603   0.25000   0.00206   0.00000  Uiso   1.00
loop_
_geom_bond_atom_site_label_1
_geom_bond_atom_site_label_2
_geom_bond_distance
_geom_bond_site_symmetry_2
_ccdc_geom_bond_type
C1     C7      1.462   .     S
C1     C2      1.401   1_455 D
C1     C6      1.404   1_545 S
C2     C3      1.404   .     S
C2     H45     1.092   .     S
C2     C1      1.401   1_655 D
C3     C8      1.462   .     S
C3     C4      1.400   1_545 D
C4     C3      1.400   1_565 D
C4     C5      1.404   1_655 S
C4     H43     1.092   1_554 S
C5     C6      1.401   .     D
C5     C9      1.462   .     S
C5     C4      1.404   1_455 S
C6     H44     1.092   .     S
C6     C1      1.404   1_565 S
C7     H1      1.093   .     S
C7     N3      1.288   .     D
C8     N1      1.289   .     D
C8     H2      1.093   1_554 S
C9     H3      1.093   .     S
C9     N2      1.289   .     D
C10    C12     1.427   .     D
C10    C11     1.428   .     S
C10    N1      1.396   .     S
C11    C13     1.404   .     D
C11    C47     1.510   .     S
C12    C14     1.403   .     S
C12    C41     1.506   .     S
C13    C15     1.427   .     S
C13    C38     1.506   .     S
C14    C15     1.428   .     D
C14    C48     1.510   .     S
C15    N5      1.397   .     S
C16    C17     1.428   .     D
C16    C18     1.427   .     S
C16    N3      1.397   .     S
C17    C44     1.509   .     S
C17    C19     1.403   .     S
C18    C40     1.506   .     S
C18    C20     1.404   .     D
C19    C37     1.506   .     S
C19    C21     1.427   .     D
C20    C21     1.428   .     S
C20    C43     1.510   .     S
C21    N6      1.397   .     S
C22    C23     1.428   .     D
C22    C24     1.427   .     S
C22    N2      1.397   .     S
C23    C46     1.510   .     S
C23    C25     1.403   .     S
C24    C26     1.404   .     D
C24    C42     1.506   .     S
C25    C27     1.427   .     D
C25    C39     1.506   .     S
C26    C45     1.510   .     S
C26    C27     1.428   .     S
C27    N4      1.397   .     S
C28    C35     1.404   .     D
C28    C33     1.401   .     S
C28    H46     1.092   .     S
C29    C33     1.462   .     S
C29    N6      1.289   .     D
C29    H6      1.093   1_554 S
C30    C35     1.462   .     S
C30    N5      1.288   .     D
C30    H5      1.093   1_554 S
C31    C35     1.401   .     S
C31    C32     1.404   .     D
C31    H47     1.092   1_554 S
C32    C36     1.462   .     S
C32    C34     1.401   .     S
C33    C34     1.404   .     D
C34    H48     1.092   1_554 S
C36    H4      1.093   .     S
C36    N4      1.289   .     D
C37    H9      1.098   .     S
C37    H7      1.091   .     S
C37    H8      1.100   1_554 S
C38    H10     1.098   .     S
C38    H11     1.091   .     S
C38    H12     1.100   1_554 S
C39    H13     1.100   .     S
C39    H14     1.091   1_554 S
C39    H15     1.098   1_554 S
C40    H16     1.100   1_455 S
C40    H17     1.091   1_454 S
C40    H18     1.098   1_454 S
C41    H19     1.091   1_545 S
C41    H20     1.100   1_544 S
C41    H21     1.098   1_545 S
C42    H24     1.100   .     S
C42    H22     1.091   1_554 S
C42    H23     1.098   1_554 S
C43    H25     1.092   .     S
C43    H27     1.097   .     S
C43    H26     1.101   1_554 S
C44    H28     1.101   1_545 S
C44    H29     1.092   1_544 S
C44    H30     1.097   1_544 S
C45    H31     1.092   .     S
C45    H33     1.097   .     S
C45    H32     1.101   1_554 S
C46    H34     1.092   1_455 S
C46    H35     1.101   1_454 S
C46    H36     1.097   1_455 S
C47    H37     1.101   .     S
C47    H38     1.092   1_554 S
C47    H39     1.097   1_554 S
C48    H40     1.101   .     S
C48    H41     1.092   1_554 S
C48    H42     1.097   1_554 S
H2     C8      1.093   1_556 S
H5     C30     1.093   1_556 S
H6     C29     1.093   1_556 S
H8     C37     1.100   1_556 S
H12    C38     1.100   1_556 S
H14    C39     1.091   1_556 S
H15    C39     1.098   1_556 S
H16    C40     1.100   1_655 S
H17    C40     1.091   1_656 S
H18    C40     1.098   1_656 S
H19    C41     1.091   1_565 S
H20    C41     1.100   1_566 S
H21    C41     1.098   1_565 S
H22    C42     1.091   1_556 S
H23    C42     1.098   1_556 S
H26    C43     1.101   1_556 S
H28    C44     1.101   1_565 S
H29    C44     1.092   1_566 S
H30    C44     1.097   1_566 S
H32    C45     1.101   1_556 S
H34    C46     1.092   1_655 S
H35    C46     1.101   1_656 S
H36    C46     1.097   1_655 S
H38    C47     1.092   1_556 S
H39    C47     1.097   1_556 S
H41    C48     1.092   1_556 S
H42    C48     1.097   1_556 S
H43    C4      1.092   1_556 S
H47    C31     1.092   1_556 S
H48    C34     1.092   1_556 S
