data_1088
_audit_creation_date              2023-09-08
_audit_creation_method            'Materials Studio'
_symmetry_space_group_name_H-M    'P1'
_symmetry_Int_Tables_number       1
_symmetry_cell_setting            triclinic
loop_
_symmetry_equiv_pos_as_xyz
  x,y,z
_cell_length_a                    22.6678
_cell_length_b                    22.6687
_cell_length_c                    7.0023
_cell_angle_alpha                 90.3959
_cell_angle_beta                  90.4617
_cell_angle_gamma                 59.9923
loop_
_atom_site_label
_atom_site_type_symbol
_atom_site_fract_x
_atom_site_fract_y
_atom_site_fract_z
_atom_site_U_iso_or_equiv
_atom_site_adp_type
_atom_site_occupancy
C1     C     0.02309   0.04704   0.00007   0.00000  Uiso   1.00
C2     C     0.95325   0.06980   0.00009   0.00000  Uiso   1.00
C3     C     0.92961   0.02317  -0.00010   0.00000  Uiso   1.00
C4     C     0.97667   0.95333  -0.00013   0.00000  Uiso   1.00
C5     C     0.04694   0.92969  -0.00018   0.00000  Uiso   1.00
C6     C     0.06972   0.97675  -0.00022   0.00000  Uiso   1.00
C7     C     0.04357   0.09859   0.00047   0.00000  Uiso   1.00
C8     C     0.85752   0.04376  -0.00050   0.00000  Uiso   1.00
C9     C     0.09842   0.85760  -0.00041   0.00000  Uiso   1.00
C10    C     0.73943   0.13288   0.00044   0.00000  Uiso   1.00
C11    C     0.70011   0.20564   0.00084   0.00000  Uiso   1.00
C12    C     0.70523   0.09437   0.00020   0.00000  Uiso   1.00
C13    C     0.62863   0.23935   0.00023   0.00000  Uiso   1.00
C14    C     0.63368   0.12820   0.00037   0.00000  Uiso   1.00
C15    C     0.59430   0.20099   0.00031   0.00000  Uiso   1.00
C16    C     0.13269   0.12758   0.00009   0.00000  Uiso   1.00
C17    C     0.20543   0.09408   0.00019   0.00000  Uiso   1.00
C18    C     0.09417   0.20034  -0.00021   0.00000  Uiso   1.00
C19    C     0.23918   0.13178  -0.00004   0.00000  Uiso   1.00
C20    C     0.12807   0.23799   0.00049   0.00000  Uiso   1.00
C21    C     0.20086   0.20445   0.00019   0.00000  Uiso   1.00
C22    C     0.12721   0.73956   0.00032   0.00000  Uiso   1.00
C23    C     0.09360   0.70042   0.00096   0.00000  Uiso   1.00
C24    C     0.19991   0.70527   0.00006   0.00000  Uiso   1.00
C25    C     0.13123   0.62893  -0.00002   0.00000  Uiso   1.00
C26    C     0.23752   0.63374   0.00011   0.00000  Uiso   1.00
C27    C     0.20397   0.59449  -0.00007   0.00000  Uiso   1.00
C28    C     0.23343   0.47597   0.00070   0.00000  Uiso   1.00
C29    C     0.38012   0.26345  -0.00007   0.00000  Uiso   1.00
C30    C     0.28996   0.23375  -0.00035   0.00000  Uiso   1.00
C31    C     0.47580   0.29006   0.00055   0.00000  Uiso   1.00
C32    C     0.35591   0.38026   0.00010   0.00000  Uiso   1.00
C33    C     0.28556   0.40370   0.00022   0.00000  Uiso   1.00
C34    C     0.31026   0.28574  -0.00016   0.00000  Uiso   1.00
C35    C     0.26332   0.35608  -0.00002   0.00000  Uiso   1.00
C36    C     0.40350   0.31038   0.00011   0.00000  Uiso   1.00
C37    C     0.24658   0.01717   0.00045   0.00000  Uiso   1.00
C38    C     0.73589   0.24677   0.00129   0.00000  Uiso   1.00
C39    C     0.01666   0.73656   0.00168   0.00000  Uiso   1.00
C40    C     0.74417   0.01756  -0.00034   0.00000  Uiso   1.00
C41    C     0.59009   0.31614  -0.00078   0.00000  Uiso   1.00
C42    C     0.01736   0.23802  -0.00135   0.00000  Uiso   1.00
C43    C     0.31597   0.09335  -0.00022   0.00000  Uiso   1.00
C44    C     0.23785   0.74412  -0.00028   0.00000  Uiso   1.00
C45    C     0.09295   0.59040  -0.00103   0.00000  Uiso   1.00
C46    C     0.08758   0.31496   0.00050   0.00000  Uiso   1.00
C47    C     0.31447   0.59758   0.00004   0.00000  Uiso   1.00
C48    C     0.59758   0.08736   0.00022   0.00000  Uiso   1.00
C49    C     0.97654   0.95293   0.49976   0.00000  Uiso   1.00
C50    C     0.04643   0.93005   0.49985   0.00000  Uiso   1.00
C51    C     0.07017   0.97661   0.50010   0.00000  Uiso   1.00
C52    C     0.02312   0.04650   0.50011   0.00000  Uiso   1.00
C53    C     0.95283   0.07025   0.50008   0.00000  Uiso   1.00
C54    C     0.93001   0.02322   0.50001   0.00000  Uiso   1.00
C55    C     0.95581   0.90152   0.49898   0.00000  Uiso   1.00
C56    C     0.14225   0.95607   0.50041   0.00000  Uiso   1.00
C57    C     0.90117   0.14230   0.49998   0.00000  Uiso   1.00
C58    C     0.26044   0.86690   0.50026   0.00000  Uiso   1.00
C59    C     0.29952   0.79415   0.50023   0.00000  Uiso   1.00
C60    C     0.29476   0.90542   0.50002   0.00000  Uiso   1.00
C61    C     0.37101   0.76021   0.50017   0.00000  Uiso   1.00
C62    C     0.36632   0.87136   0.50118   0.00000  Uiso   1.00
C63    C     0.40537   0.79848   0.50039   0.00000  Uiso   1.00
C64    C     0.86665   0.87263   0.50027   0.00000  Uiso   1.00
C65    C     0.79389   0.90605   0.50041   0.00000  Uiso   1.00
C66    C     0.90516   0.79989   0.50009   0.00000  Uiso   1.00
C67    C     0.76018   0.86828   0.50009   0.00000  Uiso   1.00
C68    C     0.87136   0.76215   0.50041   0.00000  Uiso   1.00
C69    C     0.79855   0.79558   0.50021   0.00000  Uiso   1.00
C70    C     0.87190   0.26064   0.50029   0.00000  Uiso   1.00
C71    C     0.90554   0.29971   0.50015   0.00000  Uiso   1.00
C72    C     0.79898   0.29498   0.50017   0.00000  Uiso   1.00
C73    C     0.86793   0.37120   0.50014   0.00000  Uiso   1.00
C74    C     0.76149   0.36654   0.50126   0.00000  Uiso   1.00
C75    C     0.79534   0.40555   0.50041   0.00000  Uiso   1.00
C76    C     0.76599   0.52393   0.49923   0.00000  Uiso   1.00
C77    C     0.61942   0.73633   0.50023   0.00000  Uiso   1.00
C78    C     0.70947   0.76621   0.50047   0.00000  Uiso   1.00
C79    C     0.52384   0.70945   0.49946   0.00000  Uiso   1.00
C80    C     0.64375   0.61950   0.50012   0.00000  Uiso   1.00
C81    C     0.71405   0.59622   0.50007   0.00000  Uiso   1.00
C82    C     0.68927   0.71415   0.50033   0.00000  Uiso   1.00
C83    C     0.73628   0.64383   0.50016   0.00000  Uiso   1.00
C84    C     0.59609   0.68932   0.50019   0.00000  Uiso   1.00
C85    C     0.75264   0.98296   0.50058   0.00000  Uiso   1.00
C86    C     0.26366   0.75310   0.50019   0.00000  Uiso   1.00
C87    C     0.98245   0.26393   0.50014   0.00000  Uiso   1.00
C88    C     0.25523   0.98221   0.49807   0.00000  Uiso   1.00
C89    C     0.40939   0.68341   0.49983   0.00000  Uiso   1.00
C90    C     0.98196   0.76198   0.49909   0.00000  Uiso   1.00
C91    C     0.68336   0.90657   0.49952   0.00000  Uiso   1.00
C92    C     0.76205   0.25513   0.49819   0.00000  Uiso   1.00
C93    C     0.90638   0.40953   0.49990   0.00000  Uiso   1.00
C94    C     0.91217   0.68521   0.50023   0.00000  Uiso   1.00
C95    C     0.68445   0.40469   0.50099   0.00000  Uiso   1.00
C96    C     0.40391   0.91076   0.50089   0.00000  Uiso   1.00
H1     H     0.84947   0.00014   0.99853   0.00000  Uiso   1.00
H2     H     0.15010   0.84952   0.99893   0.00000  Uiso   1.00
H3     H     0.48346   0.33401   0.00162   0.00000  Uiso   1.00
H4     H    -0.00012   0.15023   0.00112   0.00000  Uiso   1.00
H5     H     0.18186   0.48351   0.00202   0.00000  Uiso   1.00
H6     H     0.33387   0.18211   0.99928   0.00000  Uiso   1.00
H7     H     0.15009   0.99980   0.50116   0.00000  Uiso   1.00
H8     H     0.84965   0.14997   0.49968   0.00000  Uiso   1.00
H9     H     0.51625   0.66544   0.49836   0.00000  Uiso   1.00
H10    H     0.99939   0.84982   0.49701   0.00000  Uiso   1.00
H11    H     0.81764   0.51618   0.49813   0.00000  Uiso   1.00
H12    H     0.66548   0.81780   0.50088   0.00000  Uiso   1.00
H13    H     0.77654   0.99699   0.87291   0.00000  Uiso   1.00
H14    H     0.71018   0.99640   0.00059   0.00000  Uiso   1.00
H15    H     0.77770   0.99713   0.12509   0.00000  Uiso   1.00
H16    H     0.55827   0.33706   0.12732   0.00000  Uiso   1.00
H17    H     0.55616   0.33645   0.87422   0.00000  Uiso   1.00
H18    H     0.62441   0.33684   0.99548   0.00000  Uiso   1.00
H19    H     0.99701   0.22628   0.12567   0.00000  Uiso   1.00
H20    H     0.99694   0.22460   0.87353   0.00000  Uiso   1.00
H21    H     0.99593   0.29320   0.99582   0.00000  Uiso   1.00
H22    H     0.33641   0.10562   0.87364   0.00000  Uiso   1.00
H23    H     0.33653   0.03832   0.99881   0.00000  Uiso   1.00
H24    H     0.33693   0.10540   0.12683   0.00000  Uiso   1.00
H25    H     0.22522   0.77683   0.87348   0.00000  Uiso   1.00
H26    H     0.29301   0.71010   0.99981   0.00000  Uiso   1.00
H27    H     0.22564   0.77731   0.12563   0.00000  Uiso   1.00
H28    H     0.10427   0.55868   0.12743   0.00000  Uiso   1.00
H29    H     0.10620   0.55636   0.87438   0.00000  Uiso   1.00
H30    H     0.03790   0.62471   0.99419   0.00000  Uiso   1.00
H31    H     0.22292   0.00288   0.62501   0.00000  Uiso   1.00
H32    H     0.22156   0.00189   0.37283   0.00000  Uiso   1.00
H33    H     0.28852   0.00413   0.49469   0.00000  Uiso   1.00
H34    H     0.44210   0.66262   0.37340   0.00000  Uiso   1.00
H35    H     0.37491   0.66286   0.49938   0.00000  Uiso   1.00
H36    H     0.44241   0.66284   0.62659   0.00000  Uiso   1.00
H37    H     0.00207   0.77316   0.37067   0.00000  Uiso   1.00
H38    H     0.00313   0.70684   0.50311   0.00000  Uiso   1.00
H39    H     0.00291   0.77561   0.62264   0.00000  Uiso   1.00
H40    H     0.66289   0.89509   0.62712   0.00000  Uiso   1.00
H41    H     0.66261   0.89353   0.37395   0.00000  Uiso   1.00
H42    H     0.66265   0.96162   0.49709   0.00000  Uiso   1.00
H43    H     0.77510   0.22209   0.62394   0.00000  Uiso   1.00
H44    H     0.77502   0.22214   0.37171   0.00000  Uiso   1.00
H45    H     0.70677   0.28808   0.49680   0.00000  Uiso   1.00
H46    H     0.89394   0.44226   0.37334   0.00000  Uiso   1.00
H47    H     0.96142   0.37504   0.49982   0.00000  Uiso   1.00
H48    H     0.89446   0.44253   0.62653   0.00000  Uiso   1.00
H49    H     0.27916   0.99746   0.87379   0.00000  Uiso   1.00
H50    H     0.21282   0.99576   0.00262   0.00000  Uiso   1.00
H51    H     0.28077   0.99796   0.12485   0.00000  Uiso   1.00
H52    H     0.72583   0.27609   0.86883   0.00000  Uiso   1.00
H53    H     0.79091   0.21316   0.01481   0.00000  Uiso   1.00
H54    H     0.71842   0.28394   0.11869   0.00000  Uiso   1.00
H55    H     0.99736   0.71711   0.11361   0.00000  Uiso   1.00
H56    H     0.99647   0.72942   0.86569   0.00000  Uiso   1.00
H57    H     0.99566   0.79122   0.02349   0.00000  Uiso   1.00
H58    H     0.04740   0.33482   0.10917   0.00000  Uiso   1.00
H59    H     0.06242   0.33458   0.86139   0.00000  Uiso   1.00
H60    H     0.12135   0.33551   0.02792   0.00000  Uiso   1.00
H61    H     0.33377   0.60985   0.87133   0.00000  Uiso   1.00
H62    H     0.33528   0.54252   0.00442   0.00000  Uiso   1.00
H63    H     0.33421   0.61263   0.12393   0.00000  Uiso   1.00
H64    H     0.61290   0.05289   0.12366   0.00000  Uiso   1.00
H65    H     0.60960   0.05544   0.87111   0.00000  Uiso   1.00
H66    H     0.54252   0.12160   0.00515   0.00000  Uiso   1.00
H67    H     0.71721   0.00243   0.62127   0.00000  Uiso   1.00
H68    H     0.72136   0.00229   0.37061   0.00000  Uiso   1.00
H69    H     0.78627   0.00448   0.50882   0.00000  Uiso   1.00
H70    H     0.27829   0.71943   0.62489   0.00000  Uiso   1.00
H71    H     0.27691   0.71996   0.37385   0.00000  Uiso   1.00
H72    H     0.20848   0.78687   0.50167   0.00000  Uiso   1.00
H73    H     0.00171   0.27762   0.37450   0.00000  Uiso   1.00
H74    H     0.00388   0.20874   0.50052   0.00000  Uiso   1.00
H75    H     0.00206   0.27814   0.62561   0.00000  Uiso   1.00
H76    H     0.94235   0.66551   0.36877   0.00000  Uiso   1.00
H77    H     0.87798   0.66445   0.50979   0.00000  Uiso   1.00
H78    H     0.94825   0.66579   0.62090   0.00000  Uiso   1.00
H79    H     0.66329   0.37676   0.57324   0.00000  Uiso   1.00
H80    H     0.66410   0.41481   0.35385   0.00000  Uiso   1.00
H81    H     0.66517   0.45427   0.57043   0.00000  Uiso   1.00
H82    H     0.40863   0.92567   0.35466   0.00000  Uiso   1.00
H83    H     0.45557   0.87899   0.55639   0.00000  Uiso   1.00
H84    H     0.37813   0.95751   0.58651   0.00000  Uiso   1.00
H85    H     0.41736   0.20906   0.99992   0.00000  Uiso   1.00
H86    H     0.37307   0.41748   1.00008   0.00000  Uiso   1.00
H87    H     0.20894   0.37317   0.99983   0.00000  Uiso   1.00
H88    H     0.58206   0.79070   0.49964   0.00000  Uiso   1.00
H89    H     0.62678   0.58212   0.49954   0.00000  Uiso   1.00
H90    H     0.79065   0.62674   0.49981   0.00000  Uiso   1.00
H91    H     0.95909   0.91646   0.99973   0.00000  Uiso   1.00
H92    H     0.12419   0.95915   0.99978   0.00000  Uiso   1.00
H93    H     0.91636   0.12426   1.00001   0.00000  Uiso   1.00
H94    H     0.08325   0.87557   0.49979   0.00000  Uiso   1.00
H95    H     0.87553   0.04086   0.49999   0.00000  Uiso   1.00
H96    H     0.04081   0.08329   0.50005   0.00000  Uiso   1.00
N1     N     0.80979   0.10680   0.00034   0.00000  Uiso   1.00
N2     N     0.08305   0.80992   0.00015   0.00000  Uiso   1.00
N3     N     0.10658   0.08335  -0.00005   0.00000  Uiso   1.00
N4     N     0.24808   0.52409  -0.00038   0.00000  Uiso   1.00
N5     N     0.22713   0.24857   0.00005   0.00000  Uiso   1.00
N6     N     0.52388   0.22724  -0.00016   0.00000  Uiso   1.00
N7     N     0.19007   0.89308   0.49991   0.00000  Uiso   1.00
N8     N     0.91612   0.19027   0.50019   0.00000  Uiso   1.00
N9     N     0.89276   0.91688   0.50052   0.00000  Uiso   1.00
N10    N     0.75114   0.47594   0.50002   0.00000  Uiso   1.00
N11    N     0.77228   0.75146   0.50006   0.00000  Uiso   1.00
N12    N     0.47575   0.77225   0.50020   0.00000  Uiso   1.00
loop_
_geom_bond_atom_site_label_1
_geom_bond_atom_site_label_2
_geom_bond_distance
_geom_bond_site_symmetry_2
_ccdc_geom_bond_type
C1     C7      1.457   .     S
C1     C2      1.398   1_455 D
C1     C6      1.404   1_545 S
C2     C3      1.404   .     S
C2     C1      1.398   1_655 D
C2     H93     1.091   1_554 S
C3     C8      1.458   .     S
C3     C4      1.398   1_545 D
C4     C3      1.398   1_565 D
C4     C5      1.404   1_655 S
C4     H91     1.091   1_554 S
C5     C6      1.398   .     D
C5     C9      1.458   .     S
C5     C4      1.404   1_455 S
C6     C1      1.404   1_565 S
C6     H92     1.091   1_554 S
C7     H4      1.092   .     S
C7     N3      1.291   .     D
C8     N1      1.291   .     D
C8     H1      1.092   1_554 S
C9     N2      1.291   .     D
C9     H2      1.091   1_554 S
C10    C12     1.428   .     D
C10    N1      1.396   .     S
C10    C11     1.430   .     S
C11    C38     1.511   .     S
C11    C13     1.404   .     D
C12    C14     1.405   .     S
C12    C40     1.508   .     S
C13    C15     1.428   .     S
C13    C41     1.507   .     S
C14    C15     1.430   .     D
C14    C48     1.511   .     S
C15    N6      1.397   .     S
C16    C17     1.429   .     S
C16    C18     1.429   .     D
C16    N3      1.396   .     S
C17    C37     1.511   .     S
C17    C19     1.403   .     D
C18    C42     1.508   .     S
C18    C20     1.405   .     S
C19    C43     1.507   .     S
C19    C21     1.427   .     S
C20    C21     1.430   .     D
C20    C46     1.512   .     S
C21    N5      1.397   .     S
C22    N2      1.396   .     S
C22    C23     1.430   .     D
C22    C24     1.428   .     S
C23    C39     1.511   .     S
C23    C25     1.404   .     S
C24    C26     1.405   .     D
C24    C44     1.508   .     S
C25    C45     1.508   .     S
C25    C27     1.429   .     D
C26    C47     1.511   .     S
C26    C27     1.431   .     S
C27    N4      1.397   .     S
C28    H5      1.094   .     S
C28    C33     1.464   .     S
C28    N4      1.289   .     D
C29    C34     1.401   .     S
C29    C36     1.406   .     D
C29    H85     1.092   1_554 S
C30    C34     1.464   .     S
C30    N5      1.289   .     D
C30    H6      1.093   1_554 S
C31    C36     1.464   .     S
C31    H3      1.093   .     S
C31    N6      1.290   .     D
C32    C33     1.406   .     D
C32    C36     1.401   .     S
C32    H86     1.092   1_554 S
C33    C35     1.401   .     S
C34    C35     1.406   .     D
C35    H87     1.092   1_554 S
C37    H49     1.098   1_544 S
C37    H50     1.092   1_545 S
C37    H51     1.098   1_545 S
C38    H53     1.093   .     S
C38    H54     1.098   .     S
C38    H52     1.099   1_554 S
C39    H55     1.097   1_455 S
C39    H56     1.099   1_454 S
C39    H57     1.093   1_455 S
C40    H13     1.098   1_544 S
C40    H14     1.092   1_545 S
C40    H15     1.098   1_545 S
C41    H16     1.101   .     S
C41    H17     1.100   1_554 S
C41    H18     1.092   1_554 S
C42    H19     1.099   1_455 S
C42    H20     1.098   1_454 S
C42    H21     1.092   1_454 S
C43    H24     1.101   .     S
C43    H22     1.100   1_554 S
C43    H23     1.092   1_554 S
C44    H27     1.098   .     S
C44    H25     1.098   1_554 S
C44    H26     1.093   1_554 S
C45    H28     1.101   .     S
C45    H29     1.100   1_554 S
C45    H30     1.092   1_554 S
C46    H60     1.092   .     S
C46    H58     1.099   .     S
C46    H59     1.102   1_554 S
C47    H62     1.092   .     S
C47    H63     1.101   .     S
C47    H61     1.101   1_554 S
C48    H64     1.101   .     S
C48    H66     1.092   .     S
C48    H65     1.101   1_554 S
C49    C55     1.458   .     S
C49    C50     1.399   1_655 D
C49    C54     1.404   1_565 S
C50    C51     1.404   .     S
C50    H94     1.091   .     S
C50    C49     1.399   1_455 D
C51    C56     1.458   .     S
C51    C52     1.399   1_565 D
C52    H96     1.091   .     S
C52    C51     1.399   1_545 D
C52    C53     1.404   1_455 S
C53    C54     1.398   .     D
C53    C57     1.458   .     S
C53    C52     1.404   1_655 S
C54    H95     1.091   .     S
C54    C49     1.404   1_545 S
C55    H10     1.092   .     S
C55    N9      1.291   .     D
C56    H7      1.091   .     S
C56    N7      1.291   .     D
C57    H8      1.091   .     S
C57    N8      1.291   .     D
C58    N7      1.396   .     S
C58    C60     1.431   .     S
C58    C59     1.429   .     D
C59    C86     1.511   .     S
C59    C61     1.404   .     S
C60    C88     1.508   .     S
C60    C62     1.405   .     D
C61    C63     1.427   .     D
C61    C89     1.508   .     S
C62    C96     1.512   .     S
C62    C63     1.432   .     S
C63    N12     1.396   .     S
C64    C65     1.430   .     D
C64    N9      1.397   .     S
C64    C66     1.429   .     S
C65    C85     1.511   .     S
C65    C67     1.404   .     S
C66    C68     1.405   .     D
C66    C90     1.508   .     S
C67    C91     1.508   .     S
C67    C69     1.428   .     D
C68    C69     1.431   .     S
C68    C94     1.511   .     S
C69    N11     1.397   .     S
C70    N8      1.396   .     S
C70    C72     1.432   .     S
C70    C71     1.429   .     D
C71    C73     1.404   .     S
C71    C87     1.511   .     S
C72    C74     1.405   .     D
C72    C92     1.508   .     S
C73    C75     1.426   .     D
C73    C93     1.507   .     S
C74    C75     1.432   .     S
C74    C95     1.512   .     S
C75    N10     1.397   .     S
C76    H11     1.094   .     S
C76    N10     1.290   .     D
C76    C81     1.463   .     S
C77    H88     1.092   .     S
C77    C84     1.407   .     S
C77    C82     1.401   .     D
C78    N11     1.289   .     D
C78    H12     1.093   .     S
C78    C82     1.464   .     S
C79    H9      1.094   .     S
C79    C84     1.464   .     S
C79    N12     1.289   .     D
C80    C81     1.406   .     S
C80    H89     1.092   .     S
C80    C84     1.401   .     D
C81    C83     1.401   .     D
C82    C83     1.406   .     S
C83    H90     1.092   .     S
C85    H67     1.098   1_565 S
C85    H68     1.099   1_565 S
C85    H69     1.092   1_565 S
C86    H72     1.092   .     S
C86    H71     1.098   .     S
C86    H70     1.098   .     S
C87    H73     1.098   1_655 S
C87    H74     1.092   1_655 S
C87    H75     1.098   1_655 S
C88    H31     1.099   1_565 S
C88    H32     1.098   1_565 S
C88    H33     1.092   1_565 S
C89    H34     1.100   .     S
C89    H35     1.092   .     S
C89    H36     1.101   .     S
C90    H37     1.098   1_655 S
C90    H38     1.093   1_655 S
C90    H39     1.098   1_655 S
C91    H42     1.092   .     S
C91    H41     1.100   .     S
C91    H40     1.101   .     S
C92    H44     1.098   .     S
C92    H45     1.092   .     S
C92    H43     1.099   .     S
C93    H46     1.101   .     S
C93    H47     1.092   .     S
C93    H48     1.101   .     S
C94    H76     1.102   .     S
C94    H78     1.100   .     S
C94    H77     1.092   .     S
C95    H80     1.103   .     S
C95    H81     1.093   .     S
C95    H79     1.095   .     S
C96    H82     1.103   .     S
C96    H84     1.096   .     S
C96    H83     1.093   .     S
H1     C8      1.092   1_556 S
H2     C9      1.091   1_556 S
H6     C30     1.093   1_556 S
H13    C40     1.098   1_566 S
H14    C40     1.092   1_565 S
H15    C40     1.098   1_565 S
H17    C41     1.100   1_556 S
H18    C41     1.092   1_556 S
H19    C42     1.099   1_655 S
H20    C42     1.098   1_656 S
H21    C42     1.092   1_656 S
H22    C43     1.100   1_556 S
H23    C43     1.092   1_556 S
H25    C44     1.098   1_556 S
H26    C44     1.093   1_556 S
H29    C45     1.100   1_556 S
H30    C45     1.092   1_556 S
H31    C88     1.099   1_545 S
H32    C88     1.098   1_545 S
H33    C88     1.092   1_545 S
H37    C90     1.098   1_455 S
H38    C90     1.093   1_455 S
H39    C90     1.098   1_455 S
H49    C37     1.098   1_566 S
H50    C37     1.092   1_565 S
H51    C37     1.098   1_565 S
H52    C38     1.099   1_556 S
H55    C39     1.097   1_655 S
H56    C39     1.099   1_656 S
H57    C39     1.093   1_655 S
H59    C46     1.102   1_556 S
H61    C47     1.101   1_556 S
H65    C48     1.101   1_556 S
H67    C85     1.098   1_545 S
H68    C85     1.099   1_545 S
H69    C85     1.092   1_545 S
H73    C87     1.098   1_455 S
H74    C87     1.092   1_455 S
H75    C87     1.098   1_455 S
H85    C29     1.092   1_556 S
H86    C32     1.092   1_556 S
H87    C35     1.092   1_556 S
H91    C4      1.091   1_556 S
H92    C6      1.091   1_556 S
H93    C2      1.091   1_556 S
