data_1089
_audit_creation_date              2023-09-08
_audit_creation_method            'Materials Studio'
_symmetry_space_group_name_H-M    'P1'
_symmetry_Int_Tables_number       1
_symmetry_cell_setting            triclinic
loop_
_symmetry_equiv_pos_as_xyz
  x,y,z
_cell_length_a                    22.9347
_cell_length_b                    23.6126
_cell_length_c                    4.1407
_cell_angle_alpha                 90.0000
_cell_angle_beta                  90.0000
_cell_angle_gamma                 120.0000
loop_
_atom_site_label
_atom_site_type_symbol
_atom_site_fract_x
_atom_site_fract_y
_atom_site_fract_z
_atom_site_U_iso_or_equiv
_atom_site_adp_type
_atom_site_occupancy
C11    C     0.41565   0.91018  -0.55721   0.00000  Uiso   1.00
C22    C     0.44619   0.87622  -0.67615   0.00000  Uiso   1.00
C33    C     0.41125   0.80794  -0.68280   0.00000  Uiso   1.00
C44    C     0.34499   0.77145  -0.56209   0.00000  Uiso   1.00
C55    C     0.31513   0.80664  -0.43753   0.00000  Uiso   1.00
C66    C     0.34981   0.87512  -0.43701   0.00000  Uiso   1.00
C77    C     0.09296   0.58955  -0.57604   0.00000  Uiso   1.00
C88    C     0.13006   0.56642  -0.40725   0.00000  Uiso   1.00
C99    C     0.20028   0.60265  -0.40241   0.00000  Uiso   1.00
C1010  C     0.23592   0.66235  -0.56893   0.00000  Uiso   1.00
C1111  C     0.19836   0.68395  -0.74632   0.00000  Uiso   1.00
C1212  C     0.12783   0.64817  -0.74759   0.00000  Uiso   1.00
C1313  C     0.34693   0.66511  -0.53755   0.00000  Uiso   1.00
C1414  C     0.32430   0.60491  -0.69555   0.00000  Uiso   1.00
C1515  C     0.35966   0.57112  -0.67079   0.00000  Uiso   1.00
C1616  C     0.41854   0.59630  -0.48839   0.00000  Uiso   1.00
C1717  C     0.44216   0.65659  -0.33094   0.00000  Uiso   1.00
C1818  C     0.40630   0.69000  -0.35368   0.00000  Uiso   1.00
N1919  N     0.02053   0.55526  -0.58201   0.00000  Uiso   1.00
N2020  N     0.45270   0.55937  -0.47615   0.00000  Uiso   1.00
C2121  C     0.50362   0.57038  -0.29494   0.00000  Uiso   1.00
C2222  C     0.53324   0.52778  -0.31957   0.00000  Uiso   1.00
N2323  N     0.50313   0.47305  -0.50627   0.00000  Uiso   1.00
C2424  C     0.52904   0.43275  -0.54037   0.00000  Uiso   1.00
C2525  C     0.58910   0.44683  -0.38276   0.00000  Uiso   1.00
C2626  C     0.62092   0.50319  -0.18894   0.00000  Uiso   1.00
C2727  C     0.59305   0.54369  -0.15715   0.00000  Uiso   1.00
C2828  C     0.61832   0.40352  -0.42413   0.00000  Uiso   1.00
C2929  C     0.68838   0.42990  -0.44019   0.00000  Uiso   1.00
C3030  C     0.71620   0.38922  -0.47880   0.00000  Uiso   1.00
C3131  C     0.67311   0.32151  -0.51072   0.00000  Uiso   1.00
C3232  C     0.60292   0.29404  -0.49504   0.00000  Uiso   1.00
C3333  C     0.57614   0.33545  -0.44805   0.00000  Uiso   1.00
C3434  C     0.79024   0.41717  -0.47257   0.00000  Uiso   1.00
C3535  C     0.83363   0.47595  -0.63284   0.00000  Uiso   1.00
N3636  N     0.90155   0.50248  -0.61093   0.00000  Uiso   1.00
C3737  C     0.92996   0.47379  -0.43503   0.00000  Uiso   1.00
C3838  C     0.88847   0.41475  -0.27490   0.00000  Uiso   1.00
C3939  C     0.81870   0.38645  -0.29463   0.00000  Uiso   1.00
C4040  C     0.55755   0.22220  -0.52442   0.00000  Uiso   1.00
C4141  C     0.57503   0.17831  -0.38666   0.00000  Uiso   1.00
N4242  N     0.53332   0.11272  -0.41611   0.00000  Uiso   1.00
C4343  C     0.47345   0.08687  -0.57509   0.00000  Uiso   1.00
C4444  C     0.45358   0.12871  -0.71291   0.00000  Uiso   1.00
C4545  C     0.49593   0.19633  -0.68975   0.00000  Uiso   1.00
C4646  C     0.42973   0.01545  -0.59841   0.00000  Uiso   1.00
N4747  N     0.45403   0.98007  -0.54502   0.00000  Uiso   1.00
C4848  C     1.00365   0.50459  -0.40784   0.00000  Uiso   1.00
H4949  H     0.49734   0.90329  -0.76573   0.00000  Uiso   1.00
H5050  H     0.43740   0.78414  -0.77384   0.00000  Uiso   1.00
H5151  H     0.26494   0.78163  -0.33956   0.00000  Uiso   1.00
H5252  H     0.32613   0.90075  -0.33451   0.00000  Uiso   1.00
H5353  H     0.10586   0.52074  -0.27726   0.00000  Uiso   1.00
H5454  H     0.22664   0.58340  -0.26902   0.00000  Uiso   1.00
H5555  H     0.22348   0.72873  -0.88204   0.00000  Uiso   1.00
H5656  H     0.09977   0.66579  -0.88360   0.00000  Uiso   1.00
H5757  H     0.27883   0.58342  -0.83570   0.00000  Uiso   1.00
H5858  H     0.34153   0.52499  -0.79544   0.00000  Uiso   1.00
H5959  H     0.48788   0.67830  -0.19018   0.00000  Uiso   1.00
H6060  H     0.42547   0.73583  -0.23012   0.00000  Uiso   1.00
H6161  H     0.52525   0.61047  -0.12521   0.00000  Uiso   1.00
H6262  H     0.50372   0.39088  -0.69877   0.00000  Uiso   1.00
H6363  H     0.66630   0.51509  -0.05605   0.00000  Uiso   1.00
H6464  H     0.72147   0.48219  -0.41941   0.00000  Uiso   1.00
H6565  H     0.69447   0.29035  -0.55264   0.00000  Uiso   1.00
H6666  H     0.52228   0.31439  -0.42174   0.00000  Uiso   1.00
H6767  H     0.81353   0.50041  -0.77760   0.00000  Uiso   1.00
H6868  H     0.90996   0.39141  -0.13124   0.00000  Uiso   1.00
H6969  H     0.78705   0.34187  -0.16170   0.00000  Uiso   1.00
H7070  H     0.62120   0.19600  -0.25062   0.00000  Uiso   1.00
H7171  H     0.40647   0.10919  -0.84291   0.00000  Uiso   1.00
H7272  H     0.48116   0.22830  -0.80622   0.00000  Uiso   1.00
H7373  H     0.37786  -0.00447  -0.67357   0.00000  Uiso   1.00
H7474  H     1.02312   0.48401  -0.23489   0.00000  Uiso   1.00
H7575  H     0.61754   1.58970   0.99152   0.00000  Uiso   1.00
N7676  N     1.33247   1.70292   0.43704   0.00000  Uiso   1.00
loop_
_geom_bond_atom_site_label_1
_geom_bond_atom_site_label_2
_geom_bond_distance
_geom_bond_site_symmetry_2
_ccdc_geom_bond_type
C11    C22     1.392   .     S
C11    C66     1.401   .     D
C11    N4747   1.431   .     S
C22    C33     1.397   .     D
C22    H4949   1.083   .     S
C33    C44     1.411   .     S
C33    H5050   1.075   .     S
C44    C55     1.412   .     D
C44    N7676   1.495   1_444 S
C55    C66     1.400   .     S
C55    H5151   1.076   .     S
C66    H5252   1.082   .     S
C77    C88     1.406   .     D
C77    C1212   1.398   .     S
C77    N1919   1.439   .     S
C88    C99     1.396   .     S
C88    H5353   1.078   .     S
C99    C1010   1.407   .     D
C99    H5454   1.073   .     S
C1010  C1111   1.408   .     S
C1111  C1212   1.401   .     D
C1111  H5555   1.075   .     S
C1212  H5656   1.083   .     S
C1313  C1414   1.407   .     S
C1313  C1818   1.407   .     D
C1313  N7676   1.102   1_444 S
C1414  C1515   1.397   .     D
C1414  H5757   1.074   .     S
C1515  C1616   1.394   .     S
C1515  H5858   1.083   .     S
C1616  C1717   1.405   .     D
C1616  N2020   1.435   .     S
C1717  C1818   1.399   .     S
C1717  H5959   1.079   .     S
C1818  H6060   1.073   .     S
N1919  C4848   1.280   1_455 D
N2020  C2121   1.300   .     D
C2121  C2222   1.472   .     S
C2121  H6161   1.080   .     S
C2222  N2323   1.361   .     S
C2222  C2727   1.400   .     D
N2323  C2424   1.358   .     D
C2424  C2525   1.406   .     S
C2424  H6262   1.082   .     S
C2525  C2626   1.406   .     D
C2525  C2828   1.486   .     S
C2626  C2727   1.397   .     S
C2626  H6363   1.083   .     S
C2727  H7575   1.125   1_544 S
C2828  C2929   1.405   .     S
C2828  C3333   1.405   .     D
C2929  C3030   1.403   .     D
C2929  H6464   1.082   .     S
C3030  C3131   1.404   .     S
C3030  C3434   1.483   .     S
C3131  C3232   1.404   .     D
C3131  H6565   1.083   .     S
C3232  C3333   1.404   .     S
C3232  C4040   1.487   .     S
C3333  H6666   1.082   .     S
C3434  C3535   1.406   .     D
C3434  C3939   1.403   .     S
C3535  N3636   1.361   .     S
C3535  H6767   1.082   .     S
N3636  C3737   1.362   .     D
C3737  C3838   1.401   .     S
C3737  C4848   1.473   .     S
C3838  C3939   1.394   .     D
C3838  H6868   1.083   .     S
C3939  H6969   1.083   .     S
C4040  C4141   1.406   .     D
C4040  C4545   1.406   .     S
C4141  N4242   1.359   .     S
C4141  H7070   1.082   .     S
N4242  C4343   1.361   .     D
C4343  C4444   1.400   .     S
C4343  C4646   1.472   .     S
C4444  C4545   1.397   .     D
C4444  H7171   1.082   .     S
C4545  H7272   1.083   .     S
C4646  H7373   1.083   .     S
C4646  N4747   1.234   1_545 D
N4747  C4646   1.234   1_565 D
C4848  H7474   1.080   .     S
C4848  N1919   1.280   1_655 D
H7575  C2727   1.125   1_566 S
N7676  C44     1.495   1_666 S
N7676  C1313   1.102   1_666 S
