data_109
_audit_creation_date              2023-09-08
_audit_creation_method            'Materials Studio'
_symmetry_space_group_name_H-M    'P1'
_symmetry_Int_Tables_number       1
_symmetry_cell_setting            triclinic
loop_
_symmetry_equiv_pos_as_xyz
  x,y,z
_cell_length_a                    23.1630
_cell_length_b                    23.1630
_cell_length_c                    3.1630
_cell_angle_alpha                 90.0000
_cell_angle_beta                  90.0000
_cell_angle_gamma                 120.0000
loop_
_atom_site_label
_atom_site_type_symbol
_atom_site_fract_x
_atom_site_fract_y
_atom_site_fract_z
_atom_site_U_iso_or_equiv
_atom_site_adp_type
_atom_site_occupancy
C1     C     0.38763   0.38763   0.00000   0.00000  Uiso   1.00
C2     C     0.61237   0.00000   0.00000   0.00000  Uiso   1.00
C3     C     0.00000   0.61237   0.00000   0.00000  Uiso   1.00
C4     C     0.61237   0.61237   0.00000   0.00000  Uiso   1.00
C5     C     0.38763  -0.00000   0.00000   0.00000  Uiso   1.00
C6     C     0.00000   0.38763   0.00000   0.00000  Uiso   1.00
C7     C     0.66665   0.27695   0.00000   0.00000  Uiso   1.00
C8     C     0.55516   0.33536   0.00000   0.00000  Uiso   1.00
C9     C     0.55483   0.39013   0.00000   0.00000  Uiso   1.00
C10    C     0.49994   0.44438   0.00000   0.00000  Uiso   1.00
O11    O     0.49849   0.38819   0.00000   0.00000  Uiso   1.00
C12    C     0.72305   0.38970   0.00000   0.00000  Uiso   1.00
C13    C     0.66464   0.21980   0.00000   0.00000  Uiso   1.00
C14    C     0.60987   0.16470   0.00000   0.00000  Uiso   1.00
C15    C     0.55562   0.05556   0.00000   0.00000  Uiso   1.00
O16    O     0.61181   0.11030   0.00000   0.00000  Uiso   1.00
C17    C     0.61030   0.33335   0.00000   0.00000  Uiso   1.00
C18    C     0.78020   0.44484   0.00000   0.00000  Uiso   1.00
C19    C     0.83530   0.44517   0.00000   0.00000  Uiso   1.00
C20    C     0.94444   0.50006   0.00000   0.00000  Uiso   1.00
O21    O     0.88970   0.50151   0.00000   0.00000  Uiso   1.00
C22    C     0.33335   0.72305   0.00000   0.00000  Uiso   1.00
C23    C     0.44484   0.66464   0.00000   0.00000  Uiso   1.00
C24    C     0.44517   0.60987   0.00000   0.00000  Uiso   1.00
C25    C     0.50006   0.55562   0.00000   0.00000  Uiso   1.00
O26    O     0.50151   0.61181   0.00000   0.00000  Uiso   1.00
C27    C     0.27695   0.61030   0.00000   0.00000  Uiso   1.00
C28    C     0.33536   0.78020   0.00000   0.00000  Uiso   1.00
C29    C     0.39013   0.83530   0.00000   0.00000  Uiso   1.00
C30    C     0.44438   0.94444   0.00000   0.00000  Uiso   1.00
O31    O     0.38819   0.88970   0.00000   0.00000  Uiso   1.00
C32    C     0.38970   0.66665   0.00000   0.00000  Uiso   1.00
C33    C     0.21980   0.55516   0.00000   0.00000  Uiso   1.00
C34    C     0.16470   0.55483   0.00000   0.00000  Uiso   1.00
C35    C     0.05556   0.49994   0.00000   0.00000  Uiso   1.00
O36    O     0.11030   0.49849   0.00000   0.00000  Uiso   1.00
C37    C     0.27695   0.66665   0.00000   0.00000  Uiso   1.00
C38    C     0.33536   0.55516   0.00000   0.00000  Uiso   1.00
C39    C     0.39013   0.55483   0.00000   0.00000  Uiso   1.00
C40    C     0.44438   0.49994   0.00000   0.00000  Uiso   1.00
O41    O     0.38819   0.49849   0.00000   0.00000  Uiso   1.00
C42    C     0.38970   0.72305   0.00000   0.00000  Uiso   1.00
C43    C     0.21980   0.66464   0.00000   0.00000  Uiso   1.00
C44    C     0.16470   0.60987   0.00000   0.00000  Uiso   1.00
C45    C     0.05556   0.55562   0.00000   0.00000  Uiso   1.00
O46    O     0.11030   0.61181   0.00000   0.00000  Uiso   1.00
C47    C     0.33335   0.61030   0.00000   0.00000  Uiso   1.00
C48    C     0.44484   0.78020   0.00000   0.00000  Uiso   1.00
C49    C     0.44517   0.83530   0.00000   0.00000  Uiso   1.00
C50    C     0.50006   0.94444   0.00000   0.00000  Uiso   1.00
O51    O     0.50151   0.88970   0.00000   0.00000  Uiso   1.00
C52    C     0.72305   0.33335   0.00000   0.00000  Uiso   1.00
C53    C     0.66464   0.44484   0.00000   0.00000  Uiso   1.00
C54    C     0.60987   0.44517   0.00000   0.00000  Uiso   1.00
C55    C     0.55562   0.50006   0.00000   0.00000  Uiso   1.00
O56    O     0.61181   0.50151   0.00000   0.00000  Uiso   1.00
C57    C     0.61030   0.27695   0.00000   0.00000  Uiso   1.00
C58    C     0.78020   0.33536   0.00000   0.00000  Uiso   1.00
C59    C     0.83530   0.39013   0.00000   0.00000  Uiso   1.00
C60    C     0.94444   0.44438   0.00000   0.00000  Uiso   1.00
O61    O     0.88970   0.38819   0.00000   0.00000  Uiso   1.00
C62    C     0.66665   0.38970   0.00000   0.00000  Uiso   1.00
C63    C     0.55516   0.21980   0.00000   0.00000  Uiso   1.00
C64    C     0.55483   0.16470   0.00000   0.00000  Uiso   1.00
C65    C     0.49994   0.05556   0.00000   0.00000  Uiso   1.00
O66    O     0.49849   0.11030   0.00000   0.00000  Uiso   1.00
C67    C     0.44464   0.44464   0.00000   0.00000  Uiso   1.00
N68    N     0.65810   0.65810   0.00000   0.00000  Uiso   1.00
C69    C     0.55536  -0.00000   0.00000   0.00000  Uiso   1.00
N70    N     0.34190  -0.00000   0.00000   0.00000  Uiso   1.00
C71    C     0.00000   0.55536   0.00000   0.00000  Uiso   1.00
N72    N     0.00000   0.34190   0.00000   0.00000  Uiso   1.00
C73    C     0.55536   0.55536   0.00000   0.00000  Uiso   1.00
N74    N     0.34190   0.34190   0.00000   0.00000  Uiso   1.00
C75    C     0.44464  -0.00000   0.00000   0.00000  Uiso   1.00
N76    N     0.65810   0.00000   0.00000   0.00000  Uiso   1.00
C77    C     0.00000   0.44464   0.00000   0.00000  Uiso   1.00
N78    N     0.00000   0.65810   0.00000   0.00000  Uiso   1.00
H79    H     0.78468   0.48933   0.00000   0.00000  Uiso   1.00
H80    H     0.51067   0.29535   0.00000   0.00000  Uiso   1.00
H81    H     0.70465   0.21532   0.00000   0.00000  Uiso   1.00
H82    H     0.21532   0.51067   0.00000   0.00000  Uiso   1.00
H83    H     0.48933   0.70465   0.00000   0.00000  Uiso   1.00
H84    H     0.29535   0.78468   0.00000   0.00000  Uiso   1.00
H85    H     0.48933   0.78468   0.00000   0.00000  Uiso   1.00
H86    H     0.29535   0.51067   0.00000   0.00000  Uiso   1.00
H87    H     0.21532   0.70465   0.00000   0.00000  Uiso   1.00
H88    H     0.51067   0.21532   0.00000   0.00000  Uiso   1.00
H89    H     0.70465   0.48933   0.00000   0.00000  Uiso   1.00
H90    H     0.78468   0.29535   0.00000   0.00000  Uiso   1.00
loop_
_geom_bond_atom_site_label_1
_geom_bond_atom_site_label_2
_geom_bond_distance
_geom_bond_site_symmetry_2
_ccdc_geom_bond_type
C1     C67     1.321   .     S
C1     N74     1.059   .     T
C2     C69     1.321   .     S
C2     N76     1.059   .     T
C3     C71     1.321   .     S
C3     N78     1.059   .     T
C4     N68     1.059   .     T
C4     C73     1.321   .     S
C5     N70     1.059   .     T
C5     C75     1.321   .     S
C6     N72     1.059   .     T
C6     C77     1.321   .     S
C7     C13     1.301   .     D
C7     C52     1.306   .     S
C7     C57     1.305   .     S
C8     C9      1.272   .     D
C8     C17     1.301   .     S
C8     H80     0.983   .     S
C9     O11     1.283   .     S
C9     C54     1.275   .     S
C10    O11     1.285   .     S
C10    C55     1.290   .     S
C10    C67     1.284   .     D
C12    C18     1.301   .     S
C12    C52     1.305   .     D
C12    C62     1.306   .     S
C13    C14     1.272   .     S
C13    H81     0.983   .     S
C14    O16     1.283   .     S
C14    C64     1.275   .     D
C15    O16     1.285   .     S
C15    C65     1.290   .     S
C15    C69     1.284   .     D
C17    C57     1.306   .     S
C17    C62     1.305   .     D
C18    C19     1.272   .     D
C18    H79     0.983   .     S
C19    O21     1.283   .     S
C19    C59     1.275   .     S
C20    O21     1.285   .     S
C20    C60     1.290   .     D
C20    C71     1.284   1_655 S
C22    C28     1.301   .     S
C22    C37     1.306   .     S
C22    C42     1.305   .     D
C23    C24     1.272   .     S
C23    C32     1.301   .     D
C23    H83     0.983   .     S
C24    O26     1.283   .     S
C24    C39     1.275   .     D
C25    O26     1.285   .     S
C25    C40     1.290   .     D
C25    C73     1.284   .     S
C27    C33     1.301   .     D
C27    C37     1.305   .     S
C27    C47     1.306   .     S
C28    C29     1.272   .     D
C28    H84     0.983   .     S
C29    O31     1.283   .     S
C29    C49     1.275   .     S
C30    O31     1.285   .     S
C30    C50     1.290   .     D
C30    C75     1.284   1_565 S
C32    C42     1.306   .     S
C32    C47     1.305   .     S
C33    C34     1.272   .     S
C33    H82     0.983   .     S
C34    O36     1.283   .     S
C34    C44     1.275   .     D
C35    O36     1.285   .     S
C35    C45     1.290   .     S
C35    C77     1.284   .     D
C37    C43     1.301   .     D
C38    C39     1.272   .     S
C38    C47     1.301   .     D
C38    H86     0.983   .     S
C39    O41     1.283   .     S
C40    O41     1.285   .     S
C40    C67     1.284   .     S
C42    C48     1.301   .     S
C43    C44     1.272   .     S
C43    H87     0.983   .     S
C44    O46     1.283   .     S
C45    O46     1.285   .     S
C45    C71     1.284   .     D
C48    C49     1.272   .     D
C48    H85     0.983   .     S
C49    O51     1.283   .     S
C50    O51     1.285   .     S
C50    C69     1.284   1_565 S
C52    C58     1.301   .     S
C53    C54     1.272   .     D
C53    C62     1.301   .     S
C53    H89     0.983   .     S
C54    O56     1.283   .     S
C55    O56     1.285   .     S
C55    C73     1.284   .     D
C57    C63     1.301   .     D
C58    C59     1.272   .     D
C58    H90     0.983   .     S
C59    O61     1.283   .     S
C60    O61     1.285   .     S
C60    C77     1.284   1_655 S
C63    C64     1.272   .     S
C63    H88     0.983   .     S
C64    O66     1.283   .     S
C65    O66     1.285   .     S
C65    C75     1.284   .     D
C69    C50     1.284   1_545 S
C71    C20     1.284   1_455 S
C75    C30     1.284   1_545 S
C77    C60     1.284   1_455 S
