data_1090
_audit_creation_date              2023-09-08
_audit_creation_method            'Materials Studio'
_symmetry_space_group_name_H-M    'P1'
_symmetry_Int_Tables_number       1
_symmetry_cell_setting            triclinic
loop_
_symmetry_equiv_pos_as_xyz
  x,y,z
_cell_length_a                    23.4841
_cell_length_b                    23.6049
_cell_length_c                    7.7451
_cell_angle_alpha                 90.0000
_cell_angle_beta                  90.0000
_cell_angle_gamma                 120.0000
loop_
_atom_site_label
_atom_site_type_symbol
_atom_site_fract_x
_atom_site_fract_y
_atom_site_fract_z
_atom_site_U_iso_or_equiv
_atom_site_adp_type
_atom_site_occupancy
C11    C     0.10450   1.20132   0.19737   0.00000  Uiso   1.00
C22    C     0.12644   1.16885   0.08863   0.00000  Uiso   1.00
C33    C     0.09429   1.10044   0.08477   0.00000  Uiso   1.00
C44    C     0.03951   1.06334   0.19048   0.00000  Uiso   1.00
C55    C     0.01747   1.09568   0.30019   0.00000  Uiso   1.00
C66    C     0.04968   1.16412   0.30444   0.00000  Uiso   1.00
C77    C    -0.20260   0.88128   0.20208   0.00000  Uiso   1.00
C88    C    -0.16477   0.86387   0.30710   0.00000  Uiso   1.00
C99    C    -0.09602   0.90045   0.30149   0.00000  Uiso   1.00
C1010  C    -0.06400   0.95493   0.19228   0.00000  Uiso   1.00
C1111  C    -0.10170   0.97235   0.08841   0.00000  Uiso   1.00
C1212  C    -0.17043   0.93574   0.09365   0.00000  Uiso   1.00
C1313  C     0.04479   0.96026   0.18796   0.00000  Uiso   1.00
C1414  C     0.02666   0.90574   0.08183   0.00000  Uiso   1.00
C1515  C     0.06272   0.87319   0.08471   0.00000  Uiso   1.00
C1616  C     0.11733   0.89443   0.19299   0.00000  Uiso   1.00
C1717  C     0.13556   0.94920   0.29991   0.00000  Uiso   1.00
C1818  C     0.09955   0.98183   0.29658   0.00000  Uiso   1.00
N1919  N    -0.27325   0.84643   0.20281   0.00000  Uiso   1.00
N2020  N     0.15128   0.85791   0.19250   0.00000  Uiso   1.00
C2121  C     0.20571   0.87275   0.27244   0.00000  Uiso   1.00
C2222  C     0.23385   0.82932   0.26201   0.00000  Uiso   1.00
N2323  N     0.20347   0.77314   0.16778   0.00000  Uiso   1.00
C2424  C     0.22766   0.73160   0.15655   0.00000  Uiso   1.00
C2525  C     0.28619   0.74598   0.24236   0.00000  Uiso   1.00
C2626  C     0.31792   0.80368   0.34078   0.00000  Uiso   1.00
C2727  C     0.29194   0.84534   0.35056   0.00000  Uiso   1.00
C2828  C     0.31309   0.70072   0.23387   0.00000  Uiso   1.00
C2929  C     0.38131   0.72548   0.23501   0.00000  Uiso   1.00
C3030  C     0.40745   0.68346   0.24034   0.00000  Uiso   1.00
C3131  C     0.36416   0.61558   0.23985   0.00000  Uiso   1.00
C3232  C     0.29572   0.58955   0.23767   0.00000  Uiso   1.00
C3333  C     0.27078   0.63263   0.23291   0.00000  Uiso   1.00
C3434  C     0.47985   0.71051   0.25091   0.00000  Uiso   1.00
C3535  C     0.52384   0.76860   0.16438   0.00000  Uiso   1.00
N3636  N     0.58977   0.79311   0.17686   0.00000  Uiso   1.00
C3737  C     0.61604   0.76350   0.27278   0.00000  Uiso   1.00
C3838  C     0.57418   0.70568   0.36155   0.00000  Uiso   1.00
C3939  C     0.50622   0.67931   0.35051   0.00000  Uiso   1.00
C4040  C     0.25038   0.51749   0.24612   0.00000  Uiso   1.00
C8141  C     0.34479   0.76290   0.80666   0.00000  Uiso   1.00
C8242  C     0.37958   0.83133   0.80991   0.00000  Uiso   1.00
C8343  C     0.12475   0.54904   0.74149   0.00000  Uiso   1.00
C8444  C     0.16206   0.52724   0.83255   0.00000  Uiso   1.00
C8545  C     0.23067   0.56261   0.82497   0.00000  Uiso   1.00
C8646  C     0.26390   0.62032   0.72792   0.00000  Uiso   1.00
C8747  C     0.22645   0.64194   0.63762   0.00000  Uiso   1.00
C8848  C     0.15763   0.60669   0.64485   0.00000  Uiso   1.00
C8949  C     0.37146   0.62197   0.73230   0.00000  Uiso   1.00
C9050  C     0.34923   0.56241   0.64529   0.00000  Uiso   1.00
C9151  C     0.38394   0.52862   0.65644   0.00000  Uiso   1.00
C9252  C     0.44121   0.55328   0.75567   0.00000  Uiso   1.00
C9353  C     0.46390   0.61305   0.84277   0.00000  Uiso   1.00
C9454  C     0.42902   0.64659   0.83113   0.00000  Uiso   1.00
N9555  N     0.05405   0.51481   0.74292   0.00000  Uiso   1.00
N9656  N     0.47530   0.51700   0.75998   0.00000  Uiso   1.00
C9757  C     0.52275   0.52633   0.86387   0.00000  Uiso   1.00
C9858  C     0.55334   0.48513   0.85079   0.00000  Uiso   1.00
N9959  N     0.53165   0.43652   0.73088   0.00000  Uiso   1.00
C10060 C     0.55824   0.39719   0.71498   0.00000  Uiso   1.00
C10161 C     0.60995   0.40589   0.82330   0.00000  Uiso   1.00
C10262 C     0.63335   0.45599   0.94711   0.00000  Uiso   1.00
C10363 C     0.60497   0.49560   0.96135   0.00000  Uiso   1.00
C10464 C     0.63872   0.36278   0.80711   0.00000  Uiso   1.00
C10565 C     0.70713   0.38916   0.80846   0.00000  Uiso   1.00
C10666 C     0.73450   0.34847   0.79123   0.00000  Uiso   1.00
C10767 C     0.69254   0.28080   0.77089   0.00000  Uiso   1.00
C10868 C     0.62380   0.25321   0.77209   0.00000  Uiso   1.00
C10969 C     0.59753   0.29489   0.79079   0.00000  Uiso   1.00
C11070 C     0.80683   0.37635   0.79749   0.00000  Uiso   1.00
C11171 C     0.84956   0.43473   0.71068   0.00000  Uiso   1.00
N11272 N     0.91579   0.46017   0.72008   0.00000  Uiso   1.00
C11373 C     0.94322   0.43079   0.81255   0.00000  Uiso   1.00
C11474 C     0.90236   0.37237   0.90044   0.00000  Uiso   1.00
C11575 C     0.83425   0.34525   0.89278   0.00000  Uiso   1.00
C11676 C     0.57956   0.18110   0.75637   0.00000  Uiso   1.00
C4177  C     0.26581   0.47390   0.16274   0.00000  Uiso   1.00
N4278  N     0.22436   0.40825   0.17336   0.00000  Uiso   1.00
C4379  C     0.16718   0.38193   0.26451   0.00000  Uiso   1.00
C4480  C     0.14988   0.42343   0.34994   0.00000  Uiso   1.00
C4581  C     0.19145   0.49104   0.34066   0.00000  Uiso   1.00
C4682  C     0.12409   0.31041   0.27451   0.00000  Uiso   1.00
N4783  N     0.14039   1.27163   0.19723   0.00000  Uiso   1.00
C4884  C     0.68791   0.79236   0.28398   0.00000  Uiso   1.00
H4985  H     0.16879   1.19718   0.00687   0.00000  Uiso   1.00
H5086  H     0.11170   1.07613  -0.00086   0.00000  Uiso   1.00
H5187  H    -0.02417   1.06758   0.38428   0.00000  Uiso   1.00
H5288  H     0.03199   1.18704   0.39325   0.00000  Uiso   1.00
H5389  H    -0.18741   0.82298   0.39487   0.00000  Uiso   1.00
H5490  H    -0.06741   0.88703   0.38387   0.00000  Uiso   1.00
H5591  H    -0.07762   1.01411   0.00303   0.00000  Uiso   1.00
H5692  H    -0.19925   0.94951   0.01319   0.00000  Uiso   1.00
H5793  H    -0.01540   0.88871  -0.00296   0.00000  Uiso   1.00
H5894  H     0.04826   0.83095   0.00291   0.00000  Uiso   1.00
H5995  H     0.17648   0.96659   0.38798   0.00000  Uiso   1.00
H6096  H     0.11344   1.02331   0.38084   0.00000  Uiso   1.00
H6197  H     0.23169   0.91701   0.34762   0.00000  Uiso   1.00
H6298  H     0.20169   0.68805   0.07800   0.00000  Uiso   1.00
H6399  H     0.36198   0.81595   0.41333   0.00000  Uiso   1.00
H64100 H     0.41417   0.77783   0.23585   0.00000  Uiso   1.00
H65101 H     0.38390   0.58288   0.24414   0.00000  Uiso   1.00
H66102 H     0.21817   0.61301   0.23227   0.00000  Uiso   1.00
H67103 H     0.50600   0.79403   0.08434   0.00000  Uiso   1.00
H68104 H     0.59394   0.68151   0.43977   0.00000  Uiso   1.00
H69105 H     0.47450   0.63544   0.42305   0.00000  Uiso   1.00
H70106 H     0.31017   0.49189   0.08647   0.00000  Uiso   1.00
H71107 H     0.10489   0.40363   0.42435   0.00000  Uiso   1.00
H72108 H     0.17818   0.52239   0.41069   0.00000  Uiso   1.00
H73109 H     0.07884   1.29144   0.34662   0.00000  Uiso   1.00
H74110 H    -0.29298   0.76733   0.36038   0.00000  Uiso   1.00
H75111 H     0.31666   0.88945   0.42759   0.00000  Uiso   1.00
N76112 N     0.00678   0.99289   0.18812   0.00000  Uiso   1.00
C77113 C     0.44142   0.86595   0.73060   0.00000  Uiso   1.00
C78114 C     0.46796   0.83156   0.64963   0.00000  Uiso   1.00
C79115 C     0.43240   0.76321   0.64291   0.00000  Uiso   1.00
C80116 C     0.37043   0.72780   0.72228   0.00000  Uiso   1.00
C117117 C     0.59736   0.13728   0.82743   0.00000  Uiso   1.00
N118118 N     0.55661   0.07163   0.81303   0.00000  Uiso   1.00
C119119 C     0.49728   0.04549   0.73250   0.00000  Uiso   1.00
C120120 C     0.47704   0.08708   0.66158   0.00000  Uiso   1.00
C121121 C     0.51850   0.15478   0.67178   0.00000  Uiso   1.00
C122122 C     0.45455  -0.02595   0.72186   0.00000  Uiso   1.00
N123123 N     0.47929   0.93584   0.73613   0.00000  Uiso   1.00
C124124 C     1.01522   0.46004   0.82146   0.00000  Uiso   1.00
H125125 H     0.51605   0.85819   0.59011   0.00000  Uiso   1.00
H126126 H     0.45357   0.73769   0.57779   0.00000  Uiso   1.00
H127127 H     0.29809   0.73714   0.87185   0.00000  Uiso   1.00
H128128 H     0.35923   0.85716   0.87823   0.00000  Uiso   1.00
H129129 H     0.13936   0.48346   0.91023   0.00000  Uiso   1.00
H130130 H     0.25839   0.54517   0.89543   0.00000  Uiso   1.00
H131131 H     0.25065   0.68627   0.56225   0.00000  Uiso   1.00
H132132 H     0.12936   0.62401   0.57487   0.00000  Uiso   1.00
H133133 H     0.30487   0.54215   0.56926   0.00000  Uiso   1.00
H134134 H     0.36630   0.48282   0.58805   0.00000  Uiso   1.00
H135135 H     0.50860   0.63470   0.91794   0.00000  Uiso   1.00
H136136 H     0.44679   0.69215   0.89901   0.00000  Uiso   1.00
H137137 H     0.54004   0.56341   0.96320   0.00000  Uiso   1.00
H138138 H     0.53948   0.35961   0.61651   0.00000  Uiso   1.00
H139139 H     0.67266   0.46363   1.03427   0.00000  Uiso   1.00
H140140 H     0.73905   0.44142   0.82370   0.00000  Uiso   1.00
H141141 H     0.71380   0.24986   0.75079   0.00000  Uiso   1.00
H142142 H     0.54481   0.27450   0.79793   0.00000  Uiso   1.00
H143143 H     0.83029   0.45974   0.63417   0.00000  Uiso   1.00
H144144 H     0.92308   0.34830   0.97535   0.00000  Uiso   1.00
H145145 H     0.80303   0.30073   0.96377   0.00000  Uiso   1.00
H146146 H     0.64309   0.15498   0.89704   0.00000  Uiso   1.00
H147147 H     0.43014   0.06725   0.59629   0.00000  Uiso   1.00
H148148 H     0.50314   0.18634   0.61152   0.00000  Uiso   1.00
H149149 H     0.40269   0.95395   0.69461   0.00000  Uiso   1.00
H150150 H     0.03438   0.43453   0.89546   0.00000  Uiso   1.00
H151151 H     0.62286   0.53385   1.05797   0.00000  Uiso   1.00
N152152 N     0.33520   0.65678   0.72317   0.00000  Uiso   1.00
loop_
_geom_bond_atom_site_label_1
_geom_bond_atom_site_label_2
_geom_bond_distance
_geom_bond_site_symmetry_2
_ccdc_geom_bond_type
C11    C22     1.399   .     S
C11    C66     1.409   .     D
C11    N4783   1.437   .     S
C22    C33     1.400   .     D
C22    H4985   1.083   .     S
C33    C44     1.402   .     S
C33    H5086   1.082   .     S
C44    C55     1.403   .     D
C44    N76112  1.442   .     S
C55    C66     1.400   .     S
C55    H5187   1.082   .     S
C66    H5288   1.079   .     S
C77    C88     1.409   .     D
C77    C1212   1.399   .     S
C77    N1919   1.437   .     S
C88    C99     1.400   .     S
C88    H5389   1.079   .     S
C99    C1010   1.403   .     D
C99    H5490   1.082   .     S
C1010  C1111   1.401   .     S
C1010  N76112  1.441   .     S
C1111  C1212   1.400   .     D
C1111  H5591   1.082   .     S
C1212  H5692   1.083   .     S
C1313  C1414   1.402   .     D
C1313  C1818   1.402   .     S
C1313  N76112  1.441   .     S
C1414  C1515   1.400   .     S
C1414  H5793   1.082   .     S
C1515  C1616   1.399   .     D
C1515  H5894   1.083   .     S
C1616  C1717   1.410   .     S
C1616  N2020   1.437   .     S
C1717  C1818   1.400   .     D
C1717  H5995   1.078   .     S
C1818  H6096   1.082   .     S
N1919  C4884   1.301   1_455 D
N2020  C2121   1.301   .     D
C2121  C2222   1.474   .     S
C2121  H6197   1.080   .     S
C2222  N2323   1.362   .     D
C2222  C2727   1.399   .     S
N2323  C2424   1.360   .     S
C2424  C2525   1.407   .     D
C2424  H6298   1.083   .     S
C2525  C2626   1.406   .     S
C2525  C2828   1.490   .     S
C2626  C2727   1.395   .     D
C2626  H6399   1.082   .     S
C2727  H75111  1.083   .     S
C2828  C2929   1.404   .     S
C2828  C3333   1.405   .     D
C2929  C3030   1.404   .     D
C2929  H64100  1.081   .     S
C3030  C3131   1.404   .     S
C3030  C3434   1.490   .     S
C3131  C3232   1.405   .     D
C3131  H65101  1.081   .     S
C3232  C3333   1.405   .     S
C3232  C4040   1.490   .     S
C3333  H66102  1.081   .     S
C3434  C3535   1.407   .     D
C3434  C3939   1.406   .     S
C3535  N3636   1.359   .     S
C3535  H67103  1.082   .     S
N3636  C3737   1.361   .     D
C3737  C3838   1.400   .     S
C3737  C4884   1.473   .     S
C3838  C3939   1.396   .     D
C3838  H68104  1.083   .     S
C3939  H69105  1.082   .     S
C4040  C4177   1.407   .     D
C4040  C4581   1.406   .     S
C8141  C8242   1.399   .     D
C8141  C80116  1.405   .     S
C8141  H127127  1.077   .     S
C8242  C77113  1.403   .     S
C8242  H128128  1.082   .     S
C8343  C8444   1.407   .     D
C8343  C8848   1.399   .     S
C8343  N9555   1.438   .     S
C8444  C8545   1.397   .     S
C8444  H129129  1.079   .     S
C8545  C8646   1.402   .     D
C8545  H130130  1.077   .     S
C8646  C8747   1.404   .     S
C8646  N152152  1.451   .     S
C8747  C8848   1.401   .     D
C8747  H131131  1.079   .     S
C8848  H132132  1.083   .     S
C8949  C9050   1.403   .     D
C8949  C9454   1.402   .     S
C8949  N152152  1.451   .     S
C9050  C9151   1.399   .     S
C9050  H133133  1.078   .     S
C9151  C9252   1.398   .     D
C9151  H134134  1.083   .     S
C9252  C9353   1.406   .     S
C9252  N9656   1.436   .     S
C9353  C9454   1.398   .     D
C9353  H135135  1.080   .     S
C9454  H136136  1.076   .     S
N9555  C124124  1.302   1_455 D
N9656  C9757   1.301   .     D
C9757  C9858   1.473   .     S
C9757  H137137  1.080   .     S
C9858  N9959   1.362   .     D
C9858  C10363  1.402   .     S
N9959  C10060  1.359   .     S
C10060 C10161  1.404   .     D
C10060 H138138  1.083   .     S
C10161 C10262  1.404   .     S
C10161 C10464  1.482   .     S
C10262 C10363  1.398   .     D
C10262 H139139  1.084   .     S
C10363 H151151  1.083   .     S
C10464 C10565  1.403   .     D
C10464 C10969  1.403   .     S
C10565 C10666  1.404   .     S
C10565 H140140  1.083   .     S
C10666 C10767  1.405   .     D
C10666 C11070  1.484   .     S
C10767 C10868  1.407   .     S
C10767 H141141  1.082   .     S
C10868 C10969  1.406   .     D
C10868 C11676  1.491   .     S
C10969 H142142  1.082   .     S
C11070 C11171  1.405   .     D
C11070 C11575  1.404   .     S
C11171 N11272  1.361   .     S
C11171 H143143  1.082   .     S
N11272 C11373  1.362   .     D
C11373 C11474  1.401   .     S
C11373 C124124  1.474   .     S
C11474 C11575  1.396   .     D
C11474 H144144  1.083   .     S
C11575 H145145  1.083   .     S
C11676 C117117  1.407   .     S
C11676 C121121  1.407   .     D
C4177  N4278   1.359   .     S
C4177  H70106  1.083   .     S
N4278  C4379   1.361   .     D
C4379  C4480   1.400   .     S
C4379  C4682   1.474   .     S
C4480  C4581   1.395   .     D
C4480  H71107  1.083   .     S
C4581  H72108  1.081   .     S
C4682  N4783   1.301   1_545 D
C4682  H73109  1.080   1_545 S
N4783  C4682   1.301   1_565 D
C4884  N1919   1.301   1_655 D
C4884  H74110  1.080   1_655 S
H73109 C4682   1.080   1_565 S
H74110 C4884   1.080   1_455 S
C77113 C78114  1.395   .     D
C77113 N123123  1.431   .     S
C78114 C79115  1.398   .     S
C78114 H125125  1.083   .     S
C79115 C80116  1.406   .     D
C79115 H126126  1.079   .     S
C80116 N152152  1.452   .     S
C117117 N118118  1.359   .     D
C117117 H146146  1.082   .     S
N118118 C119119  1.361   .     S
C119119 C120120  1.399   .     D
C119119 C122122  1.471   .     S
C120120 C121121  1.397   .     S
C120120 H147147  1.083   .     S
C121121 H148148  1.082   .     S
C122122 N123123  1.299   1_545 D
C122122 H149149  1.084   1_545 S
N123123 C122122  1.299   1_565 D
C124124 N9555   1.302   1_655 D
C124124 H150150  1.079   1_655 S
H149149 C122122  1.084   1_565 S
H150150 C124124  1.079   1_455 S
