data_1091
_audit_creation_date              2023-09-08
_audit_creation_method            'Materials Studio'
_symmetry_space_group_name_H-M    'P1'
_symmetry_Int_Tables_number       1
_symmetry_cell_setting            triclinic
loop_
_symmetry_equiv_pos_as_xyz
  x,y,z
_cell_length_a                    25.1799
_cell_length_b                    25.4141
_cell_length_c                    3.7322
_cell_angle_alpha                 90.0000
_cell_angle_beta                  90.0000
_cell_angle_gamma                 120.0000
loop_
_atom_site_label
_atom_site_type_symbol
_atom_site_fract_x
_atom_site_fract_y
_atom_site_fract_z
_atom_site_U_iso_or_equiv
_atom_site_adp_type
_atom_site_occupancy
C1     C     0.45293   0.96639  -0.49914   0.00000  Uiso   1.00
C2     C     0.48346   0.93517  -0.40667   0.00000  Uiso   1.00
C3     C     0.45300   0.87166  -0.41161   0.00000  Uiso   1.00
C4     C     0.39063   0.83781  -0.50740   0.00000  Uiso   1.00
C5     C     0.35980   0.86948  -0.59640   0.00000  Uiso   1.00
C6     C     0.39047   0.93300  -0.59155   0.00000  Uiso   1.00
C7     C     0.29391   0.73649  -0.54715   0.00000  Uiso   1.00
C8     C     0.26219   0.67285  -0.55190   0.00000  Uiso   1.00
C9     C     0.29597   0.64291  -0.52137   0.00000  Uiso   1.00
C10    C     0.35995   0.67501  -0.48668   0.00000  Uiso   1.00
C11    C     0.39023   0.73867  -0.48233   0.00000  Uiso   1.00
C12    C     0.35789   0.77015  -0.51263   0.00000  Uiso   1.00
C13    C     0.06438   0.57175  -0.61062   0.00000  Uiso   1.00
C14    C     0.09751   0.54185  -0.53898   0.00000  Uiso   1.00
C15    C     0.16154   0.57455  -0.52357   0.00000  Uiso   1.00
C16    C     0.19408   0.63777  -0.58175   0.00000  Uiso   1.00
C17    C     0.16060   0.66702  -0.66440   0.00000  Uiso   1.00
C18    C     0.09651   0.63410  -0.67981   0.00000  Uiso   1.00
C19    C     0.39473   0.64201  -0.45615   0.00000  Uiso   1.00
C20    C     0.36650   0.57968  -0.53852   0.00000  Uiso   1.00
C21    C     0.39925   0.54880  -0.51327   0.00000  Uiso   1.00
C22    C     0.46040   0.57882  -0.40297   0.00000  Uiso   1.00
C23    C     0.48920   0.64114  -0.32143   0.00000  Uiso   1.00
C24    C     0.45661   0.67233  -0.34749   0.00000  Uiso   1.00
N25    N    -0.00148   0.54078  -0.61714   0.00000  Uiso   1.00
N26    N     0.49156   0.54454  -0.39115   0.00000  Uiso   1.00
C27    C     0.54454   0.56074  -0.24672   0.00000  Uiso   1.00
C28    C     0.57057   0.52025  -0.26939   0.00000  Uiso   1.00
N29    N     0.53785   0.46467  -0.42540   0.00000  Uiso   1.00
C30    C     0.56038   0.42631  -0.46118   0.00000  Uiso   1.00
C31    C     0.61950   0.44298  -0.33559   0.00000  Uiso   1.00
C32    C     0.65384   0.50033  -0.17211   0.00000  Uiso   1.00
C33    C     0.62960   0.53902  -0.14057   0.00000  Uiso   1.00
C34    C     0.64528   0.40179  -0.38799   0.00000  Uiso   1.00
C35    C     0.70877   0.42539  -0.43061   0.00000  Uiso   1.00
C36    C     0.73291   0.38693  -0.49491   0.00000  Uiso   1.00
C37    C     0.69235   0.32431  -0.53250   0.00000  Uiso   1.00
C38    C     0.62905   0.29943  -0.48252   0.00000  Uiso   1.00
C39    C     0.60623   0.33844  -0.40338   0.00000  Uiso   1.00
C40    C     0.80039   0.41152  -0.50947   0.00000  Uiso   1.00
C41    C     0.84056   0.46981  -0.64667   0.00000  Uiso   1.00
N42    N     0.90227   0.49267  -0.63755   0.00000  Uiso   1.00
C43    C     0.92760   0.46063  -0.49978   0.00000  Uiso   1.00
C44    C     0.88936   0.40194  -0.36796   0.00000  Uiso   1.00
C45    C     0.82598   0.37762  -0.37157   0.00000  Uiso   1.00
C46    C     0.58688   0.23274  -0.51348   0.00000  Uiso   1.00
C47    C     0.60504   0.19142  -0.39792   0.00000  Uiso   1.00
N48    N     0.56664   0.13062  -0.43328   0.00000  Uiso   1.00
C49    C     0.50969   0.10718  -0.57886   0.00000  Uiso   1.00
C50    C     0.48932   0.14656  -0.69341   0.00000  Uiso   1.00
C51    C     0.52793   0.20925  -0.66087   0.00000  Uiso   1.00
C52    C     0.46969   0.04097  -0.61396   0.00000  Uiso   1.00
N53    N     0.48687   1.03162  -0.48730   0.00000  Uiso   1.00
C54    C     0.99464   0.48734  -0.48345   0.00000  Uiso   1.00
H55    H     0.53385   0.96146  -0.32583   0.00000  Uiso   1.00
H56    H     0.47867   0.84684  -0.33767   0.00000  Uiso   1.00
H57    H     0.30924   0.84332  -0.67358   0.00000  Uiso   1.00
H58    H     0.36484   0.95797  -0.66273   0.00000  Uiso   1.00
H59    H     0.07214   0.49064  -0.49308   0.00000  Uiso   1.00
H60    H     0.18806   0.55006  -0.46331   0.00000  Uiso   1.00
H61    H     0.18572   0.71796  -0.71945   0.00000  Uiso   1.00
H62    H     0.06991   0.65816  -0.74949   0.00000  Uiso   1.00
H63    H     0.31646   0.55394  -0.62678   0.00000  Uiso   1.00
H64    H     0.37605   0.49844  -0.58319   0.00000  Uiso   1.00
H65    H     0.53927   0.66647  -0.23371   0.00000  Uiso   1.00
H66    H     0.48070   0.72281  -0.27963   0.00000  Uiso   1.00
H67    H     0.57082   0.60626  -0.10264   0.00000  Uiso   1.00
H68    H     0.53139   0.38011  -0.59389   0.00000  Uiso   1.00
H69    H     0.70173   0.51545  -0.06450   0.00000  Uiso   1.00
H70    H     0.74155   0.47648  -0.41316   0.00000  Uiso   1.00
H71    H     0.71070   0.29277  -0.60480   0.00000  Uiso   1.00
H72    H     0.55503   0.31792  -0.35107   0.00000  Uiso   1.00
H73    H     0.82143   0.49820  -0.76646   0.00000  Uiso   1.00
H74    H     0.91008   0.37430  -0.25842   0.00000  Uiso   1.00
H75    H     0.79457   0.32999  -0.26232   0.00000  Uiso   1.00
H76    H     0.65228   0.20887  -0.27353   0.00000  Uiso   1.00
H77    H     0.44146   0.12738  -0.81241   0.00000  Uiso   1.00
H78    H     0.51169   0.24159  -0.75399   0.00000  Uiso   1.00
H79    H     0.48717   0.01284  -0.75577   0.00000  Uiso   1.00
H80    H     1.01518   0.45896  -0.38358   0.00000  Uiso   1.00
H81    H     0.26767   0.76212  -0.57169   0.00000  Uiso   1.00
H82    H     0.27143   0.59115  -0.52440   0.00000  Uiso   1.00
H83    H     0.44225   0.76598  -0.45370   0.00000  Uiso   1.00
H84    H     0.65761   0.58563  -0.01082   0.00000  Uiso   1.00
H85    H     0.58139   0.09833  -0.34203   0.00000  Uiso   1.00
H86    H     0.42124   0.01784  -0.49932   0.00000  Uiso   1.00
H87    H     0.46591   1.05692  -0.36715   0.00000  Uiso   1.00
loop_
_geom_bond_atom_site_label_1
_geom_bond_atom_site_label_2
_geom_bond_distance
_geom_bond_site_symmetry_2
_ccdc_geom_bond_type
C1     C2      1.396   .     D
C1     C6      1.406   .     S
C1     N53     1.437   .     S
C2     C3      1.399   .     S
C2     H55     1.140   .     S
C3     C4      1.408   .     D
C3     H56     1.140   .     S
C4     C5      1.409   .     S
C4     C12     1.490   .     S
C5     C6      1.399   .     D
C5     H57     1.140   .     S
C6     H58     1.140   .     S
C7     C8      1.401   .     D
C7     C12     1.402   .     S
C7     H81     1.140   .     S
C8     C9      1.401   .     S
C8     C16     1.490   .     S
C9     C10     1.401   .     D
C9     H82     1.140   .     S
C10    C11     1.402   .     S
C10    C19     1.489   .     S
C11    C12     1.403   .     D
C11    H83     1.140   .     S
C13    C14     1.407   .     S
C13    C18     1.396   .     D
C13    N25     1.437   .     S
C14    C15     1.398   .     D
C14    H59     1.140   .     S
C15    C16     1.408   .     S
C15    H60     1.140   .     S
C16    C17     1.409   .     D
C17    C18     1.399   .     S
C17    H61     1.140   .     S
C18    H62     1.140   .     S
C19    C20     1.408   .     D
C19    C24     1.409   .     S
C20    C21     1.397   .     S
C20    H63     1.140   .     S
C21    C22     1.396   .     D
C21    H64     1.140   .     S
C22    C23     1.407   .     S
C22    N26     1.435   .     S
C23    C24     1.401   .     D
C23    H65     1.140   .     S
C24    H66     1.140   .     S
N25    C54     1.404   1_455 D
N26    C27     1.300   .     D
C27    C28     1.473   .     S
C27    H67     1.140   .     S
C28    N29     1.360   .     D
C28    C33     1.400   .     S
N29    C30     1.358   .     S
C30    C31     1.409   .     D
C30    H68     1.140   .     S
C31    C32     1.409   .     S
C31    C34     1.495   .     S
C32    C33     1.398   .     D
C32    H69     1.140   .     S
C33    H84     1.140   .     S
C34    C35     1.408   .     D
C34    C39     1.407   .     S
C35    C36     1.406   .     S
C35    H70     1.140   .     S
C36    C37     1.404   .     D
C36    C40     1.490   .     S
C37    C38     1.403   .     S
C37    H71     1.140   .     S
C38    C39     1.404   .     D
C38    C46     1.488   .     S
C39    H72     1.140   .     S
C40    C41     1.408   .     S
C40    C45     1.406   .     D
C41    N42     1.360   .     D
C41    H73     1.140   .     S
N42    C43     1.361   .     S
C43    C44     1.399   .     D
C43    C54     1.472   .     S
C44    C45     1.394   .     S
C44    H74     1.140   .     S
C45    H75     1.140   .     S
C46    C47     1.406   .     D
C46    C51     1.406   .     S
C47    N48     1.359   .     S
C47    H76     1.140   .     S
N48    C49     1.361   .     D
N48    H85     1.110   .     S
C49    C50     1.400   .     S
C49    C52     1.472   .     S
C50    C51     1.396   .     D
C50    H77     1.140   .     S
C51    H78     1.140   .     S
C52    H79     1.140   .     S
C52    H86     1.140   .     S
C52    H87     1.030   1_545 S
N53    H87     1.110   .     S
N53    H79     1.111   1_565 S
C54    H80     1.140   .     S
C54    N25     1.404   1_655 D
H79    N53     1.111   1_545 S
H87    C52     1.030   1_565 S
