data_1092
_audit_creation_date              2023-09-08
_audit_creation_method            'Materials Studio'
_symmetry_space_group_name_H-M    'P1'
_symmetry_Int_Tables_number       1
_symmetry_cell_setting            triclinic
loop_
_symmetry_equiv_pos_as_xyz
  x,y,z
_cell_length_a                    26.0476
_cell_length_b                    26.0532
_cell_length_c                    6.6553
_cell_angle_alpha                 90.0000
_cell_angle_beta                  90.0000
_cell_angle_gamma                 120.0000
loop_
_atom_site_label
_atom_site_type_symbol
_atom_site_fract_x
_atom_site_fract_y
_atom_site_fract_z
_atom_site_U_iso_or_equiv
_atom_site_adp_type
_atom_site_occupancy
C1     C     0.11070   1.26172   0.27944   0.00000  Uiso   1.00
C2     C     0.14267   1.23193   0.29190   0.00000  Uiso   1.00
C3     C     0.11395   1.17014   0.27932   0.00000  Uiso   1.00
C4     C     0.05195   1.13651   0.25527   0.00000  Uiso   1.00
C5     C     0.01970   1.16670   0.24748   0.00000  Uiso   1.00
C6     C     0.04868   1.22859   0.25980   0.00000  Uiso   1.00
C7     C    -0.04069   1.03669   0.22857   0.00000  Uiso   1.00
C8     C    -0.07005   0.97477   0.21154   0.00000  Uiso   1.00
C9     C    -0.03599   0.94687   0.20318   0.00000  Uiso   1.00
C10    C     0.02607   0.97938   0.21138   0.00000  Uiso   1.00
C11    C     0.05395   1.04119   0.22893   0.00000  Uiso   1.00
C12    C     0.02133   1.07065   0.23773   0.00000  Uiso   1.00
C13    C    -0.26124   0.87256   0.19528   0.00000  Uiso   1.00
C14    C    -0.22796   0.84446   0.23020   0.00000  Uiso   1.00
C15    C    -0.16599   0.87756   0.23461   0.00000  Uiso   1.00
C16    C    -0.13596   0.93936   0.20382   0.00000  Uiso   1.00
C17    C    -0.16973   0.96689   0.16583   0.00000  Uiso   1.00
C18    C    -0.23163   0.93360   0.16074   0.00000  Uiso   1.00
C19    C     0.06151   0.94887   0.20272   0.00000  Uiso   1.00
C20    C     0.03449   0.88824   0.15369   0.00000  Uiso   1.00
C21    C     0.06770   0.85955   0.14851   0.00000  Uiso   1.00
C22    C     0.12816   0.89018   0.19335   0.00000  Uiso   1.00
C23    C     0.15584   0.95098   0.23866   0.00000  Uiso   1.00
C24    C     0.12281   0.97991   0.24364   0.00000  Uiso   1.00
N25    N    -0.32485   0.84114   0.19071   0.00000  Uiso   1.00
N26    N     0.15938   0.85777   0.18961   0.00000  Uiso   1.00
C27    C     0.21178   0.87494   0.26281   0.00000  Uiso   1.00
C28    C     0.23729   0.83574   0.25271   0.00000  Uiso   1.00
N29    N     0.20690   0.78184   0.16193   0.00000  Uiso   1.00
C30    C     0.22789   0.74349   0.15548   0.00000  Uiso   1.00
C31    C     0.28252   0.75836   0.24526   0.00000  Uiso   1.00
C32    C     0.31510   0.81458   0.33487   0.00000  Uiso   1.00
C33    C     0.29251   0.85313   0.33953   0.00000  Uiso   1.00
C34    C     0.30506   0.71581   0.24323   0.00000  Uiso   1.00
C35    C     0.36615   0.73606   0.23826   0.00000  Uiso   1.00
C36    C     0.38763   0.69619   0.23397   0.00000  Uiso   1.00
C37    C     0.34667   0.63512   0.22914   0.00000  Uiso   1.00
C38    C     0.28524   0.61338   0.24019   0.00000  Uiso   1.00
C39    C     0.26528   0.65449   0.24965   0.00000  Uiso   1.00
C40    C     0.45270   0.71818   0.23436   0.00000  Uiso   1.00
C41    C     0.49309   0.77303   0.14754   0.00000  Uiso   1.00
C42    C     0.49150   0.87848   0.68074   0.00000  Uiso   1.00
C43    C     0.45986   0.81650   0.67674   0.00000  Uiso   1.00
C44    C     0.40007   0.78512   0.73727   0.00000  Uiso   1.00
C45    C     0.37275   0.81737   0.79974   0.00000  Uiso   1.00
C46    C     0.40437   0.87936   0.80097   0.00000  Uiso   1.00
C47    C     0.30477   0.68797   0.72877   0.00000  Uiso   1.00
C48    C     0.27271   0.62585   0.72869   0.00000  Uiso   1.00
C49    C     0.30419   0.59530   0.74303   0.00000  Uiso   1.00
C50    C     0.36623   0.62538   0.75518   0.00000  Uiso   1.00
C51    C     0.39684   0.68745   0.75037   0.00000  Uiso   1.00
C52    C     0.36678   0.71933   0.73814   0.00000  Uiso   1.00
C53    C     0.08151   0.53074   0.69325   0.00000  Uiso   1.00
C54    C     0.11289   0.49988   0.69113   0.00000  Uiso   1.00
C55    C     0.17481   0.53070   0.69988   0.00000  Uiso   1.00
C56    C     0.20682   0.59309   0.71095   0.00000  Uiso   1.00
C57    C     0.17498   0.62370   0.70365   0.00000  Uiso   1.00
C58    C     0.11301   0.59263   0.69395   0.00000  Uiso   1.00
C59    C     0.39886   0.59225   0.77597   0.00000  Uiso   1.00
C60    C     0.36948   0.53035   0.74951   0.00000  Uiso   1.00
C61    C     0.40077   0.49975   0.76000   0.00000  Uiso   1.00
C62    C     0.46139   0.52960   0.80229   0.00000  Uiso   1.00
C63    C     0.49098   0.59121   0.83298   0.00000  Uiso   1.00
C64    C     0.46001   0.62217   0.82022   0.00000  Uiso   1.00
N65    N     0.01790   0.50085   0.69431   0.00000  Uiso   1.00
N66    N     0.49168   0.49630   0.80175   0.00000  Uiso   1.00
C67    C     0.54149   0.51093   0.89150   0.00000  Uiso   1.00
C68    C     0.56843   0.47303   0.87258   0.00000  Uiso   1.00
N69    N     0.54507   0.42642   0.74265   0.00000  Uiso   1.00
C70    C     0.56856   0.39051   0.71921   0.00000  Uiso   1.00
C71    C     0.61859   0.40054   0.83052   0.00000  Uiso   1.00
C72    C     0.64348   0.44852   0.96504   0.00000  Uiso   1.00
C73    C     0.61851   0.48489   0.98599   0.00000  Uiso   1.00
C74    C     0.64419   0.36117   0.80589   0.00000  Uiso   1.00
C75    C     0.70588   0.38487   0.79805   0.00000  Uiso   1.00
C76    C     0.73020   0.34781   0.77225   0.00000  Uiso   1.00
C77    C     0.69192   0.28645   0.75235   0.00000  Uiso   1.00
C78    C     0.63010   0.26170   0.76248   0.00000  Uiso   1.00
C79    C     0.60677   0.29955   0.78991   0.00000  Uiso   1.00
C80    C     0.79550   0.37287   0.76870   0.00000  Uiso   1.00
C81    C     0.83294   0.42616   0.66771   0.00000  Uiso   1.00
N82    N     0.55230   0.79358   0.15629   0.00000  Uiso   1.00
C83    C     0.57522   0.76268   0.24695   0.00000  Uiso   1.00
C84    C     0.53685   0.70741   0.33241   0.00000  Uiso   1.00
C85    C     0.47576   0.68528   0.32589   0.00000  Uiso   1.00
C86    C     0.24222   0.54811   0.24403   0.00000  Uiso   1.00
C87    C     0.25922   0.50776   0.31434   0.00000  Uiso   1.00
N88    N     0.22019   0.44855   0.31353   0.00000  Uiso   1.00
C89    C     0.16347   0.42553   0.24737   0.00000  Uiso   1.00
C90    C     0.14395   0.46374   0.18073   0.00000  Uiso   1.00
C91    C     0.18321   0.52475   0.17898   0.00000  Uiso   1.00
C92    C     0.12360   0.36089   0.24011   0.00000  Uiso   1.00
N93    N     0.14320   1.32532   0.28724   0.00000  Uiso   1.00
C94    C     0.63989   0.78805   0.25863   0.00000  Uiso   1.00
H95    H     0.19282   1.25802   0.31259   0.00000  Uiso   1.00
H96    H     0.14070   1.14646   0.28851   0.00000  Uiso   1.00
H97    H    -0.03059   1.14069   0.23096   0.00000  Uiso   1.00
H98    H     0.02175   1.25213   0.25384   0.00000  Uiso   1.00
H99    H    -0.25145   0.79450   0.25508   0.00000  Uiso   1.00
H100   H    -0.13921   0.85457   0.26335   0.00000  Uiso   1.00
H101   H    -0.14662   1.01674   0.13889   0.00000  Uiso   1.00
H102   H    -0.25852   0.95625   0.12811   0.00000  Uiso   1.00
H103   H    -0.01490   0.86211   0.11777   0.00000  Uiso   1.00
H104   H     0.04544   0.81058   0.10731   0.00000  Uiso   1.00
H105   H     0.20542   0.97693   0.27155   0.00000  Uiso   1.00
H106   H     0.14605   1.02917   0.28135   0.00000  Uiso   1.00
H107   H     0.23820   0.92054   0.33524   0.00000  Uiso   1.00
H108   H     0.20121   0.69888   0.07692   0.00000  Uiso   1.00
H109   H     0.36030   0.82893   0.40436   0.00000  Uiso   1.00
H110   H     0.39931   0.78566   0.23765   0.00000  Uiso   1.00
H111   H     0.36297   0.60198   0.21602   0.00000  Uiso   1.00
H112   H     0.21586   0.63827   0.26283   0.00000  Uiso   1.00
H113   H     0.47618   0.80061   0.06904   0.00000  Uiso   1.00
H114   H     0.55553   0.68079   0.40668   0.00000  Uiso   1.00
H115   H     0.44415   0.64026   0.39501   0.00000  Uiso   1.00
H116   H     0.30614   0.52471   0.37267   0.00000  Uiso   1.00
H117   H     0.09621   0.44502   0.12823   0.00000  Uiso   1.00
H118   H     0.16714   0.55577   0.12424   0.00000  Uiso   1.00
H119   H     0.07536   0.34187   0.19305   0.00000  Uiso   1.00
H120   H     0.65905   0.76113   0.32725   0.00000  Uiso   1.00
H121   H     0.31903   0.89845   0.41375   0.00000  Uiso   1.00
C122   C     0.46393   0.91025   0.73988   0.00000  Uiso   1.00
N123   N     0.89271   0.44896   0.66880   0.00000  Uiso   1.00
C124   C     0.91856   0.42159   0.76542   0.00000  Uiso   1.00
C125   C     0.88285   0.36814   0.86646   0.00000  Uiso   1.00
C126   C     0.82143   0.34397   0.86848   0.00000  Uiso   1.00
C127   C     0.59002   0.19643   0.74616   0.00000  Uiso   1.00
C128   C     0.60586   0.15683   0.83093   0.00000  Uiso   1.00
N129   N     0.56906   0.09731   0.81492   0.00000  Uiso   1.00
C130   C     0.51584   0.07356   0.71918   0.00000  Uiso   1.00
C131   C     0.49793   0.11126   0.63417   0.00000  Uiso   1.00
C132   C     0.53523   0.17261   0.64638   0.00000  Uiso   1.00
C133   C     0.47716   0.00875   0.70719   0.00000  Uiso   1.00
N134   N     0.49813   0.97370   0.74381   0.00000  Uiso   1.00
C135   C     0.98356   0.44808   0.76654   0.00000  Uiso   1.00
H136   H     0.54023   0.90350   0.63547   0.00000  Uiso   1.00
H137   H     0.48246   0.79104   0.62421   0.00000  Uiso   1.00
H138   H     0.32443   0.79296   0.84992   0.00000  Uiso   1.00
H139   H     0.38179   0.90501   0.85172   0.00000  Uiso   1.00
H140   H     0.08787   0.44942   0.68224   0.00000  Uiso   1.00
H141   H     0.20001   0.50537   0.69811   0.00000  Uiso   1.00
H142   H     0.19971   0.67422   0.70563   0.00000  Uiso   1.00
H143   H     0.08774   0.61784   0.68652   0.00000  Uiso   1.00
H144   H     0.31975   0.50475   0.71923   0.00000  Uiso   1.00
H145   H     0.37680   0.44983   0.73388   0.00000  Uiso   1.00
H146   H     0.54042   0.61619   0.86844   0.00000  Uiso   1.00
H147   H     0.48420   0.67213   0.84570   0.00000  Uiso   1.00
H148   H     0.56449   0.55317   0.98520   0.00000  Uiso   1.00
H149   H     0.54767   0.35195   0.60869   0.00000  Uiso   1.00
H150   H     0.68412   0.45788   1.05741   0.00000  Uiso   1.00
H151   H     0.73686   0.43472   0.81269   0.00000  Uiso   1.00
H152   H     0.71088   0.25587   0.72754   0.00000  Uiso   1.00
H153   H     0.55665   0.27954   0.79916   0.00000  Uiso   1.00
H154   H     0.81327   0.45054   0.58426   0.00000  Uiso   1.00
H155   H     0.90397   0.34460   0.94649   0.00000  Uiso   1.00
H156   H     0.79214   0.30063   0.95131   0.00000  Uiso   1.00
H157   H     0.64982   0.17458   0.91377   0.00000  Uiso   1.00
H158   H     0.45316   0.09185   0.55559   0.00000  Uiso   1.00
H159   H     0.52108   0.20338   0.57503   0.00000  Uiso   1.00
H160   H     0.42843  -0.01103   0.66553   0.00000  Uiso   1.00
H161   H     1.00441   0.42225   0.83137   0.00000  Uiso   1.00
H162   H     0.63865   0.52398   1.09450   0.00000  Uiso   1.00
H163   H    -0.06729   1.06055   0.23528   0.00000  Uiso   1.00
H164   H    -0.05870   0.89659   0.18939   0.00000  Uiso   1.00
H165   H     0.10436   1.06879   0.23641   0.00000  Uiso   1.00
H166   H     0.28036   0.71404   0.72110   0.00000  Uiso   1.00
H167   H     0.27932   0.54478   0.74502   0.00000  Uiso   1.00
H168   H     0.44734   0.71311   0.75645   0.00000  Uiso   1.00
loop_
_geom_bond_atom_site_label_1
_geom_bond_atom_site_label_2
_geom_bond_distance
_geom_bond_site_symmetry_2
_ccdc_geom_bond_type
C1     C2      1.396   .     S
C1     C6      1.406   .     D
C1     N93     1.436   .     S
C2     C3      1.398   .     D
C2     H95     1.140   .     S
C3     C4      1.409   .     S
C3     H96     1.140   .     S
C4     C5      1.410   .     D
C4     C12     1.492   .     S
C5     C6      1.400   .     S
C5     H97     1.140   .     S
C6     H98     1.140   .     S
C7     C8      1.402   .     S
C7     C12     1.402   .     D
C7     H163    1.140   .     S
C8     C9      1.401   .     D
C8     C16     1.489   .     S
C9     C10     1.402   .     S
C9     H164    1.140   .     S
C10    C11     1.402   .     D
C10    C19     1.490   .     S
C11    C12     1.402   .     S
C11    H165    1.140   .     S
C13    C14     1.406   .     D
C13    C18     1.396   .     S
C13    N25     1.435   .     S
C14    C15     1.399   .     S
C14    H99     1.140   .     S
C15    C16     1.410   .     D
C15    H100    1.140   .     S
C16    C17     1.408   .     S
C17    C18     1.398   .     D
C17    H101    1.140   .     S
C18    H102    1.140   .     S
C19    C20     1.409   .     D
C19    C24     1.409   .     S
C20    C21     1.398   .     S
C20    H103    1.140   .     S
C21    C22     1.396   .     D
C21    H104    1.140   .     S
C22    C23     1.406   .     S
C22    N26     1.436   .     S
C23    C24     1.399   .     D
C23    H105    1.140   .     S
C24    H106    1.140   .     S
N25    C94     1.300   1_455 D
N26    C27     1.300   .     D
C27    C28     1.472   .     S
C27    H107    1.140   .     S
C28    N29     1.361   .     D
C28    C33     1.399   .     S
N29    C30     1.358   .     S
C30    C31     1.407   .     D
C30    H108    1.140   .     S
C31    C32     1.406   .     S
C31    C34     1.492   .     S
C32    C33     1.395   .     D
C32    H109    1.140   .     S
C33    H121    1.140   .     S
C34    C35     1.404   .     S
C34    C39     1.404   .     D
C35    C36     1.405   .     D
C35    H110    1.140   .     S
C36    C37     1.405   .     S
C36    C40     1.493   .     S
C37    C38     1.407   .     D
C37    H111    1.140   .     S
C38    C39     1.407   .     S
C38    C86     1.497   .     S
C39    H112    1.140   .     S
C40    C41     1.407   .     D
C40    C85     1.408   .     S
C41    N82     1.358   .     S
C41    H113    1.140   .     S
C42    C43     1.399   .     D
C42    C122    1.396   .     S
C42    H136    1.140   .     S
C43    C44     1.408   .     S
C43    H137    1.140   .     S
C44    C45     1.408   .     D
C44    C52     1.484   .     S
C45    C46     1.399   .     S
C45    H138    1.140   .     S
C46    C122    1.404   .     D
C46    H139    1.140   .     S
C47    C48     1.402   .     D
C47    C52     1.400   .     S
C47    H166    1.140   .     S
C48    C49     1.403   .     S
C48    C56     1.491   .     S
C49    C50     1.402   .     D
C49    H167    1.140   .     S
C50    C51     1.401   .     S
C50    C59     1.490   .     S
C51    C52     1.400   .     D
C51    H168    1.140   .     S
C53    C54     1.404   .     D
C53    C58     1.396   .     S
C53    N65     1.436   .     S
C54    C55     1.398   .     S
C54    H140    1.140   .     S
C55    C56     1.410   .     D
C55    H141    1.140   .     S
C56    C57     1.410   .     S
C57    C58     1.399   .     D
C57    H142    1.140   .     S
C58    H143    1.140   .     S
C59    C60     1.408   .     D
C59    C64     1.411   .     S
C60    C61     1.398   .     S
C60    H144    1.140   .     S
C61    C62     1.396   .     D
C61    H145    1.140   .     S
C62    C63     1.405   .     S
C62    N66     1.435   .     S
C63    C64     1.400   .     D
C63    H146    1.140   .     S
C64    H147    1.140   .     S
N65    C135    1.301   1_455 D
N66    C67     1.300   .     D
C67    C68     1.475   .     S
C67    H148    1.140   .     S
C68    N69     1.362   .     D
C68    C73     1.401   .     S
N69    C70     1.359   .     S
C70    C71     1.405   .     D
C70    H149    1.140   .     S
C71    C72     1.405   .     S
C71    C74     1.486   .     S
C72    C73     1.399   .     D
C72    H150    1.140   .     S
C73    H162    1.140   .     S
C74    C75     1.405   .     S
C74    C79     1.405   .     D
C75    C76     1.405   .     D
C75    H151    1.140   .     S
C76    C77     1.405   .     S
C76    C80     1.486   .     S
C77    C78     1.405   .     D
C77    H152    1.140   .     S
C78    C79     1.405   .     S
C78    C127    1.489   .     S
C79    H153    1.140   .     S
C80    C81     1.406   .     D
C80    C126    1.405   .     S
C81    N123    1.361   .     S
C81    H154    1.140   .     S
N82    C83     1.360   .     D
C83    C84     1.399   .     S
C83    C94     1.472   .     S
C84    C85     1.396   .     D
C84    H114    1.140   .     S
C85    H115    1.140   .     S
C86    C87     1.409   .     D
C86    C91     1.409   .     S
C87    N88     1.358   .     S
C87    H116    1.140   .     S
N88    C89     1.360   .     D
C89    C90     1.397   .     S
C89    C92     1.472   .     S
C90    C91     1.395   .     D
C90    H117    1.140   .     S
C91    H118    1.140   .     S
C92    H119    1.140   .     S
C92    N93     1.300   1_545 D
N93    C92     1.300   1_565 D
C94    H120    1.140   .     S
C94    N25     1.300   1_655 D
C122   N134    1.433   .     S
N123   C124    1.362   .     D
C124   C125    1.400   .     S
C124   C135    1.475   .     S
C125   C126    1.396   .     D
C125   H155    1.140   .     S
C126   H156    1.140   .     S
C127   C128    1.407   .     S
C127   C132    1.406   .     D
C128   N129    1.360   .     D
C128   H157    1.140   .     S
N129   C130    1.361   .     S
C130   C131    1.400   .     D
C130   C133    1.474   .     S
C131   C132    1.397   .     S
C131   H158    1.140   .     S
C132   H159    1.140   .     S
C133   H160    1.140   .     S
C133   N134    1.300   1_545 D
N134   C133    1.300   1_565 D
C135   H161    1.140   .     S
C135   N65     1.301   1_655 D
