data_1093
_audit_creation_date              2023-09-08
_audit_creation_method            'Materials Studio'
_symmetry_space_group_name_H-M    'P1'
_symmetry_Int_Tables_number       1
_symmetry_cell_setting            triclinic
loop_
_symmetry_equiv_pos_as_xyz
  x,y,z
_cell_length_a                    25.4926
_cell_length_b                    25.1608
_cell_length_c                    6.3067
_cell_angle_alpha                 90.0000
_cell_angle_beta                  90.0000
_cell_angle_gamma                 120.0000
loop_
_atom_site_label
_atom_site_type_symbol
_atom_site_fract_x
_atom_site_fract_y
_atom_site_fract_z
_atom_site_U_iso_or_equiv
_atom_site_adp_type
_atom_site_occupancy
C11    C     0.10706   1.26166   0.16378   0.00000  Uiso   1.00
C22    C     0.14127   1.23194   0.15287   0.00000  Uiso   1.00
C33    C     0.11424   1.16900   0.14359   0.00000  Uiso   1.00
C44    C     0.04981   1.13211   0.14514   0.00000  Uiso   1.00
C55    C     0.01491   1.16213   0.15277   0.00000  Uiso   1.00
C66    C     0.04342   1.22523   0.16273   0.00000  Uiso   1.00
N77    N    -0.03896   1.03677   0.14763   0.00000  Uiso   1.00
C88    C    -0.06351   0.97548   0.14926   0.00000  Uiso   1.00
N99    N    -0.03215   0.94563   0.14803   0.00000  Uiso   1.00
C1010  C     0.02833   0.98205   0.14405   0.00000  Uiso   1.00
N1111  N     0.05779   1.04366   0.14206   0.00000  Uiso   1.00
C1212  C     0.02185   1.06853   0.14379   0.00000  Uiso   1.00
C1313  C    -0.25402   0.86864   0.17981   0.00000  Uiso   1.00
C1414  C    -0.21806   0.84061   0.17509   0.00000  Uiso   1.00
C1515  C    -0.15582   0.87485   0.16265   0.00000  Uiso   1.00
C1616  C    -0.12623   0.94023   0.15569   0.00000  Uiso   1.00
C1717  C    -0.16265   0.96861   0.15872   0.00000  Uiso   1.00
C1818  C    -0.22473   0.93303   0.17040   0.00000  Uiso   1.00
C1919  C     0.06314   0.95374   0.14541   0.00000  Uiso   1.00
C2020  C     0.03515   0.88848   0.15018   0.00000  Uiso   1.00
C2121  C     0.07033   0.86118   0.15889   0.00000  Uiso   1.00
C2222  C     0.13393   0.89591   0.16294   0.00000  Uiso   1.00
C2323  C     0.16157   0.96036   0.15575   0.00000  Uiso   1.00
C2424  C     0.12771   0.98915   0.14640   0.00000  Uiso   1.00
N2525  N    -0.31763   0.83518   0.19341   0.00000  Uiso   1.00
N2626  N     0.16701   0.86495   0.17465   0.00000  Uiso   1.00
C2727  C     0.22470   0.88670   0.20110   0.00000  Uiso   1.00
C2828  C     0.24773   0.84448   0.21639   0.00000  Uiso   1.00
N2929  N     0.20955   0.78372   0.19495   0.00000  Uiso   1.00
C3030  C     0.22971   0.74364   0.21004   0.00000  Uiso   1.00
C3131  C     0.29012   0.76167   0.24788   0.00000  Uiso   1.00
C3232  C     0.33044   0.82576   0.26850   0.00000  Uiso   1.00
C3333  C     0.30933   0.86613   0.25308   0.00000  Uiso   1.00
C3434  C     0.30904   0.71601   0.26142   0.00000  Uiso   1.00
C3535  C     0.37074   0.73339   0.26795   0.00000  Uiso   1.00
C3636  C     0.39164   0.69115   0.26857   0.00000  Uiso   1.00
C3737  C     0.34716   0.62858   0.27009   0.00000  Uiso   1.00
C3838  C     0.28462   0.60752   0.26376   0.00000  Uiso   1.00
C3939  C     0.26734   0.65261   0.26279   0.00000  Uiso   1.00
C4040  C     0.45569   0.71048   0.26157   0.00000  Uiso   1.00
C4141  C     0.49825   0.77133   0.21773   0.00000  Uiso   1.00
N4282  N     0.55804   0.79183   0.20699   0.00000  Uiso   1.00
C4383  C     0.57995   0.75363   0.23963   0.00000  Uiso   1.00
C4484  C     0.53979   0.69162   0.28341   0.00000  Uiso   1.00
C4585  C     0.47874   0.67009   0.29378   0.00000  Uiso   1.00
C4686  C     0.23968   0.54274   0.25264   0.00000  Uiso   1.00
C4787  C     0.25727   0.49988   0.20518   0.00000  Uiso   1.00
N4888  N     0.21778   0.43934   0.19194   0.00000  Uiso   1.00
C4989  C     0.15815   0.41695   0.22537   0.00000  Uiso   1.00
C5090  C     0.13701   0.45741   0.27216   0.00000  Uiso   1.00
C5191  C     0.17675   0.51923   0.28511   0.00000  Uiso   1.00
C5292  C     0.11650   0.35134   0.21227   0.00000  Uiso   1.00
N5393  N     0.13771   1.32615   0.17580   0.00000  Uiso   1.00
C5494  C     0.64474   0.77711   0.22840   0.00000  Uiso   1.00
H5595  H     0.19276   1.26145   0.15181   0.00000  Uiso   1.00
H5696  H     0.14334   1.14638   0.13468   0.00000  Uiso   1.00
H5797  H    -0.03667   1.13391   0.15063   0.00000  Uiso   1.00
H5898  H     0.01543   1.24908   0.17035   0.00000  Uiso   1.00
H5999  H    -0.24156   0.78839   0.18181   0.00000  Uiso   1.00
H60100 H    -0.12786   0.85095   0.15789   0.00000  Uiso   1.00
H61101 H    -0.14033   1.02074   0.15146   0.00000  Uiso   1.00
H62102 H    -0.25386   0.95568   0.17265   0.00000  Uiso   1.00
H63103 H    -0.01632   0.85893   0.14678   0.00000  Uiso   1.00
H64104 H     0.04799   0.80903   0.16301   0.00000  Uiso   1.00
H65105 H     0.21305   0.98989   0.15760   0.00000  Uiso   1.00
H66106 H     0.15126   1.04136   0.13944   0.00000  Uiso   1.00
H67107 H     0.25658   0.93839   0.21204   0.00000  Uiso   1.00
H68108 H     0.19677   0.69237   0.19162   0.00000  Uiso   1.00
H69109 H     0.38069   0.84390   0.29805   0.00000  Uiso   1.00
H70110 H     0.40449   0.78476   0.27290   0.00000  Uiso   1.00
H71111 H     0.36114   0.59208   0.27672   0.00000  Uiso   1.00
H72112 H     0.21730   0.63843   0.26310   0.00000  Uiso   1.00
H73113 H     0.48048   0.80431   0.19035   0.00000  Uiso   1.00
H74114 H     0.55787   0.65889   0.31054   0.00000  Uiso   1.00
H75115 H     0.44616   0.61952   0.32841   0.00000  Uiso   1.00
H76116 H     0.30759   0.51806   0.17700   0.00000  Uiso   1.00
H77117 H     0.08660   0.43891   0.29959   0.00000  Uiso   1.00
H78118 H     0.15934   0.55205   0.32208   0.00000  Uiso   1.00
H79119 H     0.06582   0.33242   0.23392   0.00000  Uiso   1.00
H80120 H     0.66340   0.74467   0.25020   0.00000  Uiso   1.00
H81121 H     0.34195   0.91751   0.27013   0.00000  Uiso   1.00
loop_
_geom_bond_atom_site_label_1
_geom_bond_atom_site_label_2
_geom_bond_distance
_geom_bond_site_symmetry_2
_ccdc_geom_bond_type
C11    C22     1.406   .     S
C11    C66     1.409   .     D
C11    N5393   1.408   .     S
C22    C33     1.377   .     D
C22    H5595   1.140   .     S
C33    C44     1.426   .     S
C33    H5696   1.140   .     S
C44    C55     1.427   .     D
C44    C1212   1.388   .     S
C55    C66     1.378   .     S
C55    H5797   1.140   .     S
C66    H5898   1.140   .     S
N77    C88     1.343   .     S
N77    C1212   1.343   .     D
C88    N99     1.343   .     D
C88    C1616   1.388   .     S
N99    C1010   1.343   .     S
C1010  N1111   1.343   .     D
C1010  C1919   1.388   .     S
N1111  C1212   1.343   .     S
C1313  C1414   1.409   .     D
C1313  C1818   1.406   .     S
C1313  N2525   1.407   .     S
C1414  C1515   1.378   .     S
C1414  H5999   1.140   .     S
C1515  C1616   1.427   .     D
C1515  H60100  1.140   .     S
C1616  C1717   1.427   .     S
C1717  C1818   1.376   .     D
C1717  H61101  1.140   .     S
C1818  H62102  1.140   .     S
C1919  C2020   1.426   .     D
C1919  C2424   1.427   .     S
C2020  C2121   1.377   .     S
C2020  H63103  1.140   .     S
C2121  C2222   1.406   .     D
C2121  H64104  1.140   .     S
C2222  C2323   1.409   .     S
C2222  N2626   1.407   .     S
C2323  C2424   1.378   .     D
C2323  H65105  1.140   .     S
C2424  H66106  1.140   .     S
N2525  C5494   1.305   1_455 D
N2626  C2727   1.298   .     D
C2727  C2828   1.451   .     S
C2727  H67107  1.140   .     S
C2828  N2929   1.347   .     D
C2828  C3333   1.400   .     S
N2929  C3030   1.345   .     S
C3030  C3131   1.391   .     D
C3030  H68108  1.140   .     S
C3131  C3232   1.420   .     S
C3131  C3434   1.454   .     S
C3232  C3333   1.370   .     D
C3232  H69109  1.140   .     S
C3333  H81121  1.140   .     S
C3434  C3535   1.407   .     S
C3434  C3939   1.407   .     D
C3535  C3636   1.407   .     D
C3535  H70110  1.140   .     S
C3636  C3737   1.407   .     S
C3636  C4040   1.453   .     S
C3737  C3838   1.407   .     D
C3737  H71111  1.140   .     S
C3838  C3939   1.407   .     S
C3838  C4686   1.451   .     S
C3939  H72112  1.140   .     S
C4040  C4141   1.392   .     D
C4040  C4585   1.420   .     S
C4141  N4282   1.344   .     S
C4141  H73113  1.140   .     S
N4282  C4383   1.347   .     D
C4383  C4484   1.400   .     S
C4383  C5494   1.451   .     S
C4484  C4585   1.370   .     D
C4484  H74114  1.140   .     S
C4585  H75115  1.140   .     S
C4686  C4787   1.392   .     D
C4686  C5191   1.420   .     S
C4787  N4888   1.344   .     S
C4787  H76116  1.140   .     S
N4888  C4989   1.348   .     D
C4989  C5090   1.401   .     S
C4989  C5292   1.451   .     S
C5090  C5191   1.370   .     D
C5090  H77117  1.140   .     S
C5191  H78118  1.140   .     S
C5292  H79119  1.140   .     S
C5292  N5393   1.044   1_545 D
N5393  C5292   1.044   1_565 D
C5494  H80120  1.140   .     S
C5494  N2525   1.305   1_655 D
