data_1094
_audit_creation_date              2023-09-08
_audit_creation_method            'Materials Studio'
_symmetry_space_group_name_H-M    'P1'
_symmetry_Int_Tables_number       1
_symmetry_cell_setting            triclinic
loop_
_symmetry_equiv_pos_as_xyz
  x,y,z
_cell_length_a                    25.4926
_cell_length_b                    25.1608
_cell_length_c                    6.3067
_cell_angle_alpha                 90.0000
_cell_angle_beta                  90.0000
_cell_angle_gamma                 120.0000
loop_
_atom_site_label
_atom_site_type_symbol
_atom_site_fract_x
_atom_site_fract_y
_atom_site_fract_z
_atom_site_U_iso_or_equiv
_atom_site_adp_type
_atom_site_occupancy
C11    C     0.10706   1.26166   0.16378   0.00000  Uiso   1.00
C22    C     0.14127   1.23194   0.15287   0.00000  Uiso   1.00
C33    C     0.11424   1.16900   0.14359   0.00000  Uiso   1.00
C44    C     0.04981   1.13211   0.14514   0.00000  Uiso   1.00
C55    C     0.01491   1.16213   0.15277   0.00000  Uiso   1.00
C66    C     0.04342   1.22523   0.16273   0.00000  Uiso   1.00
N77    N    -0.03896   1.03677   0.14763   0.00000  Uiso   1.00
C88    C    -0.06351   0.97548   0.14926   0.00000  Uiso   1.00
N99    N    -0.03215   0.94563   0.14803   0.00000  Uiso   1.00
C1010  C     0.02833   0.98205   0.14405   0.00000  Uiso   1.00
N1111  N     0.05779   1.04366   0.14206   0.00000  Uiso   1.00
C1212  C     0.02185   1.06853   0.14379   0.00000  Uiso   1.00
C1313  C    -0.25402   0.86864   0.17981   0.00000  Uiso   1.00
C1414  C    -0.21806   0.84061   0.17509   0.00000  Uiso   1.00
C1515  C    -0.15582   0.87485   0.16265   0.00000  Uiso   1.00
C1616  C    -0.12623   0.94023   0.15569   0.00000  Uiso   1.00
C1717  C    -0.16265   0.96861   0.15872   0.00000  Uiso   1.00
C1818  C    -0.22473   0.93303   0.17040   0.00000  Uiso   1.00
C1919  C     0.06314   0.95374   0.14541   0.00000  Uiso   1.00
C2020  C     0.03515   0.88848   0.15018   0.00000  Uiso   1.00
C2121  C     0.07033   0.86118   0.15889   0.00000  Uiso   1.00
C2222  C     0.13393   0.89591   0.16294   0.00000  Uiso   1.00
C2323  C     0.16157   0.96036   0.15575   0.00000  Uiso   1.00
C2424  C     0.12771   0.98915   0.14640   0.00000  Uiso   1.00
N2525  N    -0.31763   0.83518   0.19341   0.00000  Uiso   1.00
N2626  N     0.16701   0.86495   0.17465   0.00000  Uiso   1.00
C2727  C     0.22470   0.88670   0.20110   0.00000  Uiso   1.00
C2828  C     0.24773   0.84448   0.21639   0.00000  Uiso   1.00
N2929  N     0.20955   0.78372   0.19495   0.00000  Uiso   1.00
C3030  C     0.22971   0.74364   0.21004   0.00000  Uiso   1.00
C3131  C     0.29012   0.76167   0.24788   0.00000  Uiso   1.00
C3232  C     0.33044   0.82576   0.26850   0.00000  Uiso   1.00
C3333  C     0.30933   0.86613   0.25308   0.00000  Uiso   1.00
C3434  C     0.30904   0.71601   0.26142   0.00000  Uiso   1.00
C3535  C     0.37074   0.73339   0.26795   0.00000  Uiso   1.00
C3636  C     0.39164   0.69115   0.26857   0.00000  Uiso   1.00
C3737  C     0.34716   0.62858   0.27009   0.00000  Uiso   1.00
C3838  C     0.28462   0.60752   0.26376   0.00000  Uiso   1.00
C3939  C     0.26734   0.65261   0.26279   0.00000  Uiso   1.00
C4040  C     0.45569   0.71048   0.26157   0.00000  Uiso   1.00
C4141  C     0.49825   0.77133   0.21773   0.00000  Uiso   1.00
C8342  C     0.48127   0.89664   0.77149   0.00000  Uiso   1.00
C8443  C     0.45268   0.83356   0.76773   0.00000  Uiso   1.00
C8544  C     0.38816   0.79835   0.76457   0.00000  Uiso   1.00
C8645  C     0.35475   0.82992   0.76297   0.00000  Uiso   1.00
C8746  C     0.38478   0.89309   0.76501   0.00000  Uiso   1.00
N8847  N     0.29785   0.70456   0.76101   0.00000  Uiso   1.00
C8948  C     0.27195   0.64321   0.76240   0.00000  Uiso   1.00
N9049  N     0.30177   0.61187   0.76557   0.00000  Uiso   1.00
C9150  C     0.36231   0.64696   0.76853   0.00000  Uiso   1.00
N9251  N     0.39325   0.70851   0.76948   0.00000  Uiso   1.00
C9352  C     0.35860   0.73476   0.76449   0.00000  Uiso   1.00
C9453  C     0.08140   0.54065   0.78518   0.00000  Uiso   1.00
C9554  C     0.11606   0.51123   0.78704   0.00000  Uiso   1.00
C9655  C     0.17831   0.54411   0.77563   0.00000  Uiso   1.00
C9756  C     0.20918   0.60943   0.76383   0.00000  Uiso   1.00
C9857  C     0.17416   0.63928   0.75869   0.00000  Uiso   1.00
C9958  C     0.11195   0.60501   0.76914   0.00000  Uiso   1.00
C10059 C     0.39550   0.61700   0.77272   0.00000  Uiso   1.00
C10160 C     0.36583   0.55167   0.76460   0.00000  Uiso   1.00
C10261 C     0.39947   0.52268   0.77065   0.00000  Uiso   1.00
C10362 C     0.46296   0.55585   0.78701   0.00000  Uiso   1.00
C10463 C     0.49222   0.62036   0.79372   0.00000  Uiso   1.00
C10564 C     0.45996   0.65081   0.78568   0.00000  Uiso   1.00
N10665 N     0.01779   0.50813   0.79699   0.00000  Uiso   1.00
N10766 N     0.49501   0.52385   0.79350   0.00000  Uiso   1.00
C10867 C     0.54751   0.54160   0.87902   0.00000  Uiso   1.00
C10968 C     0.57349   0.50186   0.86753   0.00000  Uiso   1.00
N11069 N     0.54576   0.45001   0.75089   0.00000  Uiso   1.00
C11170 C     0.56863   0.41224   0.73903   0.00000  Uiso   1.00
C11271 C     0.62158   0.42417   0.84389   0.00000  Uiso   1.00
C11372 C     0.65138   0.47915   0.96503   0.00000  Uiso   1.00
C11473 C     0.62720   0.51700   0.97597   0.00000  Uiso   1.00
C11574 C     0.64280   0.38097   0.82906   0.00000  Uiso   1.00
C11675 C     0.70485   0.40024   0.85023   0.00000  Uiso   1.00
C11776 C     0.72728   0.35913   0.84356   0.00000  Uiso   1.00
C11877 C     0.68450   0.29616   0.82150   0.00000  Uiso   1.00
C11978 C     0.62187   0.27395   0.79798   0.00000  Uiso   1.00
C12079 C     0.60256   0.31760   0.79981   0.00000  Uiso   1.00
C12180 C     0.79114   0.38023   0.85234   0.00000  Uiso   1.00
C12281 C     0.83248   0.43853   0.77644   0.00000  Uiso   1.00
N4282  N     0.55804   0.79183   0.20699   0.00000  Uiso   1.00
C4383  C     0.57995   0.75363   0.23963   0.00000  Uiso   1.00
C4484  C     0.53979   0.69162   0.28341   0.00000  Uiso   1.00
C4585  C     0.47874   0.67009   0.29378   0.00000  Uiso   1.00
C4686  C     0.23968   0.54274   0.25264   0.00000  Uiso   1.00
C4787  C     0.25727   0.49988   0.20518   0.00000  Uiso   1.00
N4888  N     0.21778   0.43934   0.19194   0.00000  Uiso   1.00
C4989  C     0.15815   0.41695   0.22537   0.00000  Uiso   1.00
C5090  C     0.13701   0.45741   0.27216   0.00000  Uiso   1.00
C5191  C     0.17675   0.51923   0.28511   0.00000  Uiso   1.00
C5292  C     0.11650   0.35134   0.21227   0.00000  Uiso   1.00
N5393  N     0.13771   1.32615   0.17580   0.00000  Uiso   1.00
C5494  C     0.64474   0.77711   0.22840   0.00000  Uiso   1.00
H5595  H     0.19276   1.26145   0.15181   0.00000  Uiso   1.00
H5696  H     0.14334   1.14638   0.13468   0.00000  Uiso   1.00
H5797  H    -0.03667   1.13391   0.15063   0.00000  Uiso   1.00
H5898  H     0.01543   1.24908   0.17035   0.00000  Uiso   1.00
H5999  H    -0.24156   0.78839   0.18181   0.00000  Uiso   1.00
H60100 H    -0.12786   0.85095   0.15789   0.00000  Uiso   1.00
H61101 H    -0.14033   1.02074   0.15146   0.00000  Uiso   1.00
H62102 H    -0.25386   0.95568   0.17265   0.00000  Uiso   1.00
H63103 H    -0.01632   0.85893   0.14678   0.00000  Uiso   1.00
H64104 H     0.04799   0.80903   0.16301   0.00000  Uiso   1.00
H65105 H     0.21305   0.98989   0.15760   0.00000  Uiso   1.00
H66106 H     0.15126   1.04136   0.13944   0.00000  Uiso   1.00
H67107 H     0.25658   0.93839   0.21204   0.00000  Uiso   1.00
H68108 H     0.19677   0.69237   0.19162   0.00000  Uiso   1.00
H69109 H     0.38069   0.84390   0.29805   0.00000  Uiso   1.00
H70110 H     0.40449   0.78476   0.27290   0.00000  Uiso   1.00
H71111 H     0.36114   0.59208   0.27672   0.00000  Uiso   1.00
H72112 H     0.21730   0.63843   0.26310   0.00000  Uiso   1.00
H73113 H     0.48048   0.80431   0.19035   0.00000  Uiso   1.00
H74114 H     0.55787   0.65889   0.31054   0.00000  Uiso   1.00
H75115 H     0.44616   0.61952   0.32841   0.00000  Uiso   1.00
H76116 H     0.30759   0.51806   0.17700   0.00000  Uiso   1.00
H77117 H     0.08660   0.43891   0.29959   0.00000  Uiso   1.00
H78118 H     0.15934   0.55205   0.32208   0.00000  Uiso   1.00
H79119 H     0.06582   0.33242   0.23392   0.00000  Uiso   1.00
H80120 H     0.66340   0.74467   0.25020   0.00000  Uiso   1.00
H81121 H     0.34195   0.91751   0.27013   0.00000  Uiso   1.00
C82122 C     0.44848   0.92792   0.76925   0.00000  Uiso   1.00
N123123 N     0.89257   0.46082   0.78015   0.00000  Uiso   1.00
C124124 C     0.91581   0.42713   0.85920   0.00000  Uiso   1.00
C125125 C     0.87688   0.36796   0.93726   0.00000  Uiso   1.00
C126126 C     0.81539   0.34434   0.93426   0.00000  Uiso   1.00
C127127 C     0.57915   0.20959   0.77168   0.00000  Uiso   1.00
C128128 C     0.59200   0.16614   0.85615   0.00000  Uiso   1.00
N129129 N     0.55439   0.10551   0.83442   0.00000  Uiso   1.00
C130130 C     0.50172   0.08377   0.72774   0.00000  Uiso   1.00
C131131 C     0.48566   0.12484   0.63985   0.00000  Uiso   1.00
C132132 C     0.52341   0.18690   0.66080   0.00000  Uiso   1.00
C133133 C     0.46204   0.01801   0.70575   0.00000  Uiso   1.00
N134134 N     0.48015   0.99242   0.77329   0.00000  Uiso   1.00
C135135 C     0.98095   0.45232   0.86196   0.00000  Uiso   1.00
H136136 H     0.53283   0.92488   0.77656   0.00000  Uiso   1.00
H137137 H     0.48058   0.80956   0.76716   0.00000  Uiso   1.00
H138138 H     0.30314   0.80286   0.75999   0.00000  Uiso   1.00
H139139 H     0.35802   0.91828   0.76327   0.00000  Uiso   1.00
H140140 H     0.09149   0.45903   0.79830   0.00000  Uiso   1.00
H141141 H     0.20526   0.51911   0.77561   0.00000  Uiso   1.00
H142142 H     0.19767   0.69140   0.74595   0.00000  Uiso   1.00
H143143 H     0.08383   0.62874   0.76487   0.00000  Uiso   1.00
H144144 H     0.31436   0.52346   0.75312   0.00000  Uiso   1.00
H145145 H     0.37589   0.47048   0.76233   0.00000  Uiso   1.00
H146146 H     0.54368   0.64851   0.80607   0.00000  Uiso   1.00
H147147 H     0.48480   0.70310   0.78938   0.00000  Uiso   1.00
H148148 H     0.57274   0.58798   0.96209   0.00000  Uiso   1.00
H149149 H     0.54460   0.36849   0.64040   0.00000  Uiso   1.00
H150150 H     0.69518   0.49156   1.05246   0.00000  Uiso   1.00
H151151 H     0.73735   0.45142   0.87357   0.00000  Uiso   1.00
H152152 H     0.70007   0.26084   0.82223   0.00000  Uiso   1.00
H153153 H     0.55259   0.30220   0.77705   0.00000  Uiso   1.00
H154154 H     0.81351   0.46756   0.70942   0.00000  Uiso   1.00
H155155 H     0.89632   0.33927   1.00359   0.00000  Uiso   1.00
H156156 H     0.78393   0.29614   0.99727   0.00000  Uiso   1.00
H157157 H     0.63639   0.18383   0.94649   0.00000  Uiso   1.00
H158158 H     0.44106   0.10666   0.55052   0.00000  Uiso   1.00
H159159 H     0.51009   0.22010   0.58948   0.00000  Uiso   1.00
H160160 H     0.41551  -0.00076   0.62980   0.00000  Uiso   1.00
H161161 H     1.00071   0.42316   0.92081   0.00000  Uiso   1.00
H162162 H     0.65076   0.56098   1.07354   0.00000  Uiso   1.00
loop_
_geom_bond_atom_site_label_1
_geom_bond_atom_site_label_2
_geom_bond_distance
_geom_bond_site_symmetry_2
_ccdc_geom_bond_type
C11    C22     1.406   .     S
C11    C66     1.409   .     D
C11    N5393   1.408   .     S
C22    C33     1.377   .     D
C22    H5595   1.140   .     S
C33    C44     1.426   .     S
C33    H5696   1.140   .     S
C44    C55     1.427   .     D
C44    C1212   1.388   .     S
C55    C66     1.378   .     S
C55    H5797   1.140   .     S
C66    H5898   1.140   .     S
N77    C88     1.343   .     S
N77    C1212   1.343   .     D
C88    N99     1.343   .     D
C88    C1616   1.388   .     S
N99    C1010   1.343   .     S
C1010  N1111   1.343   .     D
C1010  C1919   1.388   .     S
N1111  C1212   1.343   .     S
C1313  C1414   1.409   .     D
C1313  C1818   1.406   .     S
C1313  N2525   1.407   .     S
C1414  C1515   1.378   .     S
C1414  H5999   1.140   .     S
C1515  C1616   1.427   .     D
C1515  H60100  1.140   .     S
C1616  C1717   1.427   .     S
C1717  C1818   1.376   .     D
C1717  H61101  1.140   .     S
C1818  H62102  1.140   .     S
C1919  C2020   1.426   .     D
C1919  C2424   1.427   .     S
C2020  C2121   1.377   .     S
C2020  H63103  1.140   .     S
C2121  C2222   1.406   .     D
C2121  H64104  1.140   .     S
C2222  C2323   1.409   .     S
C2222  N2626   1.407   .     S
C2323  C2424   1.378   .     D
C2323  H65105  1.140   .     S
C2424  H66106  1.140   .     S
N2525  C5494   1.305   1_455 D
N2626  C2727   1.298   .     D
C2727  C2828   1.451   .     S
C2727  H67107  1.140   .     S
C2828  N2929   1.347   .     D
C2828  C3333   1.400   .     S
N2929  C3030   1.345   .     S
C3030  C3131   1.391   .     D
C3030  H68108  1.140   .     S
C3131  C3232   1.420   .     S
C3131  C3434   1.454   .     S
C3232  C3333   1.370   .     D
C3232  H69109  1.140   .     S
C3333  H81121  1.140   .     S
C3434  C3535   1.407   .     S
C3434  C3939   1.407   .     D
C3535  C3636   1.407   .     D
C3535  H70110  1.140   .     S
C3636  C3737   1.407   .     S
C3636  C4040   1.453   .     S
C3737  C3838   1.407   .     D
C3737  H71111  1.140   .     S
C3838  C3939   1.407   .     S
C3838  C4686   1.451   .     S
C3939  H72112  1.140   .     S
C4040  C4141   1.392   .     D
C4040  C4585   1.420   .     S
C4141  N4282   1.344   .     S
C4141  H73113  1.140   .     S
C8342  C8443   1.376   .     D
C8342  C82122  1.406   .     S
C8342  H136136  1.140   .     S
C8443  C8544   1.426   .     S
C8443  H137137  1.140   .     S
C8544  C8645   1.426   .     D
C8544  C9352   1.386   .     S
C8645  C8746   1.377   .     S
C8645  H138138  1.140   .     S
C8746  C82122  1.408   .     D
C8746  H139139  1.140   .     S
N8847  C8948   1.341   .     D
N8847  C9352   1.341   .     S
C8948  N9049   1.341   .     S
C8948  C9756   1.387   .     S
N9049  C9150   1.341   .     D
C9150  N9251   1.341   .     S
C9150  C10059  1.387   .     S
N9251  C9352   1.342   .     D
C9453  C9554   1.408   .     D
C9453  C9958   1.406   .     S
C9453  N10665  1.406   .     S
C9554  C9655   1.377   .     S
C9554  H140140  1.140   .     S
C9655  C9756   1.426   .     D
C9655  H141141  1.140   .     S
C9756  C9857   1.426   .     S
C9857  C9958   1.377   .     D
C9857  H142142  1.140   .     S
C9958  H143143  1.140   .     S
C10059 C10160  1.426   .     D
C10059 C10564  1.426   .     S
C10160 C10261  1.376   .     S
C10160 H144144  1.140   .     S
C10261 C10362  1.406   .     D
C10261 H145145  1.140   .     S
C10362 C10463  1.408   .     S
C10362 N10766  1.405   .     S
C10463 C10564  1.377   .     D
C10463 H146146  1.140   .     S
C10564 H147147  1.140   .     S
N10665 C135135  1.305   1_455 D
N10766 C10867  1.298   .     D
C10867 C10968  1.451   .     S
C10867 H148148  1.140   .     S
C10968 N11069  1.349   .     D
C10968 C11473  1.402   .     S
N11069 C11170  1.343   .     S
C11170 C11271  1.394   .     D
C11170 H149149  1.140   .     S
C11271 C11372  1.423   .     S
C11271 C11574  1.439   .     S
C11372 C11473  1.371   .     D
C11372 H150150  1.140   .     S
C11473 H162162  1.140   .     S
C11574 C11675  1.410   .     S
C11574 C12079  1.412   .     D
C11675 C11776  1.411   .     D
C11675 H151151  1.140   .     S
C11776 C11877  1.411   .     S
C11776 C12180  1.439   .     S
C11877 C11978  1.411   .     D
C11877 H152152  1.140   .     S
C11978 C12079  1.410   .     S
C11978 C127127  1.440   .     S
C12079 H153153  1.140   .     S
C12180 C12281  1.395   .     D
C12180 C126126  1.422   .     S
C12281 N123123  1.343   .     S
C12281 H154154  1.140   .     S
N4282  C4383   1.347   .     D
C4383  C4484   1.400   .     S
C4383  C5494   1.451   .     S
C4484  C4585   1.370   .     D
C4484  H74114  1.140   .     S
C4585  H75115  1.140   .     S
C4686  C4787   1.392   .     D
C4686  C5191   1.420   .     S
C4787  N4888   1.344   .     S
C4787  H76116  1.140   .     S
N4888  C4989   1.348   .     D
C4989  C5090   1.401   .     S
C4989  C5292   1.451   .     S
C5090  C5191   1.370   .     D
C5090  H77117  1.140   .     S
C5191  H78118  1.140   .     S
C5292  H79119  1.140   .     S
C5292  N5393   1.044   1_545 D
N5393  C5292   1.044   1_565 D
C5494  H80120  1.140   .     S
C5494  N2525   1.305   1_655 D
C82122 N134134  1.406   .     S
N123123 C124124  1.349   .     D
C124124 C125125  1.402   .     S
C124124 C135135  1.452   .     S
C125125 C126126  1.371   .     D
C125125 H155155  1.140   .     S
C126126 H156156  1.140   .     S
C127127 C128128  1.394   .     S
C127127 C132132  1.422   .     D
C128128 N129129  1.343   .     D
C128128 H157157  1.140   .     S
N129129 C130130  1.349   .     S
C130130 C131131  1.402   .     D
C130130 C133133  1.451   .     S
C131131 C132132  1.371   .     S
C131131 H158158  1.140   .     S
C132132 H159159  1.140   .     S
C133133 H160160  1.140   .     S
C133133 N134134  1.052   1_545 D
N134134 C133133  1.052   1_565 D
C135135 H161161  1.140   .     S
C135135 N10665  1.305   1_655 D
