data_1095
_audit_creation_date              2023-09-08
_audit_creation_method            'Materials Studio'
_symmetry_space_group_name_H-M    'P1'
_symmetry_Int_Tables_number       1
_symmetry_cell_setting            triclinic
loop_
_symmetry_equiv_pos_as_xyz
  x,y,z
_cell_length_a                    24.6865
_cell_length_b                    24.6865
_cell_length_c                    3.5002
_cell_angle_alpha                 90.0000
_cell_angle_beta                  90.0000
_cell_angle_gamma                 120.0000
loop_
_atom_site_label
_atom_site_type_symbol
_atom_site_fract_x
_atom_site_fract_y
_atom_site_fract_z
_atom_site_U_iso_or_equiv
_atom_site_adp_type
_atom_site_occupancy
C1     C     0.33369   0.72457   0.50000   0.00000  Uiso   1.00
C2     C     0.44697   0.66542   0.50000   0.00000  Uiso   1.00
C3     C     0.44641   0.61011   0.50000   0.00000  Uiso   1.00
O4     O     0.38736   0.49672   0.50000   0.00000  Uiso   1.00
C5     C     0.44397   0.49982   0.50000   0.00000  Uiso   1.00
H6     H     0.49319   0.70785   0.50000   0.00000  Uiso   1.00
C7     C     0.27543   0.60912   0.50000   0.00000  Uiso   1.00
C8     C     0.33458   0.78155   0.50000   0.00000  Uiso   1.00
C9     C     0.38989   0.83630   0.50000   0.00000  Uiso   1.00
O10    O     0.50328   0.89064   0.50000   0.00000  Uiso   1.00
C11    C     0.50018   0.94415   0.50000   0.00000  Uiso   1.00
H12    H     0.29215   0.78534   0.50000   0.00000  Uiso   1.00
C13    C     0.39088   0.66631   0.50000   0.00000  Uiso   1.00
C14    C     0.21845   0.55303   0.50000   0.00000  Uiso   1.00
C15    C     0.16370   0.55359   0.50000   0.00000  Uiso   1.00
O16    O     0.10936   0.61264   0.50000   0.00000  Uiso   1.00
C17    C     0.05585   0.55603   0.50000   0.00000  Uiso   1.00
H18    H     0.21466   0.50681   0.50000   0.00000  Uiso   1.00
C19    C     0.66631   0.27543   0.50000   0.00000  Uiso   1.00
C20    C     0.55303   0.33458   0.50000   0.00000  Uiso   1.00
C21    C     0.55359   0.38989   0.50000   0.00000  Uiso   1.00
O22    O     0.61264   0.50328   0.50000   0.00000  Uiso   1.00
C23    C     0.55603   0.50018   0.50000   0.00000  Uiso   1.00
H24    H     0.50681   0.29215   0.50000   0.00000  Uiso   1.00
C25    C     0.72457   0.39088   0.50000   0.00000  Uiso   1.00
C26    C     0.66542   0.21845   0.50000   0.00000  Uiso   1.00
C27    C     0.61011   0.16370   0.50000   0.00000  Uiso   1.00
O28    O     0.49672   0.10936   0.50000   0.00000  Uiso   1.00
C29    C     0.49982   0.05585   0.50000   0.00000  Uiso   1.00
H30    H     0.70785   0.21466   0.50000   0.00000  Uiso   1.00
C31    C     0.60912   0.33369   0.50000   0.00000  Uiso   1.00
C32    C     0.78155   0.44697   0.50000   0.00000  Uiso   1.00
C33    C     0.83630   0.44641   0.50000   0.00000  Uiso   1.00
O34    O     0.89064   0.38736   0.50000   0.00000  Uiso   1.00
C35    C     0.94415   0.44397   0.50000   0.00000  Uiso   1.00
H36    H     0.78534   0.49319   0.50000   0.00000  Uiso   1.00
C37    C     0.72457   0.33369   0.50000   0.00000  Uiso   1.00
C38    C     0.66542   0.44697   0.50000   0.00000  Uiso   1.00
C39    C     0.61011   0.44641   0.50000   0.00000  Uiso   1.00
O40    O     0.49672   0.38736   0.50000   0.00000  Uiso   1.00
C41    C     0.49982   0.44397   0.50000   0.00000  Uiso   1.00
H42    H     0.70785   0.49319   0.50000   0.00000  Uiso   1.00
C43    C     0.60912   0.27543   0.50000   0.00000  Uiso   1.00
C44    C     0.78155   0.33458   0.50000   0.00000  Uiso   1.00
C45    C     0.83630   0.38989   0.50000   0.00000  Uiso   1.00
O46    O     0.89064   0.50328   0.50000   0.00000  Uiso   1.00
C47    C     0.94415   0.50018   0.50000   0.00000  Uiso   1.00
H48    H     0.78534   0.29215   0.50000   0.00000  Uiso   1.00
C49    C     0.66631   0.39088   0.50000   0.00000  Uiso   1.00
C50    C     0.55303   0.21845   0.50000   0.00000  Uiso   1.00
C51    C     0.55359   0.16370   0.50000   0.00000  Uiso   1.00
O52    O     0.61264   0.10936   0.50000   0.00000  Uiso   1.00
C53    C     0.55603   0.05585   0.50000   0.00000  Uiso   1.00
H54    H     0.50681   0.21466   0.50000   0.00000  Uiso   1.00
C55    C     0.27543   0.66631   0.50000   0.00000  Uiso   1.00
C56    C     0.33458   0.55303   0.50000   0.00000  Uiso   1.00
C57    C     0.38989   0.55359   0.50000   0.00000  Uiso   1.00
O58    O     0.50328   0.61264   0.50000   0.00000  Uiso   1.00
C59    C     0.50018   0.55603   0.50000   0.00000  Uiso   1.00
H60    H     0.29215   0.50681   0.50000   0.00000  Uiso   1.00
C61    C     0.39088   0.72457   0.50000   0.00000  Uiso   1.00
C62    C     0.21845   0.66542   0.50000   0.00000  Uiso   1.00
C63    C     0.16370   0.61011   0.50000   0.00000  Uiso   1.00
O64    O     0.10936   0.49672   0.50000   0.00000  Uiso   1.00
C65    C     0.05585   0.49982   0.50000   0.00000  Uiso   1.00
H66    H     0.21466   0.70785   0.50000   0.00000  Uiso   1.00
C67    C     0.33369   0.60912   0.50000   0.00000  Uiso   1.00
C68    C     0.44697   0.78155   0.50000   0.00000  Uiso   1.00
C69    C     0.44641   0.83630   0.50000   0.00000  Uiso   1.00
O70    O     0.38736   0.89064   0.50000   0.00000  Uiso   1.00
C71    C     0.44397   0.94415   0.50000   0.00000  Uiso   1.00
H72    H     0.49319   0.78534   0.50000   0.00000  Uiso   1.00
C73    C     0.55702   0.55702   0.50000   0.00000  Uiso   1.00
C74    C     0.61475   0.61475   0.50000   0.00000  Uiso   1.00
N75    N     0.33815   0.33815   0.50000   0.00000  Uiso   1.00
C76    C     0.44298  -0.00000   0.50000   0.00000  Uiso   1.00
C77    C     0.38525   0.00000   0.50000   0.00000  Uiso   1.00
N78    N     0.66185   0.00000   0.50000   0.00000  Uiso   1.00
C79    C     0.00000   0.44298   0.50000   0.00000  Uiso   1.00
C80    C     0.00000   0.38525   0.50000   0.00000  Uiso   1.00
N81    N     0.00000   0.66185   0.50000   0.00000  Uiso   1.00
C82    C     0.44298   0.44298   0.50000   0.00000  Uiso   1.00
C83    C     0.38525   0.38525   0.50000   0.00000  Uiso   1.00
N84    N     0.66185   0.66185   0.50000   0.00000  Uiso   1.00
C85    C     0.55702   0.00000   0.50000   0.00000  Uiso   1.00
C86    C     0.61475   0.00000   0.50000   0.00000  Uiso   1.00
N87    N     0.33815   0.00000   0.50000   0.00000  Uiso   1.00
C88    C     0.00000   0.55702   0.50000   0.00000  Uiso   1.00
C89    C     0.00000   0.61475   0.50000   0.00000  Uiso   1.00
N90    N     0.00000   0.33815   0.50000   0.00000  Uiso   1.00
loop_
_geom_bond_atom_site_label_1
_geom_bond_atom_site_label_2
_geom_bond_distance
_geom_bond_site_symmetry_2
_ccdc_geom_bond_type
C1     C55     1.438   .     S
C1     C61     1.412   .     D
C1     C8      1.396   .     S
C2     C3      1.359   .     D
C2     H6      1.097   .     S
C2     C13     1.396   .     S
C3     O58     1.374   .     S
C3     C57     1.395   .     S
O4     C5      1.361   .     S
O4     C57     1.374   .     S
C5     C82     1.391   .     S
C5     C59     1.388   .     D
C7     C67     1.438   .     S
C7     C55     1.412   .     S
C7     C14     1.396   .     D
C8     C9      1.359   .     D
C8     H12     1.097   .     S
C9     O70     1.374   .     S
C9     C69     1.395   .     S
O10    C11     1.361   .     S
O10    C69     1.374   .     S
C11    C71     1.388   .     D
C11    C85     1.391   1_565 S
C13    C61     1.438   .     S
C13    C67     1.412   .     D
C14    C15     1.359   .     S
C14    H18     1.097   .     S
C15    O64     1.374   .     S
C15    C63     1.395   .     D
O16    C17     1.361   .     S
O16    C63     1.374   .     S
C17    C88     1.391   .     D
C17    C65     1.388   .     S
C19    C37     1.438   .     S
C19    C43     1.412   .     S
C19    C26     1.396   .     D
C20    C21     1.359   .     S
C20    H24     1.097   .     S
C20    C31     1.396   .     D
C21    O40     1.374   .     S
C21    C39     1.395   .     D
O22    C23     1.361   .     S
O22    C39     1.374   .     S
C23    C73     1.391   .     D
C23    C41     1.388   .     S
C25    C49     1.438   .     S
C25    C37     1.412   .     S
C25    C32     1.396   .     D
C26    C27     1.359   .     S
C26    H30     1.097   .     S
C27    O52     1.374   .     S
C27    C51     1.395   .     D
O28    C29     1.361   .     S
O28    C51     1.374   .     S
C29    C76     1.391   .     D
C29    C53     1.388   .     S
C31    C43     1.438   .     S
C31    C49     1.412   .     S
C32    C33     1.359   .     S
C32    H36     1.097   .     S
C33    O46     1.374   .     S
C33    C45     1.395   .     D
O34    C35     1.361   .     S
O34    C45     1.374   .     S
C35    C47     1.388   .     D
C35    C79     1.391   1_655 S
C37    C44     1.396   .     D
C38    C39     1.359   .     S
C38    H42     1.097   .     S
C38    C49     1.396   .     D
O40    C41     1.361   .     S
C41    C82     1.391   .     D
C43    C50     1.396   .     D
C44    C45     1.359   .     S
C44    H48     1.097   .     S
O46    C47     1.361   .     S
C47    C88     1.391   1_655 S
C50    C51     1.359   .     S
C50    H54     1.097   .     S
O52    C53     1.361   .     S
C53    C85     1.391   .     D
C55    C62     1.396   .     D
C56    C57     1.359   .     D
C56    H60     1.097   .     S
C56    C67     1.396   .     S
O58    C59     1.361   .     S
C59    C73     1.391   .     S
C61    C68     1.396   .     S
C62    C63     1.359   .     S
C62    H66     1.097   .     S
O64    C65     1.361   .     S
C65    C79     1.391   .     D
C68    C69     1.359   .     D
C68    H72     1.097   .     S
O70    C71     1.361   .     S
C71    C76     1.391   1_565 S
C73    C74     1.425   .     S
C74    N84     1.163   .     T
N75    C83     1.163   .     T
C76    C77     1.425   .     S
C76    C71     1.391   1_545 S
C77    N87     1.163   .     T
N78    C86     1.163   .     T
C79    C80     1.425   .     S
C79    C35     1.391   1_455 S
C80    N90     1.163   .     T
N81    C89     1.163   .     T
C82    C83     1.425   .     S
C85    C86     1.425   .     S
C85    C11     1.391   1_545 S
C88    C89     1.425   .     S
C88    C47     1.391   1_455 S
