data_1096
_audit_creation_date              2023-09-08
_audit_creation_method            'Materials Studio'
_symmetry_space_group_name_H-M    'P1'
_symmetry_Int_Tables_number       1
_symmetry_cell_setting            triclinic
loop_
_symmetry_equiv_pos_as_xyz
  x,y,z
_cell_length_a                    24.6865
_cell_length_b                    24.6865
_cell_length_c                    3.5002
_cell_angle_alpha                 90.0000
_cell_angle_beta                  90.0000
_cell_angle_gamma                 120.0000
loop_
_atom_site_label
_atom_site_type_symbol
_atom_site_fract_x
_atom_site_fract_y
_atom_site_fract_z
_atom_site_U_iso_or_equiv
_atom_site_adp_type
_atom_site_occupancy
C11    C     0.33321   0.72458   0.50000   0.00000  Uiso   1.00
C22    C     0.44706   0.66609   0.50000   0.00000  Uiso   1.00
C33    C     0.44599   0.61034   0.50000   0.00000  Uiso   1.00
O44    O     0.38751   0.49767   0.50000   0.00000  Uiso   1.00
C55    C     0.44349   0.49938   0.50000   0.00000  Uiso   1.00
H66    H     0.49262   0.70824   0.50000   0.00000  Uiso   1.00
C77    C     0.27516   0.60924   0.50000   0.00000  Uiso   1.00
C88    C     0.33360   0.78154   0.50000   0.00000  Uiso   1.00
C99    C     0.38943   0.83617   0.50000   0.00000  Uiso   1.00
O1010  O     0.50212   0.89040   0.50000   0.00000  Uiso   1.00
C1111  C     0.50038   0.94467   0.50000   0.00000  Uiso   1.00
H1212  H     0.29143   0.78493   0.50000   0.00000  Uiso   1.00
C1313  C     0.39050   0.66652   0.50000   0.00000  Uiso   1.00
C1414  C     0.21819   0.55270   0.50000   0.00000  Uiso   1.00
C1515  C     0.16358   0.55389   0.50000   0.00000  Uiso   1.00
O1616  O     0.10929   0.61229   0.50000   0.00000  Uiso   1.00
C1717  C     0.05519   0.55634   0.50000   0.00000  Uiso   1.00
H1818  H     0.21464   0.50706   0.50000   0.00000  Uiso   1.00
C1919  C     0.66595   0.27544   0.50000   0.00000  Uiso   1.00
C2020  C     0.55202   0.33386   0.50000   0.00000  Uiso   1.00
C2121  C     0.55319   0.38966   0.50000   0.00000  Uiso   1.00
O2222  O     0.61170   0.50235   0.50000   0.00000  Uiso   1.00
C2323  C     0.55584   0.50059   0.50000   0.00000  Uiso   1.00
H2424  H     0.50640   0.29177   0.50000   0.00000  Uiso   1.00
C2525  C     0.72397   0.39078   0.50000   0.00000  Uiso   1.00
C2626  C     0.66562   0.21852   0.50000   0.00000  Uiso   1.00
C2727  C     0.60978   0.16393   0.50000   0.00000  Uiso   1.00
O2828  O     0.49714   0.10966   0.50000   0.00000  Uiso   1.00
C2929  C     0.49893   0.05559   0.50000   0.00000  Uiso   1.00
H3030  H     0.70772   0.21499   0.50000   0.00000  Uiso   1.00
C3131  C     0.60862   0.33349   0.50000   0.00000  Uiso   1.00
C3232  C     0.78094   0.44732   0.50000   0.00000  Uiso   1.00
C3333  C     0.83558   0.44618   0.50000   0.00000  Uiso   1.00
O3434  O     0.88994   0.38785   0.50000   0.00000  Uiso   1.00
C3535  C     0.94417   0.44386   0.50000   0.00000  Uiso   1.00
H3636  H     0.78434   0.49288   0.50000   0.00000  Uiso   1.00
C3737  C     0.72398   0.33351   0.50000   0.00000  Uiso   1.00
C3838  C     0.66551   0.44733   0.50000   0.00000  Uiso   1.00
C3939  C     0.60971   0.44612   0.50000   0.00000  Uiso   1.00
O4040  O     0.49703   0.38778   0.50000   0.00000  Uiso   1.00
C4141  C     0.49888   0.44370   0.50000   0.00000  Uiso   1.00
H4242  H     0.70759   0.49296   0.50000   0.00000  Uiso   1.00
C4343  C     0.60861   0.27543   0.50000   0.00000  Uiso   1.00
C4444  C     0.78098   0.33394   0.50000   0.00000  Uiso   1.00
C4545  C     0.83564   0.38971   0.50000   0.00000  Uiso   1.00
O4646  O     0.88985   0.50239   0.50000   0.00000  Uiso   1.00
C4747  C     0.94411   0.50071   0.50000   0.00000  Uiso   1.00
H4848  H     0.78439   0.29178   0.50000   0.00000  Uiso   1.00
C4949  C     0.66592   0.39078   0.50000   0.00000  Uiso   1.00
C5050  C     0.55201   0.21850   0.50000   0.00000  Uiso   1.00
C5151  C     0.55328   0.16392   0.50000   0.00000  Uiso   1.00
O5252  O     0.61172   0.10970   0.50000   0.00000  Uiso   1.00
C5353  C     0.55587   0.05561   0.50000   0.00000  Uiso   1.00
H5454  H     0.50637   0.21497   0.50000   0.00000  Uiso   1.00
C5555  C     0.27516   0.66653   0.50000   0.00000  Uiso   1.00
C5656  C     0.33367   0.55272   0.50000   0.00000  Uiso   1.00
C5757  C     0.38945   0.55386   0.50000   0.00000  Uiso   1.00
O5858  O     0.50217   0.61226   0.50000   0.00000  Uiso   1.00
C5959  C     0.50037   0.55620   0.50000   0.00000  Uiso   1.00
H6060  H     0.29152   0.50715   0.50000   0.00000  Uiso   1.00
C6161  C     0.39052   0.72457   0.50000   0.00000  Uiso   1.00
C6262  C     0.21819   0.66615   0.50000   0.00000  Uiso   1.00
C6363  C     0.16354   0.61037   0.50000   0.00000  Uiso   1.00
O6464  O     0.10936   0.49769   0.50000   0.00000  Uiso   1.00
C6565  C     0.05525   0.49947   0.50000   0.00000  Uiso   1.00
H6666  H     0.21464   0.70823   0.50000   0.00000  Uiso   1.00
C6767  C     0.33321   0.60924   0.50000   0.00000  Uiso   1.00
C6868  C     0.44709   0.78152   0.50000   0.00000  Uiso   1.00
C6969  C     0.44594   0.83617   0.50000   0.00000  Uiso   1.00
O7070  O     0.38753   0.89041   0.50000   0.00000  Uiso   1.00
C7171  C     0.44352   0.94467   0.50000   0.00000  Uiso   1.00
H7272  H     0.49265   0.78490   0.50000   0.00000  Uiso   1.00
C7373  C     0.55844   0.55873   0.50000   0.00000  Uiso   1.00
C7474  C     0.62083   0.61785   0.50000   0.00000  Uiso   1.00
C7575  C     0.44085   0.00010   0.50000   0.00000  Uiso   1.00
C7676  C     0.38162   0.00323   0.50000   0.00000  Uiso   1.00
C7777  C    -0.00030   0.44133   0.50000   0.00000  Uiso   1.00
C7878  C     0.00293   0.38217   0.50000   0.00000  Uiso   1.00
C7979  C     0.44084   0.44125   0.50000   0.00000  Uiso   1.00
C8080  C     0.38151   0.37892   0.50000   0.00000  Uiso   1.00
C8181  C     0.55848   0.00012   0.50000   0.00000  Uiso   1.00
C8282  C     0.62080   0.00328   0.50000   0.00000  Uiso   1.00
C8383  C    -0.00038   0.55884   0.50000   0.00000  Uiso   1.00
C8484  C     0.00265   0.62114   0.50000   0.00000  Uiso   1.00
O8585  O     0.67141   1.05145   0.50000   0.00000  Uiso   1.00
O8686  O     0.61753   0.94634   0.50000   0.00000  Uiso   1.00
O8787  O     1.05109   1.37973   0.50000   0.00000  Uiso   1.00
O8888  O     0.94604   1.32858   0.50000   0.00000  Uiso   1.00
O8989  O     1.32801   1.38238   0.50000   0.00000  Uiso   1.00
O9090  O     1.37903   1.32834   0.50000   0.00000  Uiso   1.00
O9191  O     1.37928   1.05143   0.50000   0.00000  Uiso   1.00
O9292  O     1.32807   0.94628   0.50000   0.00000  Uiso   1.00
O9393  O     1.05077   0.67177   0.50000   0.00000  Uiso   1.00
O9494  O     0.94571   0.61772   0.50000   0.00000  Uiso   1.00
O9595  O     0.61767   0.67157   0.50000   0.00000  Uiso   1.00
O9696  O     0.67145   0.62035   0.50000   0.00000  Uiso   1.00
H9797  H     0.66158   0.95741   0.50000   0.00000  Uiso   1.00
H9898  H     0.66176   0.70448   0.50000   0.00000  Uiso   1.00
H9999  H     0.95644   0.66168   0.50000   0.00000  Uiso   1.00
H100100 H     1.29487   0.95706   0.50000   0.00000  Uiso   1.00
H101101 H     1.29476   1.33842   0.50000   0.00000  Uiso   1.00
H102102 H     0.95692   1.29545   0.50000   0.00000  Uiso   1.00
loop_
_geom_bond_atom_site_label_1
_geom_bond_atom_site_label_2
_geom_bond_distance
_geom_bond_site_symmetry_2
_ccdc_geom_bond_type
C11    C88     1.401   .     S
C11    C5555   1.433   .     S
C11    C6161   1.415   .     D
C22    C33     1.363   .     D
C22    H66     1.085   .     S
C22    C1313   1.402   .     S
C33    C5757   1.395   .     S
C33    O5858   1.364   .     S
O44    C55     1.361   .     S
O44    C5757   1.364   .     S
C55    C5959   1.403   .     S
C55    C7979   1.403   .     D
C77    C1414   1.401   .     D
C77    C5555   1.414   .     S
C77    C6767   1.433   .     S
C88    C99     1.364   .     D
C88    H1212   1.085   .     S
C99    C6969   1.395   .     S
C99    O7070   1.363   .     S
O1010  C1111   1.362   .     S
O1010  C6969   1.363   .     S
C1111  C7171   1.404   .     S
C1111  C8181   1.403   1_565 D
C1313  C6161   1.433   .     S
C1313  C6767   1.414   .     D
C1414  C1515   1.363   .     S
C1414  H1818   1.086   .     S
C1515  C6363   1.395   .     D
C1515  O6464   1.364   .     S
O1616  C1717   1.359   .     S
O1616  C6363   1.364   .     S
C1717  C6565   1.405   .     D
C1717  C8383   1.404   .     S
C1919  C2626   1.401   .     D
C1919  C3737   1.433   .     S
C1919  C4343   1.415   .     S
C2020  C2121   1.363   .     S
C2020  H2424   1.085   .     S
C2020  C3131   1.402   .     D
C2121  C3939   1.395   .     D
C2121  O4040   1.364   .     S
O2222  C2323   1.358   .     S
O2222  C3939   1.364   .     S
C2323  C4141   1.405   .     D
C2323  C7373   1.404   .     S
C2525  C3232   1.401   .     S
C2525  C3737   1.414   .     D
C2525  C4949   1.433   .     S
C2626  C2727   1.363   .     S
C2626  H3030   1.085   .     S
C2727  C5151   1.395   .     D
C2727  O5252   1.363   .     S
O2828  C2929   1.357   .     S
O2828  C5151   1.363   .     S
C2929  C5353   1.405   .     D
C2929  C7575   1.403   .     S
C3131  C4343   1.433   .     S
C3131  C4949   1.414   .     S
C3232  C3333   1.363   .     D
C3232  H3636   1.085   .     S
C3333  C4545   1.395   .     S
C3333  O4646   1.364   .     S
O3434  C3535   1.361   .     S
O3434  C4545   1.364   .     S
C3535  C4747   1.404   .     S
C3535  C7777   1.403   1_655 D
C3737  C4444   1.402   .     S
C3838  C3939   1.363   .     S
C3838  H4242   1.085   .     S
C3838  C4949   1.401   .     D
O4040  C4141   1.358   .     S
C4141  C7979   1.404   .     S
C4343  C5050   1.401   .     D
C4444  C4545   1.363   .     D
C4444  H4848   1.085   .     S
O4646  C4747   1.361   .     S
C4747  C8383   1.404   1_655 D
C5050  C5151   1.363   .     S
C5050  H5454   1.086   .     S
O5252  C5353   1.358   .     S
C5353  C8181   1.403   .     S
C5555  C6262   1.402   .     D
C5656  C5757   1.363   .     D
C5656  H6060   1.085   .     S
C5656  C6767   1.401   .     S
O5858  C5959   1.362   .     S
C5959  C7373   1.403   .     D
C6161  C6868   1.401   .     S
C6262  C6363   1.363   .     S
C6262  H6666   1.085   .     S
O6464  C6565   1.358   .     S
C6565  C7777   1.404   .     S
C6868  C6969   1.364   .     D
C6868  H7272   1.085   .     S
O7070  C7171   1.361   .     S
C7171  C7575   1.402   1_565 D
C7373  C7474   1.501   .     S
C7474  O9595   1.367   .     S
C7474  O9696   1.220   .     D
C7575  C7676   1.502   .     S
C7575  C7171   1.402   1_545 D
C7676  O9191   1.220   1_445 D
C7676  O9292   1.366   1_445 S
C7777  C7878   1.502   .     S
C7777  C3535   1.403   1_455 D
C7878  O8787   1.220   1_445 D
C7878  O8888   1.366   1_445 S
C7979  C8080   1.503   .     S
C8080  O8989   1.365   1_445 S
C8080  O9090   1.219   1_445 D
C8181  C8282   1.501   .     S
C8181  C1111   1.403   1_545 D
C8282  O8585   1.220   1_545 D
C8282  O8686   1.367   1_545 S
C8383  C8484   1.502   .     S
C8383  C4747   1.404   1_455 D
C8484  O9393   1.220   1_455 D
C8484  O9494   1.365   1_455 S
O8585  C8282   1.220   1_565 D
O8686  H9797   0.980   .     S
O8686  C8282   1.367   1_565 S
O8787  C7878   1.220   1_665 D
O8888  H102102  0.980   .     S
O8888  C7878   1.366   1_665 S
O8989  H101101  0.980   .     S
O8989  C8080   1.365   1_665 S
O9090  C8080   1.219   1_665 D
O9191  C7676   1.220   1_665 D
O9292  H100100  0.980   .     S
O9292  C7676   1.366   1_665 S
O9393  C8484   1.220   1_655 D
O9494  H9999   0.980   .     S
O9494  C8484   1.365   1_655 S
O9595  H9898   0.980   .     S
