data_1097
_audit_creation_date              2023-09-08
_audit_creation_method            'Materials Studio'
_symmetry_space_group_name_H-M    'P1'
_symmetry_Int_Tables_number       1
_symmetry_cell_setting            triclinic
loop_
_symmetry_equiv_pos_as_xyz
  x,y,z
_cell_length_a                    24.6865
_cell_length_b                    24.6865
_cell_length_c                    3.5002
_cell_angle_alpha                 90.0000
_cell_angle_beta                  90.0000
_cell_angle_gamma                 120.0000
loop_
_atom_site_label
_atom_site_type_symbol
_atom_site_fract_x
_atom_site_fract_y
_atom_site_fract_z
_atom_site_U_iso_or_equiv
_atom_site_adp_type
_atom_site_occupancy
C1     C     0.33364   0.72447   0.50000   0.00000  Uiso   1.00
C2     C     0.44712   0.66560   0.50000   0.00000  Uiso   1.00
C3     C     0.44681   0.61013   0.50000   0.00000  Uiso   1.00
C4     C     0.44395   0.49948   0.50000   0.00000  Uiso   1.00
O5     O     0.38675   0.49613   0.50000   0.00000  Uiso   1.00
H6     H     0.49343   0.71165   0.50000   0.00000  Uiso   1.00
C7     C     0.27553   0.60917   0.50000   0.00000  Uiso   1.00
C8     C     0.33440   0.78152   0.50000   0.00000  Uiso   1.00
C9     C     0.38987   0.83668   0.50000   0.00000  Uiso   1.00
C10    C     0.50052   0.94447   0.50000   0.00000  Uiso   1.00
O11    O     0.50387   0.89062   0.50000   0.00000  Uiso   1.00
H12    H     0.28835   0.78178   0.50000   0.00000  Uiso   1.00
C13    C     0.39083   0.66636   0.50000   0.00000  Uiso   1.00
C14    C     0.21848   0.55288   0.50000   0.00000  Uiso   1.00
C15    C     0.16332   0.55319   0.50000   0.00000  Uiso   1.00
C16    C     0.05553   0.55605   0.50000   0.00000  Uiso   1.00
O17    O     0.10938   0.61325   0.50000   0.00000  Uiso   1.00
H18    H     0.21822   0.50657   0.50000   0.00000  Uiso   1.00
C19    C     0.66636   0.27553   0.50000   0.00000  Uiso   1.00
C20    C     0.55288   0.33440   0.50000   0.00000  Uiso   1.00
C21    C     0.55319   0.38987   0.50000   0.00000  Uiso   1.00
C22    C     0.55605   0.50052   0.50000   0.00000  Uiso   1.00
O23    O     0.61325   0.50387   0.50000   0.00000  Uiso   1.00
H24    H     0.50657   0.28835   0.50000   0.00000  Uiso   1.00
C25    C     0.72447   0.39083   0.50000   0.00000  Uiso   1.00
C26    C     0.66560   0.21848   0.50000   0.00000  Uiso   1.00
C27    C     0.61013   0.16332   0.50000   0.00000  Uiso   1.00
C28    C     0.49948   0.05553   0.50000   0.00000  Uiso   1.00
O29    O     0.49613   0.10938   0.50000   0.00000  Uiso   1.00
H30    H     0.71165   0.21822   0.50000   0.00000  Uiso   1.00
C31    C     0.60917   0.33364   0.50000   0.00000  Uiso   1.00
C32    C     0.78152   0.44712   0.50000   0.00000  Uiso   1.00
C33    C     0.83668   0.44681   0.50000   0.00000  Uiso   1.00
C34    C     0.94447   0.44395   0.50000   0.00000  Uiso   1.00
O35    O     0.89062   0.38675   0.50000   0.00000  Uiso   1.00
H36    H     0.78178   0.49343   0.50000   0.00000  Uiso   1.00
C37    C     0.72447   0.33364   0.50000   0.00000  Uiso   1.00
C38    C     0.66560   0.44712   0.50000   0.00000  Uiso   1.00
C39    C     0.61013   0.44681   0.50000   0.00000  Uiso   1.00
C40    C     0.49948   0.44395   0.50000   0.00000  Uiso   1.00
O41    O     0.49613   0.38675   0.50000   0.00000  Uiso   1.00
H42    H     0.71165   0.49343   0.50000   0.00000  Uiso   1.00
C43    C     0.60917   0.27553   0.50000   0.00000  Uiso   1.00
C44    C     0.78152   0.33440   0.50000   0.00000  Uiso   1.00
C45    C     0.83668   0.38987   0.50000   0.00000  Uiso   1.00
C46    C     0.94447   0.50052   0.50000   0.00000  Uiso   1.00
O47    O     0.89062   0.50387   0.50000   0.00000  Uiso   1.00
H48    H     0.78178   0.28835   0.50000   0.00000  Uiso   1.00
C49    C     0.66636   0.39083   0.50000   0.00000  Uiso   1.00
C50    C     0.55288   0.21848   0.50000   0.00000  Uiso   1.00
C51    C     0.55319   0.16332   0.50000   0.00000  Uiso   1.00
C52    C     0.55605   0.05553   0.50000   0.00000  Uiso   1.00
O53    O     0.61325   0.10938   0.50000   0.00000  Uiso   1.00
H54    H     0.50657   0.21822   0.50000   0.00000  Uiso   1.00
C55    C     0.27553   0.66636   0.50000   0.00000  Uiso   1.00
C56    C     0.33440   0.55288   0.50000   0.00000  Uiso   1.00
C57    C     0.38987   0.55319   0.50000   0.00000  Uiso   1.00
C58    C     0.50052   0.55605   0.50000   0.00000  Uiso   1.00
O59    O     0.50387   0.61325   0.50000   0.00000  Uiso   1.00
H60    H     0.28835   0.50657   0.50000   0.00000  Uiso   1.00
C61    C     0.39083   0.72447   0.50000   0.00000  Uiso   1.00
C62    C     0.21848   0.66560   0.50000   0.00000  Uiso   1.00
C63    C     0.16332   0.61013   0.50000   0.00000  Uiso   1.00
C64    C     0.05553   0.49948   0.50000   0.00000  Uiso   1.00
O65    O     0.10938   0.49613   0.50000   0.00000  Uiso   1.00
H66    H     0.21822   0.71165   0.50000   0.00000  Uiso   1.00
C67    C     0.33364   0.60917   0.50000   0.00000  Uiso   1.00
C68    C     0.44712   0.78152   0.50000   0.00000  Uiso   1.00
C69    C     0.44681   0.83668   0.50000   0.00000  Uiso   1.00
C70    C     0.44395   0.94447   0.50000   0.00000  Uiso   1.00
O71    O     0.38675   0.89062   0.50000   0.00000  Uiso   1.00
H72    H     0.49343   0.78178   0.50000   0.00000  Uiso   1.00
C73    C     0.55669   0.55669   0.50000   0.00000  Uiso   1.00
H74    H     0.60313   0.60260   0.50000   0.00000  Uiso   1.00
C75    C     0.44331   0.00000   0.50000   0.00000  Uiso   1.00
H76    H     0.39740   0.00053   0.50000   0.00000  Uiso   1.00
C77    C     0.00000   0.44331   0.50000   0.00000  Uiso   1.00
H78    H    -0.00053   0.39687   0.50000   0.00000  Uiso   1.00
C79    C     0.44331   0.44331   0.50000   0.00000  Uiso   1.00
H80    H     0.39687   0.39740   0.50000   0.00000  Uiso   1.00
C81    C     0.55669   0.00000   0.50000   0.00000  Uiso   1.00
H82    H     0.60260  -0.00053   0.50000   0.00000  Uiso   1.00
C83    C     0.00000   0.55669   0.50000   0.00000  Uiso   1.00
H84    H     0.00053   0.60313   0.50000   0.00000  Uiso   1.00
loop_
_geom_bond_atom_site_label_1
_geom_bond_atom_site_label_2
_geom_bond_distance
_geom_bond_site_symmetry_2
_ccdc_geom_bond_type
C1     C61     1.412   .     D
C1     C55     1.435   .     S
C1     C8      1.399   .     S
C2     C3      1.366   .     D
C2     H6      1.140   .     S
C2     C13     1.399   .     S
C3     O59     1.372   .     S
C3     C57     1.406   .     S
C4     O5      1.373   .     S
C4     C79     1.379   .     D
C4     C58     1.397   .     S
O5     C57     1.372   .     S
C7     C55     1.412   .     D
C7     C67     1.435   .     S
C7     C14     1.399   .     S
C8     C9      1.366   .     D
C8     H12     1.140   .     S
C9     O71     1.372   .     S
C9     C69     1.406   .     S
C10    O11     1.373   .     S
C10    C70     1.397   .     S
C10    C81     1.379   1_565 D
O11    C69     1.372   .     S
C13    C67     1.412   .     D
C13    C61     1.435   .     S
C14    C15     1.366   .     D
C14    H18     1.140   .     S
C15    O65     1.372   .     S
C15    C63     1.406   .     S
C16    O17     1.373   .     S
C16    C83     1.379   .     D
C16    C64     1.397   .     S
O17    C63     1.372   .     S
C19    C43     1.412   .     D
C19    C37     1.435   .     S
C19    C26     1.399   .     S
C20    C21     1.366   .     D
C20    H24     1.140   .     S
C20    C31     1.399   .     S
C21    O41     1.372   .     S
C21    C39     1.406   .     S
C22    O23     1.373   .     S
C22    C73     1.379   .     S
C22    C40     1.397   .     D
O23    C39     1.372   .     S
C25    C37     1.412   .     S
C25    C49     1.435   .     S
C25    C32     1.399   .     D
C26    C27     1.366   .     D
C26    H30     1.140   .     S
C27    O53     1.372   .     S
C27    C51     1.406   .     S
C28    O29     1.373   .     S
C28    C75     1.379   .     S
C28    C52     1.397   .     D
O29    C51     1.372   .     S
C31    C49     1.412   .     D
C31    C43     1.435   .     S
C32    C33     1.366   .     S
C32    H36     1.140   .     S
C33    O47     1.372   .     S
C33    C45     1.406   .     D
C34    O35     1.373   .     S
C34    C46     1.397   .     D
C34    C77     1.379   1_655 S
O35    C45     1.372   .     S
C37    C44     1.399   .     D
C38    C39     1.366   .     D
C38    H42     1.140   .     S
C38    C49     1.399   .     S
C40    O41     1.373   .     S
C40    C79     1.379   .     S
C43    C50     1.399   .     S
C44    C45     1.366   .     S
C44    H48     1.140   .     S
C46    O47     1.373   .     S
C46    C83     1.379   1_655 S
C50    C51     1.366   .     D
C50    H54     1.140   .     S
C52    O53     1.373   .     S
C52    C81     1.379   .     S
C55    C62     1.399   .     S
C56    C57     1.366   .     D
C56    H60     1.140   .     S
C56    C67     1.399   .     S
C58    O59     1.373   .     S
C58    C73     1.379   .     D
C61    C68     1.399   .     S
C62    C63     1.366   .     D
C62    H66     1.140   .     S
C64    O65     1.373   .     S
C64    C77     1.379   .     D
C68    C69     1.366   .     D
C68    H72     1.140   .     S
C70    O71     1.373   .     S
C70    C75     1.379   1_565 D
C73    H74     1.140   .     S
C75    H76     1.140   .     S
C75    C70     1.379   1_545 D
C77    H78     1.140   .     S
C77    C34     1.379   1_455 S
C79    H80     1.140   .     S
C81    H82     1.140   .     S
C81    C10     1.379   1_545 D
C83    H84     1.140   .     S
C83    C46     1.379   1_455 S
