data_1098
_audit_creation_date              2023-09-08
_audit_creation_method            'Materials Studio'
_symmetry_space_group_name_H-M    'P1'
_symmetry_Int_Tables_number       1
_symmetry_cell_setting            triclinic
loop_
_symmetry_equiv_pos_as_xyz
  x,y,z
_cell_length_a                    34.2600
_cell_length_b                    37.3500
_cell_length_c                    3.7400
_cell_angle_alpha                 108.8900
_cell_angle_beta                  83.4700
_cell_angle_gamma                 126.2800
loop_
_atom_site_label
_atom_site_type_symbol
_atom_site_fract_x
_atom_site_fract_y
_atom_site_fract_z
_atom_site_U_iso_or_equiv
_atom_site_adp_type
_atom_site_occupancy
N11    N     0.52540   0.00681   0.44799   0.00000  Uiso   1.00
N22    N     0.18196   0.60709   0.42787   0.00000  Uiso   1.00
C33    C     0.21421   0.59405   0.29014   0.00000  Uiso   1.00
C44    C     0.26075   0.62481   0.23446   0.00000  Uiso   1.00
C55    C     0.29311   0.61014   0.15367   0.00000  Uiso   1.00
C66    C     0.34527   0.64498   0.29820   0.00000  Uiso   1.00
C77    C     0.36600   0.69513   0.38648   0.00000  Uiso   1.00
C88    C     0.33581   0.70900   0.30944   0.00000  Uiso   1.00
C99    C     0.28218   0.67334   0.24993   0.00000  Uiso   1.00
O1010  O     0.25610   0.68346   0.19009   0.00000  Uiso   1.00
O1111  O     0.27681   0.56995  -0.04115   0.00000  Uiso   1.00
C1212  C     0.37361   0.63330   0.36678   0.00000  Uiso   1.00
O1313  O     0.40730   0.72493   0.54270   0.00000  Uiso   1.00
N1414  N     0.35492   0.58643   0.34534   0.00000  Uiso   1.00
C1515  C     0.38470   0.57177   0.37151   0.00000  Uiso   1.00
C1616  C     0.36251   0.52784   0.41475   0.00000  Uiso   1.00
C1717  C     0.38996   0.51192   0.43608   0.00000  Uiso   1.00
C1818  C     0.44051   0.53990   0.41775   0.00000  Uiso   1.00
C1919  C     0.46277   0.58378   0.37017   0.00000  Uiso   1.00
C2020  C     0.43512   0.59938   0.34376   0.00000  Uiso   1.00
C2121  C     0.46951   0.52322   0.45127   0.00000  Uiso   1.00
C2222  C     0.54405   0.05440   0.50759   0.00000  Uiso   1.00
C2323  C     0.58937   0.08358   0.38980   0.00000  Uiso   1.00
C2424  C     0.60898   0.13043   0.44816   0.00000  Uiso   1.00
C2525  C     0.58376   0.14921   0.63188   0.00000  Uiso   1.00
C2626  C     0.53753   0.11940   0.74638   0.00000  Uiso   1.00
C2727  C     0.51806   0.07237   0.68397   0.00000  Uiso   1.00
N2828  N     0.60393   0.19741   0.68893   0.00000  Uiso   1.00
C2929  C     0.65527   0.23311   0.70424   0.00000  Uiso   1.00
C3030  C     0.67415   0.27628   0.69049   0.00000  Uiso   1.00
C3131  C     0.72778   0.31193   0.74979   0.00000  Uiso   1.00
C3232  C     0.74921   0.36046   0.76535   0.00000  Uiso   1.00
C3333  C     0.71685   0.37514   0.84637   0.00000  Uiso   1.00
C3434  C     0.66469   0.34031   0.70189   0.00000  Uiso   1.00
C3535  C     0.64395   0.29015   0.61355   0.00000  Uiso   1.00
C3636  C     0.63636   0.35199   0.63332   0.00000  Uiso   1.00
O3737  O     0.60265   0.26036   0.45736   0.00000  Uiso   1.00
O3838  O     0.73316   0.41533   1.04130   0.00000  Uiso   1.00
O3939  O     0.75386   0.30181   0.80931   0.00000  Uiso   1.00
N4040  N     0.65505   0.39887   0.65484   0.00000  Uiso   1.00
C4141  C     0.62528   0.41354   0.62881   0.00000  Uiso   1.00
C4242  C     0.64748   0.45747   0.58556   0.00000  Uiso   1.00
C4343  C     0.62002   0.47340   0.56428   0.00000  Uiso   1.00
C4444  C     0.56948   0.44542   0.58264   0.00000  Uiso   1.00
C4545  C     0.54721   0.40154   0.63021   0.00000  Uiso   1.00
C4646  C     0.57486   0.38594   0.65661   0.00000  Uiso   1.00
C4747  C     0.54048   0.46210   0.54909   0.00000  Uiso   1.00
N4848  N     0.44762   0.47869   0.44892   0.00000  Uiso   1.00
C4949  C     0.48232   0.47375   0.48523   0.00000  Uiso   1.00
C5050  C     0.52767   0.51157   0.51502   0.00000  Uiso   1.00
S5151  S     0.53291   0.55906   0.50294   0.00000  Uiso   1.00
S5252  S     0.47709   0.42626   0.49740   0.00000  Uiso   1.00
N5353  N     0.56237   0.50663   0.55141   0.00000  Uiso   1.00
C5454  C     0.03132   0.50994   0.48918   0.00000  Uiso   1.00
N5555  N     0.05657   0.49585   0.25493   0.00000  Uiso   1.00
C5656  C     0.10490   0.52615   0.22761   0.00000  Uiso   1.00
C5757  C     0.13090   0.57379   0.44737   0.00000  Uiso   1.00
C5858  C     0.10552   0.58912   0.68479   0.00000  Uiso   1.00
C5959  C     0.05586   0.55740   0.70714   0.00000  Uiso   1.00
N6060  N     0.48455   0.97848   0.55225   0.00000  Uiso   1.00
C6161  C     0.46591   0.93089   0.49264   0.00000  Uiso   1.00
C6262  C     0.42058   0.90171   0.61048   0.00000  Uiso   1.00
C6363  C     0.40098   0.85486   0.55206   0.00000  Uiso   1.00
C6464  C     0.42619   0.83608   0.36825   0.00000  Uiso   1.00
C6565  C     0.47242   0.86589   0.25372   0.00000  Uiso   1.00
C6666  C     0.49189   0.91292   0.31613   0.00000  Uiso   1.00
N6767  N     0.40603   0.78788   0.31122   0.00000  Uiso   1.00
C6868  C     0.35469   0.75218   0.29582   0.00000  Uiso   1.00
C6969  C     0.79574   0.39122   0.70950   0.00000  Uiso   1.00
N7070  N     0.82799   0.37818   0.57158   0.00000  Uiso   1.00
C7171  C     0.87905   0.41148   0.55211   0.00000  Uiso   1.00
C7272  C     0.90443   0.39615   0.31471   0.00000  Uiso   1.00
C7373  C     0.95409   0.42786   0.29241   0.00000  Uiso   1.00
C7474  C     0.97863   0.47533   0.51038   0.00000  Uiso   1.00
N7575  N     0.95338   0.48942   0.74461   0.00000  Uiso   1.00
C7676  C     0.90505   0.45912   0.77190   0.00000  Uiso   1.00
C7777  C     0.50017   0.84886   0.06491   0.00000  Uiso   1.00
N7878  N     0.52263   0.83544  -0.08683   0.00000  Uiso   1.00
C7979  C     0.50977   0.13643   0.93510   0.00000  Uiso   1.00
N8080  N     0.48732   0.14985   1.08677   0.00000  Uiso   1.00
H8181  H     0.19726   0.64262   0.56671   0.00000  Uiso   1.00
H8282  H     0.20216   0.55893   0.26103   0.00000  Uiso   1.00
H8383  H     0.41154   0.66134   0.46938   0.00000  Uiso   1.00
H8484  H     0.31745   0.56242   0.35010   0.00000  Uiso   1.00
H8585  H     0.32372   0.50601   0.43543   0.00000  Uiso   1.00
H8686  H     0.37181   0.47795   0.47292   0.00000  Uiso   1.00
H8787  H     0.50151   0.60574   0.34617   0.00000  Uiso   1.00
H8888  H     0.45335   0.63249   0.29358   0.00000  Uiso   1.00
H8989  H     0.60911   0.06955   0.24768   0.00000  Uiso   1.00
H9090  H     0.64335   0.15155   0.34099   0.00000  Uiso   1.00
H9191  H     0.48290   0.04976   0.77608   0.00000  Uiso   1.00
H9292  H     0.58107   0.20801   0.76710   0.00000  Uiso   1.00
H9393  H     0.68027   0.22585   0.75141   0.00000  Uiso   1.00
H9494  H     0.59843   0.32396   0.53075   0.00000  Uiso   1.00
H9595  H     0.69253   0.42287   0.65004   0.00000  Uiso   1.00
H9696  H     0.68627   0.47929   0.56482   0.00000  Uiso   1.00
H9797  H     0.63818   0.50736   0.52742   0.00000  Uiso   1.00
H9898  H     0.50847   0.37958   0.65421   0.00000  Uiso   1.00
H9999  H     0.55663   0.35283   0.70676   0.00000  Uiso   1.00
H100100 H     0.12256   0.51310   0.02958   0.00000  Uiso   1.00
H101101 H     0.12450   0.62560   0.85677   0.00000  Uiso   1.00
H102102 H     0.03683   0.56965   0.89578   0.00000  Uiso   1.00
H103103 H     0.40085   0.91574   0.75270   0.00000  Uiso   1.00
H104104 H     0.36661   0.83374   0.65929   0.00000  Uiso   1.00
H105105 H     0.52704   0.93553   0.22395   0.00000  Uiso   1.00
H106106 H     0.42888   0.77728   0.23292   0.00000  Uiso   1.00
H107107 H     0.32969   0.75944   0.24858   0.00000  Uiso   1.00
H108108 H     0.80779   0.42635   0.73870   0.00000  Uiso   1.00
H109109 H     0.81268   0.34265   0.43267   0.00000  Uiso   1.00
H110110 H     0.88545   0.35967   0.14273   0.00000  Uiso   1.00
H111111 H     0.97313   0.41562   0.10384   0.00000  Uiso   1.00
H112112 H     0.88739   0.47217   0.96991   0.00000  Uiso   1.00
loop_
_geom_bond_atom_site_label_1
_geom_bond_atom_site_label_2
_geom_bond_distance
_geom_bond_site_symmetry_2
_ccdc_geom_bond_type
N11    C2222   1.431   .     S
N11    N6060   1.273   1_545 D
N22    C33     1.438   .     S
N22    C5757   1.438   .     S
N22    H8181   1.048   .     S
C33    C44     1.348   .     D
C33    H8282   1.086   .     S
C44    C55     1.468   .     S
C44    C99     1.481   .     S
C55    C66     1.480   .     S
C55    O1111   1.220   .     D
C66    C77     1.483   .     S
C66    C1212   1.352   .     D
C77    C88     1.490   .     S
C77    O1313   1.219   .     D
C88    C99     1.485   .     S
C88    C6868   1.354   .     D
C99    O1010   1.221   .     D
C1212  N1414   1.441   .     S
C1212  H8383   1.084   .     S
N1414  C1515   1.438   .     S
N1414  H8484   1.047   .     S
C1515  C1616   1.401   .     D
C1515  C2020   1.407   .     S
C1616  C1717   1.398   .     S
C1616  H8585   1.083   .     S
C1717  C1818   1.405   .     D
C1717  H8686   1.084   .     S
C1818  C1919   1.406   .     S
C1818  C2121   1.484   .     S
C1919  C2020   1.399   .     D
C1919  H8787   1.084   .     S
C2020  H8888   1.079   .     S
C2121  N4848   1.358   .     D
C2121  S5151   1.742   .     S
C2222  C2323   1.395   .     S
C2222  C2727   1.402   .     D
C2323  C2424   1.398   .     D
C2323  H8989   1.082   .     S
C2424  C2525   1.407   .     S
C2424  H9090   1.081   .     S
C2525  C2626   1.414   .     D
C2525  N2828   1.441   .     S
C2626  C2727   1.403   .     S
C2626  C7979   1.442   .     S
C2727  H9191   1.083   .     S
N2828  C2929   1.440   .     S
N2828  H9292   1.047   .     S
C2929  C3030   1.354   .     D
C2929  H9393   1.086   .     S
C3030  C3131   1.485   .     S
C3030  C3535   1.490   .     S
C3131  C3232   1.481   .     S
C3131  O3939   1.221   .     D
C3232  C3333   1.469   .     S
C3232  C6969   1.348   .     D
C3333  C3434   1.480   .     S
C3333  O3838   1.220   .     D
C3434  C3535   1.484   .     S
C3434  C3636   1.352   .     D
C3535  O3737   1.219   .     D
C3636  N4040   1.441   .     S
C3636  H9494   1.084   .     S
N4040  C4141   1.438   .     S
N4040  H9595   1.047   .     S
C4141  C4242   1.401   .     D
C4141  C4646   1.407   .     S
C4242  C4343   1.398   .     S
C4242  H9696   1.083   .     S
C4343  C4444   1.405   .     D
C4343  H9797   1.084   .     S
C4444  C4545   1.406   .     S
C4444  C4747   1.484   .     S
C4545  C4646   1.399   .     D
C4545  H9898   1.084   .     S
C4646  H9999   1.079   .     S
C4747  S5252   1.742   .     S
C4747  N5353   1.358   .     D
N4848  C4949   1.334   .     S
C4949  C5050   1.327   .     D
C4949  S5252   1.690   .     S
C5050  S5151   1.689   .     S
C5050  N5353   1.334   .     S
C5454  N5555   1.364   .     D
C5454  C5959   1.404   .     S
C5454  C7474   1.486   1_455 S
N5555  C5656   1.361   .     S
C5656  C5757   1.407   .     D
C5656  H100100  1.080   .     S
C5757  C5858   1.399   .     S
C5858  C5959   1.397   .     D
C5858  H101101  1.083   .     S
C5959  H102102  1.082   .     S
N6060  C6161   1.432   .     S
N6060  N11     1.273   1_565 D
C6161  C6262   1.395   .     D
C6161  C6666   1.402   .     S
C6262  C6363   1.399   .     S
C6262  H103103  1.082   .     S
C6363  C6464   1.407   .     D
C6363  H104104  1.081   .     S
C6464  C6565   1.414   .     S
C6464  N6767   1.441   .     S
C6565  C6666   1.403   .     D
C6565  C7777   1.442   .     S
C6666  H105105  1.083   .     S
N6767  C6868   1.440   .     S
N6767  H106106  1.046   .     S
C6868  H107107  1.086   .     S
C6969  N7070   1.438   .     S
C6969  H108108  1.086   .     S
N7070  C7171   1.438   .     S
N7070  H109109  1.048   .     S
C7171  C7272   1.399   .     D
C7171  C7676   1.407   .     S
C7272  C7373   1.397   .     S
C7272  H110110  1.083   .     S
C7373  C7474   1.404   .     D
C7373  H111111  1.082   .     S
C7474  N7575   1.364   .     S
C7474  C5454   1.486   1_655 S
N7575  C7676   1.361   .     D
C7676  H112112  1.080   .     S
C7777  N7878   1.157   .     T
C7979  N8080   1.157   .     T
