data_1099
_audit_creation_date              2023-09-08
_audit_creation_method            'Materials Studio'
_symmetry_space_group_name_H-M    'P1'
_symmetry_Int_Tables_number       1
_symmetry_cell_setting            triclinic
loop_
_symmetry_equiv_pos_as_xyz
  x,y,z
_cell_length_a                    31.6700
_cell_length_b                    31.7000
_cell_length_c                    3.6400
_cell_angle_alpha                 99.6400
_cell_angle_beta                  78.3500
_cell_angle_gamma                 123.4100
loop_
_atom_site_label
_atom_site_type_symbol
_atom_site_fract_x
_atom_site_fract_y
_atom_site_fract_z
_atom_site_U_iso_or_equiv
_atom_site_adp_type
_atom_site_occupancy
C11    C     0.51751   0.40409   0.49103   0.00000  Uiso   1.00
C22    C     0.55090   0.38870   0.50358   0.00000  Uiso   1.00
C33    C     0.59989   0.42369   0.60757   0.00000  Uiso   1.00
C44    C     0.61486   0.47484   0.69510   0.00000  Uiso   1.00
C55    C     0.58111   0.48992   0.68030   0.00000  Uiso   1.00
C66    C     0.53238   0.45460   0.57742   0.00000  Uiso   1.00
N77    N     0.49780   0.46929   0.54939   0.00000  Uiso   1.00
N88    N     0.50990   0.51515   0.60564   0.00000  Uiso   1.00
C99    C     0.47538   0.52987   0.57660   0.00000  Uiso   1.00
C1010  C     0.49033   0.58041   0.66177   0.00000  Uiso   1.00
C1111  C     0.45715   0.59592   0.64516   0.00000  Uiso   1.00
C1212  C     0.40833   0.56104   0.53773   0.00000  Uiso   1.00
C1313  C     0.39320   0.50979   0.45329   0.00000  Uiso   1.00
C1414  C     0.42673   0.49460   0.47227   0.00000  Uiso   1.00
N1515  N     0.37411   0.57709   0.52204   0.00000  Uiso   1.00
N1616  N     0.63455   0.40787   0.61402   0.00000  Uiso   1.00
C1717  C     0.34361   0.47218   0.34401   0.00000  Uiso   1.00
C1818  C     0.39104   0.62909   0.49592   0.00000  Uiso   1.00
C1919  C     0.61831   0.35585   0.62659   0.00000  Uiso   1.00
C2020  C     0.35976   0.64678   0.57876   0.00000  Uiso   1.00
C2121  C     0.64973   0.33853   0.51182   0.00000  Uiso   1.00
N2222  N     0.30387   0.44196   0.25551   0.00000  Uiso   1.00
C2323  C     0.66458   0.51248   0.80216   0.00000  Uiso   1.00
N2424  N     0.70441   0.54276   0.88886   0.00000  Uiso   1.00
C2525  C     0.38009   0.69978   0.50405   0.00000  Uiso   1.00
C2626  C     0.35042   0.72363   0.66549   0.00000  Uiso   1.00
C2727  C     0.29479   0.68940   0.77212   0.00000  Uiso   1.00
C2828  C     0.27158   0.63404   0.72326   0.00000  Uiso   1.00
C2929  C     0.30514   0.61602   0.73759   0.00000  Uiso   1.00
C3030  C     0.63111   0.28569   0.57514   0.00000  Uiso   1.00
C3131  C     0.66455   0.26572   0.44194   0.00000  Uiso   1.00
C3232  C     0.71995   0.30288   0.39902   0.00000  Uiso   1.00
C3333  C     0.74002   0.35497   0.30142   0.00000  Uiso   1.00
C3434  C     0.70275   0.36997   0.32094   0.00000  Uiso   1.00
O3535  O     0.26907   0.70684   0.92582   0.00000  Uiso   1.00
C3636  C     0.22300   0.60029   0.66044   0.00000  Uiso   1.00
C3737  C     0.37179   0.77420   0.71829   0.00000  Uiso   1.00
O3838  O     0.41996   0.72263   0.29378   0.00000  Uiso   1.00
O3939  O     0.28783   0.57719   0.89063   0.00000  Uiso   1.00
O4040  O     0.58945   0.25978   0.75789   0.00000  Uiso   1.00
C4141  C     0.64689   0.21606   0.36731   0.00000  Uiso   1.00
O4242  O     0.71545   0.40711   0.16279   0.00000  Uiso   1.00
C4343  C     0.78992   0.38876   0.19558   0.00000  Uiso   1.00
O4444  O     0.74827   0.29058   0.45731   0.00000  Uiso   1.00
N4545  N     0.42605   0.80992   0.66332   0.00000  Uiso   1.00
N4646  N     0.82821   0.37630   0.13018   0.00000  Uiso   1.00
N4747  N     0.59353   0.17809   0.36239   0.00000  Uiso   1.00
N4848  N     0.18998   0.61472   0.58168   0.00000  Uiso   1.00
C4949  C     0.13794   0.57901   0.51758   0.00000  Uiso   1.00
C5050  C     0.44911   0.86280   0.61612   0.00000  Uiso   1.00
C5151  C     0.50124   0.89686   0.64270   0.00000  Uiso   1.00
N5252  N     0.52371   0.94697   0.59786   0.00000  Uiso   1.00
C5353  C     0.49719   0.96627   0.52520   0.00000  Uiso   1.00
C5454  C     0.44502   0.93336   0.49368   0.00000  Uiso   1.00
C5555  C     0.42117   0.88173   0.53685   0.00000  Uiso   1.00
C5656  C     0.10289   0.59424   0.59458   0.00000  Uiso   1.00
N5757  N     0.05369   0.56132   0.52870   0.00000  Uiso   1.00
C5858  C     0.03643   0.51283   0.38369   0.00000  Uiso   1.00
C5959  C     0.07049   0.49625   0.29981   0.00000  Uiso   1.00
C6060  C     0.12119   0.52938   0.36580   0.00000  Uiso   1.00
C6161  C     0.88043   0.41204   0.19136   0.00000  Uiso   1.00
C6262  C     0.57107   0.12506   0.40016   0.00000  Uiso   1.00
C6363  C     0.91663   0.39838   0.07978   0.00000  Uiso   1.00
N6464  N     0.96591   0.43128   0.14419   0.00000  Uiso   1.00
C6565  C     0.98235   0.47846   0.31611   0.00000  Uiso   1.00
C6666  C     0.94733   0.49365   0.43061   0.00000  Uiso   1.00
C6767  C     0.89643   0.46033   0.37095   0.00000  Uiso   1.00
C6868  C     0.51927   0.09068   0.36332   0.00000  Uiso   1.00
N6969  N     0.49701   0.04051   0.40377   0.00000  Uiso   1.00
C7070  C     0.52346   0.02133   0.47981   0.00000  Uiso   1.00
C7171  C     0.57540   0.05443   0.51818   0.00000  Uiso   1.00
C7272  C     0.59902   0.10619   0.48085   0.00000  Uiso   1.00
H7373  H     0.48016   0.37690   0.40664   0.00000  Uiso   1.00
H7474  H     0.53868   0.34961   0.42271   0.00000  Uiso   1.00
H7575  H     0.59263   0.52911   0.74850   0.00000  Uiso   1.00
H7676  H     0.52759   0.60755   0.74759   0.00000  Uiso   1.00
H7777  H     0.46946   0.63504   0.72505   0.00000  Uiso   1.00
H7878  H     0.41515   0.45536   0.40534   0.00000  Uiso   1.00
H7979  H     0.33576   0.54953   0.49849   0.00000  Uiso   1.00
H8080  H     0.67302   0.43538   0.63501   0.00000  Uiso   1.00
H8181  H     0.43072   0.65521   0.39105   0.00000  Uiso   1.00
H8282  H     0.57949   0.32974   0.74944   0.00000  Uiso   1.00
H8383  H     0.20958   0.56044   0.64898   0.00000  Uiso   1.00
H8484  H     0.34698   0.78835   0.82633   0.00000  Uiso   1.00
H8585  H     0.67457   0.20505   0.28290   0.00000  Uiso   1.00
H8686  H     0.80147   0.42673   0.14504   0.00000  Uiso   1.00
H8787  H     0.44987   0.79751   0.68746   0.00000  Uiso   1.00
H8888  H     0.81774   0.33974   0.01531   0.00000  Uiso   1.00
H8989  H     0.56985   0.18958   0.31474   0.00000  Uiso   1.00
H9090  H     0.20414   0.65301   0.56199   0.00000  Uiso   1.00
H9191  H     0.52386   0.88346   0.70239   0.00000  Uiso   1.00
H9292  H     0.42310   0.94747   0.43155   0.00000  Uiso   1.00
H9393  H     0.38137   0.85685   0.50017   0.00000  Uiso   1.00
H9494  H     0.11481   0.63234   0.71033   0.00000  Uiso   1.00
H9595  H     0.05797   0.45811   0.18143   0.00000  Uiso   1.00
H9696  H     0.14726   0.51650   0.28844   0.00000  Uiso   1.00
H9797  H     0.90546   0.36140  -0.05835   0.00000  Uiso   1.00
H9898  H     0.95917   0.53069   0.57099   0.00000  Uiso   1.00
H9999  H     0.86976   0.47218   0.47157   0.00000  Uiso   1.00
H100100 H     0.49663   0.10397   0.30180   0.00000  Uiso   1.00
H101101 H     0.59724   0.04040   0.58299   0.00000  Uiso   1.00
H102102 H     0.63857   0.13106   0.52341   0.00000  Uiso   1.00
loop_
_geom_bond_atom_site_label_1
_geom_bond_atom_site_label_2
_geom_bond_distance
_geom_bond_site_symmetry_2
_ccdc_geom_bond_type
C11    C22     1.398   .     S
C11    C66     1.395   .     D
C11    H7373   1.082   .     S
C22    C33     1.408   .     D
C22    H7474   1.081   .     S
C33    C44     1.413   .     S
C33    N1616   1.441   .     S
C44    C55     1.403   .     D
C44    C2323   1.442   .     S
C55    C66     1.402   .     S
C55    H7575   1.083   .     S
C66    N77     1.432   .     S
N77    N88     1.273   .     D
N88    C99     1.431   .     S
C99    C1010   1.395   .     D
C99    C1414   1.402   .     S
C1010  C1111   1.398   .     S
C1010  H7676   1.082   .     S
C1111  C1212   1.408   .     D
C1111  H7777   1.080   .     S
C1212  C1313   1.414   .     S
C1212  N1515   1.442   .     S
C1313  C1414   1.403   .     D
C1313  C1717   1.441   .     S
C1414  H7878   1.083   .     S
N1515  C1818   1.440   .     S
N1515  H7979   1.046   .     S
N1616  C1919   1.438   .     S
N1616  H8080   1.047   .     S
C1717  N2222   1.157   .     T
C1818  C2020   1.350   .     D
C1818  H8181   1.085   .     S
C1919  C2121   1.350   .     D
C1919  H8282   1.085   .     S
C2020  C2525   1.484   .     S
C2020  C2929   1.485   .     S
C2121  C3030   1.481   .     S
C2121  C3434   1.488   .     S
C2323  N2424   1.157   .     T
C2525  C2626   1.487   .     S
C2525  O3838   1.222   .     D
C2626  C2727   1.480   .     S
C2626  C3737   1.349   .     D
C2727  C2828   1.476   .     S
C2727  O3535   1.221   .     D
C2828  C2929   1.470   .     S
C2828  C3636   1.346   .     D
C2929  O3939   1.220   .     D
C3030  C3131   1.478   .     S
C3030  O4040   1.222   .     D
C3131  C3232   1.471   .     S
C3131  C4141   1.347   .     D
C3232  C3333   1.485   .     S
C3232  O4444   1.221   .     D
C3333  C3434   1.482   .     S
C3333  C4343   1.350   .     D
C3434  O4242   1.221   .     D
C3636  N4848   1.441   .     S
C3636  H8383   1.085   .     S
C3737  N4545   1.439   .     S
C3737  H8484   1.085   .     S
C4141  N4747   1.439   .     S
C4141  H8585   1.085   .     S
C4343  N4646   1.436   .     S
C4343  H8686   1.086   .     S
N4545  C5050   1.439   .     S
N4545  H8787   1.047   .     S
N4646  C6161   1.438   .     S
N4646  H8888   1.048   .     S
N4747  C6262   1.439   .     S
N4747  H8989   1.049   .     S
N4848  C4949   1.437   .     S
N4848  H9090   1.047   .     S
C4949  C5656   1.401   .     D
C4949  C6060   1.404   .     S
C5050  C5151   1.403   .     D
C5050  C5555   1.404   .     S
C5151  N5252   1.361   .     S
C5151  H9191   1.082   .     S
N5252  C5353   1.364   .     D
C5353  C5454   1.403   .     S
C5353  C7070   1.486   1_565 S
C5454  C5555   1.397   .     D
C5454  H9292   1.083   .     S
C5555  H9393   1.080   .     S
C5656  N5757   1.360   .     S
C5656  H9494   1.082   .     S
N5757  C5858   1.364   .     D
C5858  C5959   1.404   .     S
C5858  C6565   1.485   1_455 S
C5959  C6060   1.398   .     D
C5959  H9595   1.082   .     S
C6060  H9696   1.080   .     S
C6161  C6363   1.402   .     D
C6161  C6767   1.404   .     S
C6262  C6868   1.403   .     S
C6262  C7272   1.405   .     D
C6363  N6464   1.361   .     S
C6363  H9797   1.082   .     S
N6464  C6565   1.364   .     D
C6565  C6666   1.404   .     S
C6565  C5858   1.485   1_655 S
C6666  C6767   1.397   .     D
C6666  H9898   1.083   .     S
C6767  H9999   1.080   .     S
C6868  N6969   1.360   .     D
C6868  H100100  1.082   .     S
N6969  C7070   1.363   .     S
C7070  C7171   1.403   .     D
C7070  C5353   1.486   1_545 S
C7171  C7272   1.397   .     S
C7171  H101101  1.082   .     S
C7272  H102102  1.079   .     S
