data_11
_audit_creation_date              2023-09-08
_audit_creation_method            'Materials Studio'
_symmetry_space_group_name_H-M    'P1'
_symmetry_Int_Tables_number       1
_symmetry_cell_setting            triclinic
loop_
_symmetry_equiv_pos_as_xyz
  x,y,z
_cell_length_a                    21.4161
_cell_length_b                    21.4161
_cell_length_c                    13.3119
_cell_angle_alpha                 90.0000
_cell_angle_beta                  90.0000
_cell_angle_gamma                 90.0000
loop_
_atom_site_label
_atom_site_type_symbol
_atom_site_fract_x
_atom_site_fract_y
_atom_site_fract_z
_atom_site_U_iso_or_equiv
_atom_site_adp_type
_atom_site_occupancy
C1     C     0.52975   0.65194   0.78439   0.00000  Uiso   1.00
C2     C     0.47021   0.62625   0.79935   0.00000  Uiso   1.00
C3     C     0.46139   0.57820   0.86883   0.00000  Uiso   1.00
C4     C     0.51136   0.55558   0.92780   0.00000  Uiso   1.00
C5     C     0.57153   0.57994   0.90849   0.00000  Uiso   1.00
C6     C     0.58029   0.62801   0.83891   0.00000  Uiso   1.00
H7     H     0.43047   0.64294   0.75681   0.00000  Uiso   1.00
H8     H     0.41508   0.55855   0.87715   0.00000  Uiso   1.00
H9     H     0.61254   0.56125   0.94501   0.00000  Uiso   1.00
H10    H     0.62695   0.64604   0.82675   0.00000  Uiso   1.00
N11    N     0.49470   0.72590   0.65948   0.00000  Uiso   1.00
C12    C     0.54032   0.70276   0.71134   0.00000  Uiso   1.00
H13    H     0.58710   0.72104   0.70112   0.00000  Uiso   1.00
C14    C     0.02975   0.15194   0.28439   0.00000  Uiso   1.00
C15    C     0.97021   0.12625   0.29935   0.00000  Uiso   1.00
C16    C     0.96139   0.07820   0.36883   0.00000  Uiso   1.00
C17    C     0.01136   0.05558   0.42780   0.00000  Uiso   1.00
C18    C     0.07153   0.07994   0.40849   0.00000  Uiso   1.00
C19    C     0.08029   0.12801   0.33891   0.00000  Uiso   1.00
H20    H     0.93047   0.14294   0.25681   0.00000  Uiso   1.00
H21    H     0.91508   0.05855   0.37715   0.00000  Uiso   1.00
H22    H     0.11254   0.06125   0.44501   0.00000  Uiso   1.00
H23    H     0.12695   0.14604   0.32675   0.00000  Uiso   1.00
N24    N     0.99470   0.22590   0.15948   0.00000  Uiso   1.00
C25    C     0.04032   0.20276   0.21134   0.00000  Uiso   1.00
H26    H     0.08710   0.22104   0.20112   0.00000  Uiso   1.00
C27    C     0.97025   0.84806   0.28439   0.00000  Uiso   1.00
C28    C     0.02979   0.87375   0.29935   0.00000  Uiso   1.00
C29    C     0.03861   0.92180   0.36883   0.00000  Uiso   1.00
C30    C     0.98864   0.94442   0.42780   0.00000  Uiso   1.00
C31    C     0.92847   0.92006   0.40849   0.00000  Uiso   1.00
C32    C     0.91971   0.87199   0.33891   0.00000  Uiso   1.00
H33    H     0.06953   0.85706   0.25681   0.00000  Uiso   1.00
H34    H     0.08492   0.94145   0.37715   0.00000  Uiso   1.00
H35    H     0.88746   0.93875   0.44501   0.00000  Uiso   1.00
H36    H     0.87305   0.85396   0.32675   0.00000  Uiso   1.00
N37    N     0.00530   0.77410   0.15948   0.00000  Uiso   1.00
C38    C     0.95968   0.79724   0.21134   0.00000  Uiso   1.00
H39    H     0.91290   0.77896   0.20112   0.00000  Uiso   1.00
C40    C     0.47025   0.34806   0.78439   0.00000  Uiso   1.00
C41    C     0.52979   0.37375   0.79935   0.00000  Uiso   1.00
C42    C     0.53861   0.42180   0.86883   0.00000  Uiso   1.00
C43    C     0.48864   0.44442   0.92780   0.00000  Uiso   1.00
C44    C     0.42847   0.42006   0.90849   0.00000  Uiso   1.00
C45    C     0.41971   0.37199   0.83891   0.00000  Uiso   1.00
H46    H     0.56953   0.35706   0.75681   0.00000  Uiso   1.00
H47    H     0.58492   0.44145   0.87715   0.00000  Uiso   1.00
H48    H     0.38746   0.43875   0.94501   0.00000  Uiso   1.00
H49    H     0.37305   0.35396   0.82675   0.00000  Uiso   1.00
N50    N     0.50530   0.27410   0.65948   0.00000  Uiso   1.00
C51    C     0.45968   0.29724   0.71134   0.00000  Uiso   1.00
H52    H     0.41290   0.27896   0.70112   0.00000  Uiso   1.00
C53    C     0.34806   0.02975   0.03439   0.00000  Uiso   1.00
C54    C     0.37375   0.97021   0.04935   0.00000  Uiso   1.00
C55    C     0.42180   0.96139   0.11883   0.00000  Uiso   1.00
C56    C     0.44442   0.01136   0.17780   0.00000  Uiso   1.00
C57    C     0.42006   0.07153   0.15849   0.00000  Uiso   1.00
C58    C     0.37199   0.08029   0.08891   0.00000  Uiso   1.00
H59    H     0.35706   0.93047   0.00681   0.00000  Uiso   1.00
H60    H     0.44145   0.91508   0.12715   0.00000  Uiso   1.00
H61    H     0.43875   0.11254   0.19501   0.00000  Uiso   1.00
H62    H     0.35396   0.12695   0.07675   0.00000  Uiso   1.00
N63    N     0.27410   0.99470   0.90948   0.00000  Uiso   1.00
C64    C     0.29724   0.04032   0.96134   0.00000  Uiso   1.00
H65    H     0.27896   0.08710   0.95112   0.00000  Uiso   1.00
C66    C     0.84806   0.52975   0.53439   0.00000  Uiso   1.00
C67    C     0.87375   0.47021   0.54935   0.00000  Uiso   1.00
C68    C     0.92180   0.46139   0.61883   0.00000  Uiso   1.00
C69    C     0.94442   0.51136   0.67780   0.00000  Uiso   1.00
C70    C     0.92006   0.57153   0.65849   0.00000  Uiso   1.00
C71    C     0.87199   0.58029   0.58891   0.00000  Uiso   1.00
H72    H     0.85706   0.43047   0.50681   0.00000  Uiso   1.00
H73    H     0.94145   0.41508   0.62715   0.00000  Uiso   1.00
H74    H     0.93875   0.61254   0.69501   0.00000  Uiso   1.00
H75    H     0.85396   0.62695   0.57675   0.00000  Uiso   1.00
N76    N     0.77410   0.49470   0.40948   0.00000  Uiso   1.00
C77    C     0.79724   0.54032   0.46134   0.00000  Uiso   1.00
H78    H     0.77896   0.58710   0.45112   0.00000  Uiso   1.00
C79    C     0.15194   0.47025   0.53439   0.00000  Uiso   1.00
C80    C     0.12625   0.52979   0.54935   0.00000  Uiso   1.00
C81    C     0.07820   0.53861   0.61883   0.00000  Uiso   1.00
C82    C     0.05558   0.48864   0.67780   0.00000  Uiso   1.00
C83    C     0.07994   0.42847   0.65849   0.00000  Uiso   1.00
C84    C     0.12801   0.41971   0.58891   0.00000  Uiso   1.00
H85    H     0.14294   0.56953   0.50681   0.00000  Uiso   1.00
H86    H     0.05855   0.58492   0.62715   0.00000  Uiso   1.00
H87    H     0.06125   0.38746   0.69501   0.00000  Uiso   1.00
H88    H     0.14604   0.37305   0.57675   0.00000  Uiso   1.00
N89    N     0.22590   0.50530   0.40948   0.00000  Uiso   1.00
C90    C     0.20276   0.45968   0.46134   0.00000  Uiso   1.00
H91    H     0.22104   0.41290   0.45112   0.00000  Uiso   1.00
C92    C     0.65194   0.97025   0.03439   0.00000  Uiso   1.00
C93    C     0.62625   0.02979   0.04935   0.00000  Uiso   1.00
C94    C     0.57820   0.03861   0.11883   0.00000  Uiso   1.00
C95    C     0.55558   0.98864   0.17780   0.00000  Uiso   1.00
C96    C     0.57994   0.92847   0.15849   0.00000  Uiso   1.00
C97    C     0.62801   0.91971   0.08891   0.00000  Uiso   1.00
H98    H     0.64294   0.06953   0.00681   0.00000  Uiso   1.00
H99    H     0.55855   0.08492   0.12715   0.00000  Uiso   1.00
H100   H     0.56125   0.88746   0.19501   0.00000  Uiso   1.00
H101   H     0.64604   0.87305   0.07675   0.00000  Uiso   1.00
N102   N     0.72590   0.00530   0.90948   0.00000  Uiso   1.00
C103   C     0.70276   0.95968   0.96134   0.00000  Uiso   1.00
H104   H     0.72104   0.91290   0.95112   0.00000  Uiso   1.00
C105   C     0.47025   0.84806   0.46561   0.00000  Uiso   1.00
C106   C     0.52979   0.87375   0.45065   0.00000  Uiso   1.00
C107   C     0.53861   0.92180   0.38117   0.00000  Uiso   1.00
C108   C     0.48864   0.94442   0.32220   0.00000  Uiso   1.00
C109   C     0.42847   0.92006   0.34151   0.00000  Uiso   1.00
C110   C     0.41971   0.87199   0.41109   0.00000  Uiso   1.00
H111   H     0.56953   0.85706   0.49319   0.00000  Uiso   1.00
H112   H     0.58492   0.94145   0.37285   0.00000  Uiso   1.00
H113   H     0.38746   0.93875   0.30499   0.00000  Uiso   1.00
H114   H     0.37305   0.85396   0.42325   0.00000  Uiso   1.00
N115   N     0.50530   0.77410   0.59052   0.00000  Uiso   1.00
C116   C     0.45968   0.79724   0.53866   0.00000  Uiso   1.00
H117   H     0.41290   0.77896   0.54888   0.00000  Uiso   1.00
C118   C     0.97025   0.34806   0.96561   0.00000  Uiso   1.00
C119   C     0.02979   0.37375   0.95065   0.00000  Uiso   1.00
C120   C     0.03861   0.42180   0.88117   0.00000  Uiso   1.00
C121   C     0.98864   0.44442   0.82220   0.00000  Uiso   1.00
C122   C     0.92847   0.42006   0.84151   0.00000  Uiso   1.00
C123   C     0.91971   0.37199   0.91109   0.00000  Uiso   1.00
H124   H     0.06953   0.35706   0.99319   0.00000  Uiso   1.00
H125   H     0.08492   0.44145   0.87285   0.00000  Uiso   1.00
H126   H     0.88746   0.43875   0.80499   0.00000  Uiso   1.00
H127   H     0.87305   0.35396   0.92325   0.00000  Uiso   1.00
N128   N     0.00530   0.27410   0.09052   0.00000  Uiso   1.00
C129   C     0.95968   0.29724   0.03866   0.00000  Uiso   1.00
H130   H     0.91290   0.27896   0.04888   0.00000  Uiso   1.00
C131   C     0.02975   0.65194   0.96561   0.00000  Uiso   1.00
C132   C     0.97021   0.62625   0.95065   0.00000  Uiso   1.00
C133   C     0.96139   0.57820   0.88117   0.00000  Uiso   1.00
C134   C     0.01136   0.55558   0.82220   0.00000  Uiso   1.00
C135   C     0.07153   0.57994   0.84151   0.00000  Uiso   1.00
C136   C     0.08029   0.62801   0.91109   0.00000  Uiso   1.00
H137   H     0.93047   0.64294   0.99319   0.00000  Uiso   1.00
H138   H     0.91508   0.55855   0.87285   0.00000  Uiso   1.00
H139   H     0.11254   0.56125   0.80499   0.00000  Uiso   1.00
H140   H     0.12695   0.64604   0.92325   0.00000  Uiso   1.00
N141   N     0.99470   0.72590   0.09052   0.00000  Uiso   1.00
C142   C     0.04032   0.70276   0.03866   0.00000  Uiso   1.00
H143   H     0.08710   0.72104   0.04888   0.00000  Uiso   1.00
C144   C     0.52975   0.15194   0.46561   0.00000  Uiso   1.00
C145   C     0.47021   0.12625   0.45065   0.00000  Uiso   1.00
C146   C     0.46139   0.07820   0.38117   0.00000  Uiso   1.00
C147   C     0.51136   0.05558   0.32220   0.00000  Uiso   1.00
C148   C     0.57153   0.07994   0.34151   0.00000  Uiso   1.00
C149   C     0.58029   0.12801   0.41109   0.00000  Uiso   1.00
H150   H     0.43047   0.14294   0.49319   0.00000  Uiso   1.00
H151   H     0.41508   0.05855   0.37285   0.00000  Uiso   1.00
H152   H     0.61254   0.06125   0.30499   0.00000  Uiso   1.00
H153   H     0.62695   0.14604   0.42325   0.00000  Uiso   1.00
N154   N     0.49470   0.22590   0.59052   0.00000  Uiso   1.00
C155   C     0.54032   0.20276   0.53866   0.00000  Uiso   1.00
H156   H     0.58710   0.22104   0.54888   0.00000  Uiso   1.00
C157   C     0.65194   0.47025   0.21561   0.00000  Uiso   1.00
C158   C     0.62625   0.52979   0.20065   0.00000  Uiso   1.00
C159   C     0.57820   0.53861   0.13117   0.00000  Uiso   1.00
C160   C     0.55558   0.48864   0.07220   0.00000  Uiso   1.00
C161   C     0.57994   0.42847   0.09151   0.00000  Uiso   1.00
C162   C     0.62801   0.41971   0.16109   0.00000  Uiso   1.00
H163   H     0.64294   0.56953   0.24319   0.00000  Uiso   1.00
H164   H     0.55855   0.58492   0.12285   0.00000  Uiso   1.00
H165   H     0.56125   0.38746   0.05499   0.00000  Uiso   1.00
H166   H     0.64604   0.37305   0.17325   0.00000  Uiso   1.00
N167   N     0.72590   0.50530   0.34052   0.00000  Uiso   1.00
C168   C     0.70276   0.45968   0.28866   0.00000  Uiso   1.00
H169   H     0.72104   0.41290   0.29888   0.00000  Uiso   1.00
C170   C     0.15194   0.97025   0.71561   0.00000  Uiso   1.00
C171   C     0.12625   0.02979   0.70065   0.00000  Uiso   1.00
C172   C     0.07820   0.03861   0.63117   0.00000  Uiso   1.00
C173   C     0.05558   0.98864   0.57220   0.00000  Uiso   1.00
C174   C     0.07994   0.92847   0.59151   0.00000  Uiso   1.00
C175   C     0.12801   0.91971   0.66109   0.00000  Uiso   1.00
H176   H     0.14294   0.06953   0.74319   0.00000  Uiso   1.00
H177   H     0.05855   0.08492   0.62285   0.00000  Uiso   1.00
H178   H     0.06125   0.88746   0.55499   0.00000  Uiso   1.00
H179   H     0.14604   0.87305   0.67325   0.00000  Uiso   1.00
N180   N     0.22590   0.00530   0.84052   0.00000  Uiso   1.00
C181   C     0.20276   0.95968   0.78866   0.00000  Uiso   1.00
H182   H     0.22104   0.91290   0.79888   0.00000  Uiso   1.00
C183   C     0.84806   0.02975   0.71561   0.00000  Uiso   1.00
C184   C     0.87375   0.97021   0.70065   0.00000  Uiso   1.00
C185   C     0.92180   0.96139   0.63117   0.00000  Uiso   1.00
C186   C     0.94442   0.01136   0.57220   0.00000  Uiso   1.00
C187   C     0.92006   0.07153   0.59151   0.00000  Uiso   1.00
C188   C     0.87199   0.08029   0.66109   0.00000  Uiso   1.00
H189   H     0.85706   0.93047   0.74319   0.00000  Uiso   1.00
H190   H     0.94145   0.91508   0.62285   0.00000  Uiso   1.00
H191   H     0.93875   0.11254   0.55499   0.00000  Uiso   1.00
H192   H     0.85396   0.12695   0.67325   0.00000  Uiso   1.00
N193   N     0.77410   0.99470   0.84052   0.00000  Uiso   1.00
C194   C     0.79724   0.04032   0.78866   0.00000  Uiso   1.00
H195   H     0.77896   0.08710   0.79888   0.00000  Uiso   1.00
C196   C     0.34806   0.52975   0.21561   0.00000  Uiso   1.00
C197   C     0.37375   0.47021   0.20065   0.00000  Uiso   1.00
C198   C     0.42180   0.46139   0.13117   0.00000  Uiso   1.00
C199   C     0.44442   0.51136   0.07220   0.00000  Uiso   1.00
C200   C     0.42006   0.57153   0.09151   0.00000  Uiso   1.00
C201   C     0.37199   0.58029   0.16109   0.00000  Uiso   1.00
H202   H     0.35706   0.43047   0.24319   0.00000  Uiso   1.00
H203   H     0.44145   0.41508   0.12285   0.00000  Uiso   1.00
H204   H     0.43875   0.61254   0.05499   0.00000  Uiso   1.00
H205   H     0.35396   0.62695   0.17325   0.00000  Uiso   1.00
N206   N     0.27410   0.49470   0.34052   0.00000  Uiso   1.00
C207   C     0.29724   0.54032   0.28866   0.00000  Uiso   1.00
H208   H     0.27896   0.58710   0.29888   0.00000  Uiso   1.00
C209   C     0.50000   0.50000   0.00000   0.00000  Uiso   1.00
C210   C     0.00000   0.00000   0.50000   0.00000  Uiso   1.00
C211   C     0.50000   0.00000   0.25000   0.00000  Uiso   1.00
C212   C     0.00000   0.50000   0.75000   0.00000  Uiso   1.00
loop_
_geom_bond_atom_site_label_1
_geom_bond_atom_site_label_2
_geom_bond_distance
_geom_bond_site_symmetry_2
_ccdc_geom_bond_type
C1     C2      1.403   .     D
C1     C6      1.400   .     S
C1     C12     1.477   .     S
C2     C3      1.396   .     S
C2     H7      1.083   .     S
C3     C4      1.413   .     D
C3     H8      1.083   .     S
C4     C5      1.414   .     S
C4     C209    1.549   1_556 S
C5     C6      1.397   .     D
C5     H9      1.081   .     S
C6     H10     1.083   .     S
N11    C12     1.295   .     D
N11    N115    1.400   .     S
C12    H13     1.084   .     S
C14    C15     1.403   1_455 D
C14    C19     1.400   .     S
C14    C25     1.477   .     S
C15    C14     1.403   1_655 D
C15    C16     1.396   .     S
C15    H20     1.083   .     S
C16    C17     1.413   1_655 D
C16    H21     1.083   .     S
C17    C16     1.413   1_455 D
C17    C18     1.414   .     S
C17    C210    1.549   .     S
C18    C19     1.397   .     D
C18    H22     1.081   .     S
C19    H23     1.083   .     S
N24    C25     1.295   1_655 D
N24    N128    1.400   1_655 S
C25    N24     1.295   1_455 D
C25    H26     1.084   .     S
C27    C28     1.403   1_655 D
C27    C32     1.400   .     S
C27    C38     1.477   .     S
C28    C27     1.403   1_455 D
C28    C29     1.396   .     S
C28    H33     1.083   .     S
C29    C30     1.413   1_455 D
C29    H34     1.083   .     S
C30    C29     1.413   1_655 D
C30    C31     1.414   .     S
C30    C210    1.549   1_665 S
C31    C32     1.397   .     D
C31    H35     1.081   .     S
C32    H36     1.083   .     S
N37    C38     1.295   1_455 D
N37    N141    1.400   1_455 S
C38    N37     1.295   1_655 D
C38    H39     1.084   .     S
C40    C41     1.403   .     D
C40    C45     1.400   .     S
C40    C51     1.477   .     S
C41    C42     1.396   .     S
C41    H46     1.083   .     S
C42    C43     1.413   .     D
C42    H47     1.083   .     S
C43    C44     1.414   .     S
C43    C209    1.549   1_556 S
C44    C45     1.397   .     D
C44    H48     1.081   .     S
C45    H49     1.083   .     S
N50    C51     1.295   .     D
N50    N154    1.400   .     S
C51    H52     1.084   .     S
C53    C54     1.403   1_545 S
C53    C58     1.400   .     D
C53    C64     1.477   1_554 S
C54    C53     1.403   1_565 S
C54    C55     1.396   .     D
C54    H59     1.083   .     S
C55    C56     1.413   1_565 S
C55    H60     1.083   .     S
C56    C55     1.413   1_545 S
C56    C57     1.414   .     D
C56    C211    1.549   .     S
C57    C58     1.397   .     S
C57    H61     1.081   .     S
C58    H62     1.083   .     S
N63    C64     1.295   1_565 D
N63    N180    1.400   1_565 S
C64    C53     1.477   1_556 S
C64    N63     1.295   1_545 D
C64    H65     1.084   .     S
C66    C67     1.403   .     D
C66    C71     1.400   .     S
C66    C77     1.477   .     S
C67    C68     1.396   .     S
C67    H72     1.083   .     S
C68    C69     1.413   .     D
C68    H73     1.083   .     S
C69    C70     1.414   .     S
C69    C212    1.549   1_655 S
C70    C71     1.397   .     D
C70    H74     1.081   .     S
C71    H75     1.083   .     S
N76    C77     1.295   .     D
N76    N167    1.400   .     S
C77    H78     1.084   .     S
C79    C80     1.403   .     D
C79    C84     1.400   .     S
C79    C90     1.477   .     S
C80    C81     1.396   .     S
C80    H85     1.083   .     S
C81    C82     1.413   .     D
C81    H86     1.083   .     S
C82    C83     1.414   .     S
C82    C212    1.549   .     S
C83    C84     1.397   .     D
C83    H87     1.081   .     S
C84    H88     1.083   .     S
N89    C90     1.295   .     D
N89    N206    1.400   .     S
C90    H91     1.084   .     S
C92    C93     1.403   1_565 S
C92    C97     1.400   .     D
C92    C103    1.477   1_554 S
C93    C92     1.403   1_545 S
C93    C94     1.396   .     D
C93    H98     1.083   .     S
C94    C95     1.413   1_545 S
C94    H99     1.083   .     S
C95    C94     1.413   1_565 S
C95    C96     1.414   .     D
C95    C211    1.549   1_565 S
C96    C97     1.397   .     S
C96    H100    1.081   .     S
C97    H101    1.083   .     S
N102   C103    1.295   1_545 D
N102   N193    1.400   1_545 S
C103   C92     1.477   1_556 S
C103   N102    1.295   1_565 D
C103   H104    1.084   .     S
C105   C106    1.403   .     D
C105   C110    1.400   .     S
C105   C116    1.477   .     S
C106   C107    1.396   .     S
C106   H111    1.083   .     S
C107   C108    1.413   .     D
C107   H112    1.083   .     S
C108   C109    1.414   .     S
C108   C211    1.549   1_565 S
C109   C110    1.397   .     D
C109   H113    1.081   .     S
C110   H114    1.083   .     S
N115   C116    1.295   .     D
C116   H117    1.084   .     S
C118   C119    1.403   1_655 D
C118   C123    1.400   .     S
C118   C129    1.477   1_556 S
C119   C118    1.403   1_455 D
C119   C120    1.396   .     S
C119   H124    1.083   .     S
C120   C121    1.413   1_455 D
C120   H125    1.083   .     S
C121   C120    1.413   1_655 D
C121   C122    1.414   .     S
C121   C212    1.549   1_655 S
C122   C123    1.397   .     D
C122   H126    1.081   .     S
C123   H127    1.083   .     S
N128   N24     1.400   1_455 S
N128   C129    1.295   1_455 D
C129   N128    1.295   1_655 D
C129   C118    1.477   1_554 S
C129   H130    1.084   .     S
C131   C132    1.403   1_455 D
C131   C136    1.400   .     S
C131   C142    1.477   1_556 S
C132   C131    1.403   1_655 D
C132   C133    1.396   .     S
C132   H137    1.083   .     S
C133   C134    1.413   1_655 D
C133   H138    1.083   .     S
C134   C133    1.413   1_455 D
C134   C135    1.414   .     S
C134   C212    1.549   .     S
C135   C136    1.397   .     D
C135   H139    1.081   .     S
C136   H140    1.083   .     S
N141   N37     1.400   1_655 S
N141   C142    1.295   1_655 D
C142   N141    1.295   1_455 D
C142   C131    1.477   1_554 S
C142   H143    1.084   .     S
C144   C145    1.403   .     D
C144   C149    1.400   .     S
C144   C155    1.477   .     S
C145   C146    1.396   .     S
C145   H150    1.083   .     S
C146   C147    1.413   .     D
C146   H151    1.083   .     S
C147   C148    1.414   .     S
C147   C211    1.549   .     S
C148   C149    1.397   .     D
C148   H152    1.081   .     S
C149   H153    1.083   .     S
N154   C155    1.295   .     D
C155   H156    1.084   .     S
C157   C158    1.403   .     D
C157   C162    1.400   .     S
C157   C168    1.477   .     S
C158   C159    1.396   .     S
C158   H163    1.083   .     S
C159   C160    1.413   .     D
C159   H164    1.083   .     S
C160   C161    1.414   .     S
C160   C209    1.549   .     S
C161   C162    1.397   .     D
C161   H165    1.081   .     S
C162   H166    1.083   .     S
N167   C168    1.295   .     D
C168   H169    1.084   .     S
C170   C171    1.403   1_565 S
C170   C175    1.400   .     D
C170   C181    1.477   .     S
C171   C170    1.403   1_545 S
C171   C172    1.396   .     D
C171   H176    1.083   .     S
C172   C173    1.413   1_545 S
C172   H177    1.083   .     S
C173   C172    1.413   1_565 S
C173   C174    1.414   .     D
C173   C210    1.549   1_565 S
C174   C175    1.397   .     S
C174   H178    1.081   .     S
C175   H179    1.083   .     S
N180   N63     1.400   1_545 S
N180   C181    1.295   1_545 D
C181   N180    1.295   1_565 D
C181   H182    1.084   .     S
C183   C184    1.403   1_545 S
C183   C188    1.400   .     D
C183   C194    1.477   .     S
C184   C183    1.403   1_565 S
C184   C185    1.396   .     D
C184   H189    1.083   .     S
C185   C186    1.413   1_565 S
C185   H190    1.083   .     S
C186   C185    1.413   1_545 S
C186   C187    1.414   .     D
C186   C210    1.549   1_655 S
C187   C188    1.397   .     S
C187   H191    1.081   .     S
C188   H192    1.083   .     S
N193   N102    1.400   1_565 S
N193   C194    1.295   1_565 D
C194   N193    1.295   1_545 D
C194   H195    1.084   .     S
C196   C197    1.403   .     D
C196   C201    1.400   .     S
C196   C207    1.477   .     S
C197   C198    1.396   .     S
C197   H202    1.083   .     S
C198   C199    1.413   .     D
C198   H203    1.083   .     S
C199   C200    1.414   .     S
C199   C209    1.549   .     S
C200   C201    1.397   .     D
C200   H204    1.081   .     S
C201   H205    1.083   .     S
N206   C207    1.295   .     D
C207   H208    1.084   .     S
C209   C4      1.549   1_554 S
C209   C43     1.549   1_554 S
C210   C30     1.549   1_445 S
C210   C186    1.549   1_455 S
C210   C173    1.549   1_545 S
C211   C95     1.549   1_545 S
C211   C108    1.549   1_545 S
C212   C69     1.549   1_455 S
C212   C121    1.549   1_455 S
