data_110
_audit_creation_date              2023-09-08
_audit_creation_method            'Materials Studio'
_symmetry_space_group_name_H-M    'P1'
_symmetry_Int_Tables_number       1
_symmetry_cell_setting            triclinic
loop_
_symmetry_equiv_pos_as_xyz
  x,y,z
_cell_length_a                    23.2030
_cell_length_b                    23.2030
_cell_length_c                    3.1630
_cell_angle_alpha                 90.0000
_cell_angle_beta                  90.0000
_cell_angle_gamma                 120.0000
loop_
_atom_site_label
_atom_site_type_symbol
_atom_site_fract_x
_atom_site_fract_y
_atom_site_fract_z
_atom_site_U_iso_or_equiv
_atom_site_adp_type
_atom_site_occupancy
C1     C     0.38763   0.38763   0.00000   0.00000  Uiso   1.00
C2     C     0.44464   0.44464   0.00000   0.00000  Uiso   1.00
N3     N     0.55536   0.55536   0.00000   0.00000  Uiso   1.00
N4     N     0.34190   0.34190   0.00000   0.00000  Uiso   1.00
C5     C     0.61237   0.00000   0.00000   0.00000  Uiso   1.00
C6     C     0.55536   0.00000   0.00000   0.00000  Uiso   1.00
N7     N     0.44464  -0.00000   0.00000   0.00000  Uiso   1.00
N8     N     0.65810   0.00000   0.00000   0.00000  Uiso   1.00
C9     C     0.00000   0.61237   0.00000   0.00000  Uiso   1.00
C10    C     0.00000   0.55536   0.00000   0.00000  Uiso   1.00
N11    N     0.00000   0.44464   0.00000   0.00000  Uiso   1.00
N12    N     0.00000   0.65810   0.00000   0.00000  Uiso   1.00
C13    C     0.66665   0.27695   0.00000   0.00000  Uiso   1.00
C14    C     0.55516   0.33536   0.00000   0.00000  Uiso   1.00
C15    C     0.55483   0.39013   0.00000   0.00000  Uiso   1.00
C16    C     0.49994   0.44438   0.00000   0.00000  Uiso   1.00
O17    O     0.50151   0.61181   0.00000   0.00000  Uiso   1.00
H18    H     0.78468   0.48933   0.00000   0.00000  Uiso   1.00
C19    C     0.33335   0.72305   0.00000   0.00000  Uiso   1.00
C20    C     0.44484   0.66464   0.00000   0.00000  Uiso   1.00
C21    C     0.44517   0.60987   0.00000   0.00000  Uiso   1.00
C22    C     0.50006   0.55562   0.00000   0.00000  Uiso   1.00
O23    O     0.49849   0.38819   0.00000   0.00000  Uiso   1.00
H24    H     0.21532   0.51067   0.00000   0.00000  Uiso   1.00
C25    C     0.72305   0.38970   0.00000   0.00000  Uiso   1.00
C26    C     0.66464   0.21980   0.00000   0.00000  Uiso   1.00
C27    C     0.60987   0.16470   0.00000   0.00000  Uiso   1.00
C28    C     0.55562   0.05556   0.00000   0.00000  Uiso   1.00
O29    O     0.38819   0.88970   0.00000   0.00000  Uiso   1.00
H30    H     0.51067   0.29535   0.00000   0.00000  Uiso   1.00
C31    C     0.27695   0.61030   0.00000   0.00000  Uiso   1.00
C32    C     0.33536   0.78020   0.00000   0.00000  Uiso   1.00
C33    C     0.39013   0.83530   0.00000   0.00000  Uiso   1.00
C34    C     0.44438   0.94444   0.00000   0.00000  Uiso   1.00
O35    O     0.61181   0.11030   0.00000   0.00000  Uiso   1.00
H36    H     0.48933   0.70465   0.00000   0.00000  Uiso   1.00
C37    C     0.61030   0.33335   0.00000   0.00000  Uiso   1.00
C38    C     0.78020   0.44484   0.00000   0.00000  Uiso   1.00
C39    C     0.83530   0.44517   0.00000   0.00000  Uiso   1.00
C40    C     0.94444   0.50006   0.00000   0.00000  Uiso   1.00
O41    O     0.11030   0.49849   0.00000   0.00000  Uiso   1.00
H42    H     0.70465   0.21532   0.00000   0.00000  Uiso   1.00
C43    C     0.38970   0.66665   0.00000   0.00000  Uiso   1.00
C44    C     0.21980   0.55516   0.00000   0.00000  Uiso   1.00
C45    C     0.16470   0.55483   0.00000   0.00000  Uiso   1.00
C46    C     0.05556   0.49994   0.00000   0.00000  Uiso   1.00
O47    O     0.88970   0.50151   0.00000   0.00000  Uiso   1.00
H48    H     0.29535   0.78468   0.00000   0.00000  Uiso   1.00
C49    C     0.27695   0.66665   0.00000   0.00000  Uiso   1.00
C50    C     0.33536   0.55516   0.00000   0.00000  Uiso   1.00
C51    C     0.39013   0.55483   0.00000   0.00000  Uiso   1.00
C52    C     0.44438   0.49994   0.00000   0.00000  Uiso   1.00
O53    O     0.61181   0.50151   0.00000   0.00000  Uiso   1.00
H54    H     0.48933   0.78468   0.00000   0.00000  Uiso   1.00
C55    C     0.72305   0.33335   0.00000   0.00000  Uiso   1.00
C56    C     0.66464   0.44484   0.00000   0.00000  Uiso   1.00
C57    C     0.60987   0.44517   0.00000   0.00000  Uiso   1.00
C58    C     0.55562   0.50006   0.00000   0.00000  Uiso   1.00
O59    O     0.38819   0.49849   0.00000   0.00000  Uiso   1.00
H60    H     0.51067   0.21532   0.00000   0.00000  Uiso   1.00
C61    C     0.38970   0.72305   0.00000   0.00000  Uiso   1.00
C62    C     0.21980   0.66464   0.00000   0.00000  Uiso   1.00
C63    C     0.16470   0.60987   0.00000   0.00000  Uiso   1.00
C64    C     0.05556   0.55562   0.00000   0.00000  Uiso   1.00
O65    O     0.88970   0.38819   0.00000   0.00000  Uiso   1.00
H66    H     0.29535   0.51067   0.00000   0.00000  Uiso   1.00
C67    C     0.61030   0.27695   0.00000   0.00000  Uiso   1.00
C68    C     0.78020   0.33536   0.00000   0.00000  Uiso   1.00
C69    C     0.83530   0.39013   0.00000   0.00000  Uiso   1.00
C70    C     0.94444   0.44438   0.00000   0.00000  Uiso   1.00
O71    O     0.11030   0.61181   0.00000   0.00000  Uiso   1.00
H72    H     0.70465   0.48933   0.00000   0.00000  Uiso   1.00
C73    C     0.33335   0.61030   0.00000   0.00000  Uiso   1.00
C74    C     0.44484   0.78020   0.00000   0.00000  Uiso   1.00
C75    C     0.44517   0.83530   0.00000   0.00000  Uiso   1.00
C76    C     0.50006   0.94444   0.00000   0.00000  Uiso   1.00
O77    O     0.49849   0.11030   0.00000   0.00000  Uiso   1.00
H78    H     0.21532   0.70465   0.00000   0.00000  Uiso   1.00
C79    C     0.66665   0.38970   0.00000   0.00000  Uiso   1.00
C80    C     0.55516   0.21980   0.00000   0.00000  Uiso   1.00
C81    C     0.55483   0.16470   0.00000   0.00000  Uiso   1.00
C82    C     0.49994   0.05556   0.00000   0.00000  Uiso   1.00
O83    O     0.50151   0.88970   0.00000   0.00000  Uiso   1.00
H84    H     0.78468   0.29535   0.00000   0.00000  Uiso   1.00
loop_
_geom_bond_atom_site_label_1
_geom_bond_atom_site_label_2
_geom_bond_distance
_geom_bond_site_symmetry_2
_ccdc_geom_bond_type
C1     C2      1.323   .     S
C1     N4      1.061   .     T
C2     C16     1.286   .     S
C2     C52     1.286   .     D
N3     C22     1.286   .     D
N3     C58     1.286   .     S
C5     C6      1.323   .     S
C5     N8      1.061   .     T
C6     C28     1.286   .     S
C6     C76     1.286   1_545 D
N7     C34     1.286   1_545 D
N7     C82     1.286   .     S
C9     C10     1.323   .     S
C9     N12     1.061   .     T
C10    C40     1.286   1_455 S
C10    C64     1.286   .     D
N11    C46     1.286   .     D
N11    C70     1.286   1_455 S
C13    C26     1.303   .     S
C13    C55     1.309   .     S
C13    C67     1.307   .     D
C14    C15     1.275   .     D
C14    H30     0.984   .     S
C14    C37     1.303   .     S
C15    O23     1.285   .     S
C15    C57     1.277   .     S
C16    O23     1.287   .     S
C16    C58     1.292   .     D
O17    C21     1.285   .     S
O17    C22     1.287   .     S
H18    C38     0.984   .     S
C19    C32     1.303   .     D
C19    C49     1.309   .     S
C19    C61     1.307   .     S
C20    C21     1.275   .     S
C20    H36     0.984   .     S
C20    C43     1.303   .     D
C21    C51     1.277   .     D
C22    C52     1.292   .     S
H24    C44     0.984   .     S
C25    C38     1.303   .     D
C25    C55     1.307   .     S
C25    C79     1.309   .     S
C26    C27     1.275   .     D
C26    H42     0.984   .     S
C27    O35     1.285   .     S
C27    C81     1.277   .     S
C28    O35     1.287   .     S
C28    C82     1.292   .     D
O29    C33     1.285   .     S
O29    C34     1.287   .     S
C31    C44     1.303   .     S
C31    C49     1.307   .     D
C31    C73     1.309   .     S
C32    C33     1.275   .     S
C32    H48     0.984   .     S
C33    C75     1.277   .     D
C34    N7      1.286   1_565 D
C34    C76     1.292   .     S
C37    C67     1.309   .     S
C37    C79     1.307   .     D
C38    C39     1.275   .     S
C39    O47     1.285   .     S
C39    C69     1.277   .     D
C40    C10     1.286   1_655 S
C40    O47     1.287   .     S
C40    C70     1.292   .     D
O41    C45     1.285   .     S
O41    C46     1.287   .     S
C43    C61     1.309   .     S
C43    C73     1.307   .     S
C44    C45     1.275   .     D
C45    C63     1.277   .     S
C46    C64     1.292   .     S
C49    C62     1.303   .     S
C50    C51     1.275   .     S
C50    H66     0.984   .     S
C50    C73     1.303   .     D
C51    O59     1.285   .     S
C52    O59     1.287   .     S
O53    C57     1.285   .     S
O53    C58     1.287   .     S
H54    C74     0.984   .     S
C55    C68     1.303   .     D
C56    C57     1.275   .     D
C56    H72     0.984   .     S
C56    C79     1.303   .     S
H60    C80     0.984   .     S
C61    C74     1.303   .     D
C62    C63     1.275   .     D
C62    H78     0.984   .     S
C63    O71     1.285   .     S
C64    O71     1.287   .     S
O65    C69     1.285   .     S
O65    C70     1.287   .     S
C67    C80     1.303   .     S
C68    C69     1.275   .     S
C68    H84     0.984   .     S
C70    N11     1.286   1_655 S
C74    C75     1.275   .     S
C75    O83     1.285   .     S
C76    C6      1.286   1_565 D
C76    O83     1.287   .     S
O77    C81     1.285   .     S
O77    C82     1.287   .     S
C80    C81     1.275   .     D
