data_1100
_audit_creation_date              2023-09-08
_audit_creation_method            'Materials Studio'
_symmetry_space_group_name_H-M    'P1'
_symmetry_Int_Tables_number       1
_symmetry_cell_setting            triclinic
loop_
_symmetry_equiv_pos_as_xyz
  x,y,z
_cell_length_a                    28.0700
_cell_length_b                    28.0700
_cell_length_c                    3.4100
_cell_angle_alpha                 90.0000
_cell_angle_beta                  90.0000
_cell_angle_gamma                 120.0000
loop_
_atom_site_label
_atom_site_type_symbol
_atom_site_fract_x
_atom_site_fract_y
_atom_site_fract_z
_atom_site_U_iso_or_equiv
_atom_site_adp_type
_atom_site_occupancy
O1     O     0.89169   0.98105   0.00000   0.00000  Uiso   1.00
C2     C     0.19904   0.95084   0.00000   0.00000  Uiso   1.00
H3     H     0.32624   0.96334   0.00000   0.00000  Uiso   1.00
C4     C     0.94603   0.99178   0.00000   0.00000  Uiso   1.00
N5     N     0.12375   0.97726   0.00000   0.00000  Uiso   1.00
C6     C     0.25657   0.97447   0.00000   0.00000  Uiso   1.00
H7     H     0.88340   0.01191   0.00000   0.00000  Uiso   1.00
N8     N     0.17900   0.98961   0.00000   0.00000  Uiso   1.00
C9     C     0.05443   0.00804   0.00000   0.00000  Uiso   1.00
C10    C     0.11209   0.01678   0.00000   0.00000  Uiso   1.00
H11    H     0.28281   0.01876   0.00000   0.00000  Uiso   1.00
H12    H     0.20925   0.03129   0.00000   0.00000  Uiso   1.00
H13    H     0.94590   0.08920   0.00000   0.00000  Uiso   1.00
H14    H     0.11627   0.20137   0.00000   0.00000  Uiso   1.00
H15    H     0.21343   0.24917   0.00000   0.00000  Uiso   1.00
C16    C     0.13656   0.24481   0.00000   0.00000  Uiso   1.00
C17    C     0.19380   0.27164   0.00000   0.00000  Uiso   1.00
C18    C     0.10803   0.27412   0.00000   0.00000  Uiso   1.00
C19    C     0.22447   0.32865   0.00000   0.00000  Uiso   1.00
C20    C     0.14018   0.33293   0.00000   0.00000  Uiso   1.00
C21    C     0.05729   0.33903   0.00000   0.00000  Uiso   1.00
H22    H     0.26891   0.34831   0.00000   0.00000  Uiso   1.00
C23    C     0.19812   0.35986   0.00000   0.00000  Uiso   1.00
C24    C     0.11459   0.36490   0.00000   0.00000  Uiso   1.00
C25    C     0.23093   0.42098   0.00000   0.00000  Uiso   1.00
C26    C     0.14841   0.42581   0.00000   0.00000  Uiso   1.00
O27    O     0.28082   0.44262   0.00000   0.00000  Uiso   1.00
N28    N     0.20505   0.45213   0.00000   0.00000  Uiso   1.00
O29    O     0.12541   0.45299   0.00000   0.00000  Uiso   1.00
N30    N     0.23249   0.51057   0.00000   0.00000  Uiso   1.00
H31    H     0.31369   0.53228   0.00000   0.00000  Uiso   1.00
C32    C     0.28472   0.54632   0.00000   0.00000  Uiso   1.00
H33    H     0.19568   0.56406   0.00000   0.00000  Uiso   1.00
C34    C     0.30763   0.60792   0.00000   0.00000  Uiso   1.00
O35    O     0.21724   0.60504   0.00000   0.00000  Uiso   1.00
C36    C     0.27508   0.63411   0.00000   0.00000  Uiso   1.00
O37    O     0.01895   0.91064   0.00000   0.00000  Uiso   1.00
C38    C     0.04916   0.24820   0.00000   0.00000  Uiso   1.00
H39    H     0.03666   0.36290   0.00000   0.00000  Uiso   1.00
C40    C     0.00822   0.95425   0.00000   0.00000  Uiso   1.00
N41    N     0.02274   0.14649   0.00000   0.00000  Uiso   1.00
C42    C     0.02553   0.28210   0.00000   0.00000  Uiso   1.00
H43    H     0.98809   0.87149   0.00000   0.00000  Uiso   1.00
N44    N     0.01039   0.18939   0.00000   0.00000  Uiso   1.00
C45    C     0.99196   0.04639   0.00000   0.00000  Uiso   1.00
C46    C     0.98322   0.09531   0.00000   0.00000  Uiso   1.00
H47    H     0.98124   0.26405   0.00000   0.00000  Uiso   1.00
H48    H     0.96871   0.17796   0.00000   0.00000  Uiso   1.00
H49    H     0.91080   0.85670   0.00000   0.00000  Uiso   1.00
H50    H     0.79863   0.91490   0.00000   0.00000  Uiso   1.00
H51    H     0.75083   0.96426   0.00000   0.00000  Uiso   1.00
C52    C     0.75519   0.89175   0.00000   0.00000  Uiso   1.00
C53    C     0.72836   0.92216   0.00000   0.00000  Uiso   1.00
C54    C     0.72588   0.83391   0.00000   0.00000  Uiso   1.00
C55    C     0.67135   0.89582   0.00000   0.00000  Uiso   1.00
C56    C     0.66707   0.80725   0.00000   0.00000  Uiso   1.00
C57    C     0.66097   0.71826   0.00000   0.00000  Uiso   1.00
H58    H     0.65169   0.92060   0.00000   0.00000  Uiso   1.00
C59    C     0.64014   0.83826   0.00000   0.00000  Uiso   1.00
C60    C     0.63510   0.74969   0.00000   0.00000  Uiso   1.00
C61    C     0.57902   0.80995   0.00000   0.00000  Uiso   1.00
C62    C     0.57419   0.72260   0.00000   0.00000  Uiso   1.00
O63    O     0.55738   0.83820   0.00000   0.00000  Uiso   1.00
N64    N     0.54787   0.75292   0.00000   0.00000  Uiso   1.00
O65    O     0.54701   0.67242   0.00000   0.00000  Uiso   1.00
N66    N     0.48943   0.72192   0.00000   0.00000  Uiso   1.00
H67    H     0.46772   0.78141   0.00000   0.00000  Uiso   1.00
C68    C     0.45368   0.73840   0.00000   0.00000  Uiso   1.00
H69    H     0.43594   0.63162   0.00000   0.00000  Uiso   1.00
C70    C     0.39208   0.69971   0.00000   0.00000  Uiso   1.00
O71    O     0.39496   0.61220   0.00000   0.00000  Uiso   1.00
C72    C     0.36589   0.64097   0.00000   0.00000  Uiso   1.00
O73    O     0.08936   0.10831   0.00000   0.00000  Uiso   1.00
C74    C     0.75180   0.80096   0.00000   0.00000  Uiso   1.00
H75    H     0.63710   0.67376   0.00000   0.00000  Uiso   1.00
C76    C     0.04575   0.05397   0.00000   0.00000  Uiso   1.00
N77    N     0.85351   0.87625   0.00000   0.00000  Uiso   1.00
C78    C     0.71790   0.74343   0.00000   0.00000  Uiso   1.00
H79    H     0.12851   0.11660   0.00000   0.00000  Uiso   1.00
N80    N     0.81061   0.82100   0.00000   0.00000  Uiso   1.00
C81    C     0.95361   0.94557   0.00000   0.00000  Uiso   1.00
C82    C     0.90469   0.88791   0.00000   0.00000  Uiso   1.00
H83    H     0.73595   0.71719   0.00000   0.00000  Uiso   1.00
H84    H     0.82204   0.79075   0.00000   0.00000  Uiso   1.00
H85    H     0.14330   0.05410   0.00000   0.00000  Uiso   1.00
H86    H     0.08510   0.88373   0.00000   0.00000  Uiso   1.00
H87    H     0.03574   0.78657   0.00000   0.00000  Uiso   1.00
C88    C     0.10825   0.86344   0.00000   0.00000  Uiso   1.00
C89    C     0.07784   0.80620   0.00000   0.00000  Uiso   1.00
C90    C     0.16609   0.89197   0.00000   0.00000  Uiso   1.00
C91    C     0.10418   0.77553   0.00000   0.00000  Uiso   1.00
C92    C     0.19275   0.85982   0.00000   0.00000  Uiso   1.00
C93    C     0.28174   0.94271   0.00000   0.00000  Uiso   1.00
H94    H     0.07940   0.73109   0.00000   0.00000  Uiso   1.00
C95    C     0.16174   0.80188   0.00000   0.00000  Uiso   1.00
C96    C     0.25031   0.88541   0.00000   0.00000  Uiso   1.00
C97    C     0.19005   0.76907   0.00000   0.00000  Uiso   1.00
C98    C     0.27740   0.85159   0.00000   0.00000  Uiso   1.00
O99    O     0.16180   0.71918   0.00000   0.00000  Uiso   1.00
N100   N     0.24708   0.79495   0.00000   0.00000  Uiso   1.00
O101   O     0.32758   0.87459   0.00000   0.00000  Uiso   1.00
N102   N     0.27808   0.76751   0.00000   0.00000  Uiso   1.00
H103   H     0.21859   0.68631   0.00000   0.00000  Uiso   1.00
C104   C     0.26160   0.71528   0.00000   0.00000  Uiso   1.00
H105   H     0.36838   0.80432   0.00000   0.00000  Uiso   1.00
C106   C     0.30029   0.69237   0.00000   0.00000  Uiso   1.00
O107   O     0.38780   0.78276   0.00000   0.00000  Uiso   1.00
C108   C     0.35903   0.72492   0.00000   0.00000  Uiso   1.00
loop_
_geom_bond_atom_site_label_1
_geom_bond_atom_site_label_2
_geom_bond_distance
_geom_bond_site_symmetry_2
_ccdc_geom_bond_type
O1     C4      1.399   .     S
O1     H7      1.003   1_565 S
C2     C6      1.406   .     D
C2     N8      1.454   .     S
C2     C90     1.434   .     S
H3     C93     1.083   .     S
C4     C81     1.416   .     S
C4     C45     1.427   1_565 D
N5     N8      1.410   .     S
N5     C10     1.304   1_565 D
C6     C93     1.387   .     S
C6     H11     1.083   1_565 S
H7     O1      1.003   1_545 S
N8     H12     1.047   1_565 S
C9     C10     1.511   .     S
C9     C76     1.427   .     D
C9     C40     1.416   1_545 S
C10    H85     0.973   .     S
C10    N5      1.304   1_545 D
H11    C6      1.083   1_545 S
H12    N8      1.047   1_545 S
H13    C46     0.973   .     S
H14    C16     1.057   .     S
H15    C17     1.024   .     S
C16    C17     1.392   .     S
C16    C18     1.406   .     D
C17    C19     1.387   .     D
C18    C20     1.432   .     S
C18    C38     1.434   .     S
C19    H22     1.083   .     S
C19    C23     1.401   .     S
C20    C23     1.410   .     D
C20    C24     1.402   .     S
C21    C24     1.395   .     D
C21    H39     1.083   .     S
C21    C42     1.387   .     S
C23    C25     1.487   .     S
C24    C26     1.484   .     S
C25    O27     1.216   .     D
C25    N28     1.388   .     S
C26    N28     1.378   .     S
C26    O29     1.221   .     D
N28    N30     1.422   .     S
N30    C32     1.298   .     D
H31    C32     1.066   .     S
C32    C34     1.514   .     S
H33    O35     0.997   .     S
C34    C36     1.431   .     S
C34    C72     1.421   .     D
O35    C36     1.406   .     S
C36    C106    1.421   .     D
O37    C40     1.399   .     S
O37    H43     1.003   1_455 S
C38    C42     1.406   .     D
C38    N44     1.454   .     S
C40    C9      1.416   1_565 S
C40    C81     1.427   1_455 D
N41    N44     1.410   .     S
N41    C46     1.304   1_455 D
C42    H47     1.083   1_455 S
H43    O37     1.003   1_655 S
N44    H48     1.047   1_455 S
C45    C46     1.511   .     S
C45    C4      1.427   1_545 D
C45    C76     1.416   1_655 S
C46    N41     1.304   1_655 D
H47    C42     1.083   1_655 S
H48    N44     1.047   1_655 S
H49    C82     0.973   .     S
H50    C52     1.057   .     S
H51    C53     1.024   .     S
C52    C53     1.392   .     S
C52    C54     1.406   .     D
C53    C55     1.387   .     D
C54    C56     1.432   .     S
C54    C74     1.434   .     S
C55    H58     1.083   .     S
C55    C59     1.401   .     S
C56    C59     1.410   .     D
C56    C60     1.402   .     S
C57    C60     1.395   .     D
C57    H75     1.083   .     S
C57    C78     1.387   .     S
C59    C61     1.487   .     S
C60    C62     1.484   .     S
C61    O63     1.216   .     D
C61    N64     1.388   .     S
C62    N64     1.378   .     S
C62    O65     1.221   .     D
N64    N66     1.422   .     S
N66    C68     1.298   .     D
H67    C68     1.066   .     S
C68    C70     1.514   .     S
H69    O71     0.997   .     S
C70    C72     1.431   .     S
C70    C108    1.421   .     D
O71    C72     1.406   .     S
O73    C76     1.399   .     S
O73    H79     1.003   .     S
C74    C78     1.406   .     D
C74    N80     1.454   .     S
C76    C45     1.416   1_455 S
N77    N80     1.410   .     S
N77    C82     1.304   .     D
C78    H83     1.083   .     S
N80    H84     1.047   .     S
C81    C82     1.511   .     S
C81    C40     1.427   1_655 D
H86    C88     1.057   .     S
H87    C89     1.024   .     S
C88    C89     1.392   .     S
C88    C90     1.406   .     D
C89    C91     1.387   .     D
C90    C92     1.432   .     S
C91    H94     1.083   .     S
C91    C95     1.401   .     S
C92    C95     1.410   .     D
C92    C96     1.402   .     S
C93    C96     1.395   .     D
C95    C97     1.487   .     S
C96    C98     1.484   .     S
C97    O99     1.216   .     D
C97    N100    1.388   .     S
C98    N100    1.378   .     S
C98    O101    1.221   .     D
N100   N102    1.422   .     S
N102   C104    1.298   .     D
H103   C104    1.066   .     S
C104   C106    1.514   .     S
H105   O107    0.997   .     S
C106   C108    1.431   .     S
O107   C108    1.406   .     S
