data_1103
_audit_creation_date              2023-09-08
_audit_creation_method            'Materials Studio'
_symmetry_space_group_name_H-M    'P1'
_symmetry_Int_Tables_number       1
_symmetry_cell_setting            triclinic
loop_
_symmetry_equiv_pos_as_xyz
  x,y,z
_cell_length_a                    29.9768
_cell_length_b                    29.9768
_cell_length_c                    4.0500
_cell_angle_alpha                 90.0000
_cell_angle_beta                  90.0000
_cell_angle_gamma                 120.0000
loop_
_atom_site_label
_atom_site_type_symbol
_atom_site_fract_x
_atom_site_fract_y
_atom_site_fract_z
_atom_site_U_iso_or_equiv
_atom_site_adp_type
_atom_site_occupancy
C11    C     0.38452   0.68117   0.00000   0.00000  Uiso   1.00
C22    C     0.37028   0.71809   0.00000   0.00000  Uiso   1.00
C33    C     0.46064   0.44889   0.00000   0.00000  Uiso   1.00
C44    C     0.45091   0.48889   0.00000   0.00000  Uiso   1.00
C55    C     0.47330   0.58010   0.00000   0.00000  Uiso   1.00
C66    C     0.48846   0.54037   0.00000   0.00000  Uiso   1.00
C77    C     0.36233   0.59081   0.00000   0.00000  Uiso   1.00
H88    H     0.58406   0.64189   0.00000   0.00000  Uiso   1.00
O99    O     0.50598   0.62574   0.00000   0.00000  Uiso   1.00
O1010  O     0.58358   0.59752   0.00000   0.00000  Uiso   1.00
N1111  N     0.42285   0.56648   0.00000   0.00000  Uiso   1.00
N1212  N     0.40942   0.60320   0.00000   0.00000  Uiso   1.00
H1313  H     0.59052   0.51921   0.00000   0.00000  Uiso   1.00
H1414  H     0.39268   0.52515   0.00000   0.00000  Uiso   1.00
H1515  H     0.26595   0.57294   0.00000   0.00000  Uiso   1.00
H1616  H     0.33111   0.54846   0.00000   0.00000  Uiso   1.00
C1717  C     0.31883   0.70335   0.00000   0.00000  Uiso   1.00
C1818  C     0.28191   0.65219   0.00000   0.00000  Uiso   1.00
C1919  C     0.55111   0.01175   0.00000   0.00000  Uiso   1.00
C2020  C     0.51111   0.96201   0.00000   0.00000  Uiso   1.00
C2121  C     0.41990   0.89320   0.00000   0.00000  Uiso   1.00
C2222  C     0.45963   0.94809   0.00000   0.00000  Uiso   1.00
C2323  C     0.40919   0.77152   0.00000   0.00000  Uiso   1.00
H2424  H     0.35811   0.94217   0.00000   0.00000  Uiso   1.00
O2525  O     0.37426   0.88024   0.00000   0.00000  Uiso   1.00
O2626  O     0.40248   0.98606   0.00000   0.00000  Uiso   1.00
N2727  N     0.43352   0.85637   0.00000   0.00000  Uiso   1.00
N2828  N     0.39680   0.80622   0.00000   0.00000  Uiso   1.00
H2929  H     0.48283   0.05788  -0.22123   0.00000  Uiso   1.00
H3030  H     0.47485   0.86753   0.00000   0.00000  Uiso   1.00
H3131  H     0.42706   0.69301   0.00000   0.00000  Uiso   1.00
H3232  H     0.45154   0.78265   0.00000   0.00000  Uiso   1.00
C3333  C     0.29665   0.61548   0.00000   0.00000  Uiso   1.00
C3434  C     0.34781   0.62972   0.00000   0.00000  Uiso   1.00
C3535  C     0.98825   0.53936   0.00000   0.00000  Uiso   1.00
C3636  C     0.03799   0.54909   0.00000   0.00000  Uiso   1.00
C3737  C     0.10680   0.52670   0.00000   0.00000  Uiso   1.00
C3838  C     0.05191   0.51154   0.00000   0.00000  Uiso   1.00
C3939  C     0.22848   0.63767   0.00000   0.00000  Uiso   1.00
H4040  H     0.05783   0.41594   0.00000   0.00000  Uiso   1.00
O4141  O     0.11976   0.49402   0.00000   0.00000  Uiso   1.00
O4242  O     0.01394   0.41642   0.00000   0.00000  Uiso   1.00
N4343  N     0.14363   0.57715   0.00000   0.00000  Uiso   1.00
N4444  N     0.19378   0.59058   0.00000   0.00000  Uiso   1.00
H4545  H     0.94212   0.42496  -0.22123   0.00000  Uiso   1.00
H4646  H     0.13247   0.60732   0.00000   0.00000  Uiso   1.00
H4747  H     0.30699   0.73405   0.00000   0.00000  Uiso   1.00
H4848  H     0.21735   0.66889   0.00000   0.00000  Uiso   1.00
C4949  C     0.61548   0.31883   0.00000   0.00000  Uiso   1.00
C5050  C     0.62972   0.28191   0.00000   0.00000  Uiso   1.00
C5151  C     0.53936   0.55111   0.00000   0.00000  Uiso   1.00
C5252  C     0.54909   0.51111   0.00000   0.00000  Uiso   1.00
C5353  C     0.52670   0.41990   0.00000   0.00000  Uiso   1.00
C5454  C     0.51154   0.45963   0.00000   0.00000  Uiso   1.00
C5555  C     0.63767   0.40919   0.00000   0.00000  Uiso   1.00
H5656  H     0.41594   0.35811   0.00000   0.00000  Uiso   1.00
O5757  O     0.49402   0.37426   0.00000   0.00000  Uiso   1.00
O5858  O     0.41642   0.40248   0.00000   0.00000  Uiso   1.00
N5959  N     0.57715   0.43352   0.00000   0.00000  Uiso   1.00
N6060  N     0.59058   0.39680   0.00000   0.00000  Uiso   1.00
H6161  H     0.40948   0.48079   0.00000   0.00000  Uiso   1.00
H6262  H     0.60732   0.47485   0.00000   0.00000  Uiso   1.00
H6363  H     0.73405   0.42706   0.00000   0.00000  Uiso   1.00
H6464  H     0.66889   0.45154   0.00000   0.00000  Uiso   1.00
C6565  C     0.68117   0.29665   0.00000   0.00000  Uiso   1.00
C6666  C     0.71809   0.34781   0.00000   0.00000  Uiso   1.00
C6767  C     0.44889   0.98825   0.00000   0.00000  Uiso   1.00
C6868  C     0.48889   0.03799   0.00000   0.00000  Uiso   1.00
C6969  C     0.58010   0.10680   0.00000   0.00000  Uiso   1.00
C7070  C     0.54037   0.05191   0.00000   0.00000  Uiso   1.00
C7171  C     0.59081   0.22848   0.00000   0.00000  Uiso   1.00
H7272  H     0.64189   0.05783   0.00000   0.00000  Uiso   1.00
O7373  O     0.62574   0.11976   0.00000   0.00000  Uiso   1.00
O7474  O     0.59752   0.01394   0.00000   0.00000  Uiso   1.00
N7575  N     0.56648   0.14363   0.00000   0.00000  Uiso   1.00
N7676  N     0.60320   0.19378   0.00000   0.00000  Uiso   1.00
H7777  H     0.51717   0.94212  -0.22123   0.00000  Uiso   1.00
H7878  H     0.52515   0.13247   0.00000   0.00000  Uiso   1.00
H7979  H     0.57294   0.30699   0.00000   0.00000  Uiso   1.00
H8080  H     0.54846   0.21735   0.00000   0.00000  Uiso   1.00
C8181  C     0.70335   0.38452   0.00000   0.00000  Uiso   1.00
C8282  C     0.65219   0.37028   0.00000   0.00000  Uiso   1.00
C8383  C     0.01175   0.46064   0.00000   0.00000  Uiso   1.00
C8484  C     0.96201   0.45091   0.00000   0.00000  Uiso   1.00
C8585  C     0.89320   0.47330   0.00000   0.00000  Uiso   1.00
C8686  C     0.94809   0.48846   0.00000   0.00000  Uiso   1.00
C8787  C     0.77152   0.36233   0.00000   0.00000  Uiso   1.00
H8888  H     0.94217   0.58406   0.00000   0.00000  Uiso   1.00
O8989  O     0.88024   0.50598   0.00000   0.00000  Uiso   1.00
O9090  O     0.98606   0.58358   0.00000   0.00000  Uiso   1.00
N9191  N     0.85637   0.42285   0.00000   0.00000  Uiso   1.00
N9292  N     0.80622   0.40942   0.00000   0.00000  Uiso   1.00
H9393  H     0.05788   0.57504  -0.22123   0.00000  Uiso   1.00
H9494  H     0.86753   0.39268   0.00000   0.00000  Uiso   1.00
H9595  H     0.69301   0.26595   0.00000   0.00000  Uiso   1.00
H9696  H     0.78265   0.33111   0.00000   0.00000  Uiso   1.00
H9797  H     0.51995   0.94586   0.22983   0.00000  Uiso   1.00
H9898  H     0.05414   0.57409   0.22983   0.00000  Uiso   1.00
H9999  H     0.48005   0.05414   0.22983   0.00000  Uiso   1.00
H100100 H     0.94586   0.42591   0.22983   0.00000  Uiso   1.00
loop_
_geom_bond_atom_site_label_1
_geom_bond_atom_site_label_2
_geom_bond_distance
_geom_bond_site_symmetry_2
_ccdc_geom_bond_type
C11    C22     1.371   .     S
C11    H3131   1.140   .     S
C11    C3434   1.376   .     D
C22    C1717   1.376   .     D
C22    C2323   1.434   .     S
C33    C44     1.368   .     S
C33    C5454   1.393   .     S
C33    O5858   1.360   .     D
C44    C66     1.383   .     D
C44    H6161   1.140   .     S
C55    C66     1.472   .     S
C55    O99     1.221   .     D
C55    N1111   1.355   .     S
C66    C5151   1.393   .     S
C77    N1212   1.267   .     D
C77    H1616   1.140   .     S
C77    C3434   1.434   .     S
O1010  C5151   1.360   .     D
N1111  N1212   1.348   .     S
N1111  H1414   1.110   .     S
H1313  C5252   1.140   .     S
H1515  C3333   1.140   .     S
C1717  C1818   1.371   .     S
C1717  H4747   1.140   .     S
C1818  C3333   1.376   .     D
C1818  C3939   1.434   .     S
C1919  C7070   1.393   .     S
C1919  O7474   1.360   .     D
C1919  C2020   1.369   1_545 S
C2020  C2222   1.383   .     S
C2020  H7777   1.140   .     S
C2020  H9797   1.140   .     S
C2020  C1919   1.369   1_565 S
C2121  C2222   1.472   .     D
C2121  O2525   1.221   .     S
C2121  N2727   1.355   .     S
C2222  C6767   1.393   .     S
C2323  N2828   1.267   .     D
C2323  H3232   1.140   .     S
O2626  C6767   1.360   .     D
N2727  N2828   1.348   .     S
N2727  H3030   1.110   .     S
H2929  C6868   1.140   .     S
C3333  C3434   1.371   .     S
C3535  C8686   1.393   .     S
C3535  O9090   1.360   .     D
C3535  C3636   1.369   1_655 S
C3636  C3838   1.382   .     S
C3636  H9393   1.140   .     S
C3636  H9898   1.140   .     S
C3636  C3535   1.369   1_455 S
C3737  C3838   1.472   .     D
C3737  O4141   1.221   .     S
C3737  N4343   1.355   .     S
C3838  C8383   1.393   .     S
C3939  N4444   1.267   .     D
C3939  H4848   1.140   .     S
O4242  C8383   1.360   .     D
N4343  N4444   1.348   .     S
N4343  H4646   1.110   .     S
H4545  C8484   1.140   .     S
C4949  C5050   1.371   .     D
C4949  H7979   1.140   .     S
C4949  C8282   1.376   .     S
C5050  C6565   1.376   .     S
C5050  C7171   1.434   .     S
C5151  C5252   1.368   .     S
C5252  C5454   1.383   .     D
C5353  C5454   1.472   .     S
C5353  O5757   1.221   .     D
C5353  N5959   1.355   .     S
C5555  N6060   1.267   .     D
C5555  H6464   1.140   .     S
C5555  C8282   1.434   .     S
N5959  N6060   1.348   .     S
N5959  H6262   1.110   .     S
H6363  C8181   1.140   .     S
C6565  C6666   1.371   .     D
C6565  H9595   1.140   .     S
C6666  C8181   1.376   .     S
C6666  C8787   1.434   .     S
C6767  C6868   1.369   1_565 S
C6868  C7070   1.383   .     S
C6868  H9999   1.140   .     S
C6868  C6767   1.369   1_545 S
C6969  C7070   1.472   .     D
C6969  O7373   1.221   .     S
C6969  N7575   1.355   .     S
C7171  N7676   1.267   .     D
C7171  H8080   1.140   .     S
N7575  N7676   1.348   .     S
N7575  H7878   1.110   .     S
C8181  C8282   1.371   .     D
C8383  C8484   1.369   1_455 S
C8484  C8686   1.382   .     S
C8484  H100100  1.140   .     S
C8484  C8383   1.369   1_655 S
C8585  C8686   1.472   .     D
C8585  O8989   1.221   .     S
C8585  N9191   1.355   .     S
C8787  N9292   1.267   .     D
C8787  H9696   1.140   .     S
N9191  N9292   1.348   .     S
N9191  H9494   1.110   .     S
