data_1104
_audit_creation_date              2023-09-08
_audit_creation_method            'Materials Studio'
_symmetry_space_group_name_H-M    'P1'
_symmetry_Int_Tables_number       1
_symmetry_cell_setting            triclinic
loop_
_symmetry_equiv_pos_as_xyz
  x,y,z
_cell_length_a                    27.5000
_cell_length_b                    27.5000
_cell_length_c                    6.8000
_cell_angle_alpha                 90.0000
_cell_angle_beta                  90.0000
_cell_angle_gamma                 120.0000
loop_
_atom_site_label
_atom_site_type_symbol
_atom_site_fract_x
_atom_site_fract_y
_atom_site_fract_z
_atom_site_U_iso_or_equiv
_atom_site_adp_type
_atom_site_occupancy
C11    C     0.46820   0.50416   0.18991   0.00000  Uiso   1.00
C22    C     0.47516   0.58541   0.18690   0.00000  Uiso   1.00
C33    C     0.42025   0.56315   0.18559   0.00000  Uiso   1.00
C44    C     0.38828   0.50832   0.18612   0.00000  Uiso   1.00
C55    C     0.41289   0.47862   0.18829   0.00000  Uiso   1.00
C66    C     0.34012   0.62655   0.18409   0.00000  Uiso   1.00
C77    C     0.35170   0.58623   0.18469   0.00000  Uiso   1.00
C88    C     0.28519   0.61172   0.18542   0.00000  Uiso   1.00
C99    C     0.02208   0.52546   0.18285   0.00000  Uiso   1.00
C1010  C     0.09631   0.51845   0.18908   0.00000  Uiso   1.00
C1111  C     0.12899   0.57336   0.18753   0.00000  Uiso   1.00
C1212  C     0.10618   0.60535   0.18420   0.00000  Uiso   1.00
C1313  C     0.05188   0.58077   0.18188   0.00000  Uiso   1.00
C1414  C     0.27250   0.65347   0.18562   0.00000  Uiso   1.00
C1515  C     0.22061   0.64190   0.18699   0.00000  Uiso   1.00
C1616  C     0.31261   0.70842   0.18395   0.00000  Uiso   1.00
C1717  C     0.48949   0.97168   0.18706   0.00000  Uiso   1.00
C1818  C     0.40828   0.89734   0.18416   0.00000  Uiso   1.00
C1919  C     0.43055   0.86469   0.18451   0.00000  Uiso   1.00
C2020  C     0.48537   0.88759   0.18600   0.00000  Uiso   1.00
C2121  C     0.51504   0.94191   0.18722   0.00000  Uiso   1.00
C2222  C     0.36707   0.72112   0.18328   0.00000  Uiso   1.00
C2323  C     0.40742   0.77300   0.18345   0.00000  Uiso   1.00
C2424  C     0.38187   0.68099   0.18312   0.00000  Uiso   1.00
C2525  C     0.49677   0.47512   0.19212   0.00000  Uiso   1.00
C2626  C     0.57764   0.48128   0.19246   0.00000  Uiso   1.00
C2727  C     0.55495   0.42631   0.19324   0.00000  Uiso   1.00
C2828  C     0.50010   0.39470   0.19450   0.00000  Uiso   1.00
C2929  C     0.47080   0.41978   0.19399   0.00000  Uiso   1.00
C3030  C     0.61910   0.34684   0.18878   0.00000  Uiso   1.00
C3131  C     0.57831   0.35778   0.19114   0.00000  Uiso   1.00
C3232  C     0.60497   0.29211   0.18785   0.00000  Uiso   1.00
C3333  C     0.51859   0.02932   0.18821   0.00000  Uiso   1.00
C3434  C     0.51256   0.10411   0.18872   0.00000  Uiso   1.00
C3535  C     0.56755   0.13636   0.18818   0.00000  Uiso   1.00
C3636  C     0.59908   0.11304   0.18826   0.00000  Uiso   1.00
C3737  C     0.57394   0.05866   0.18824   0.00000  Uiso   1.00
C3838  C     0.64715   0.28003   0.18584   0.00000  Uiso   1.00
C3939  C     0.63620   0.22829   0.18602   0.00000  Uiso   1.00
C4040  C     0.70187   0.32064   0.18333   0.00000  Uiso   1.00
C4141  C     0.96450   0.49697   0.17948   0.00000  Uiso   1.00
C4242  C     0.88977   0.41615   0.17464   0.00000  Uiso   1.00
C4343  C     0.85752   0.43886   0.17728   0.00000  Uiso   1.00
C4444  C     0.88081   0.49370   0.17993   0.00000  Uiso   1.00
C4545  C     0.93517   0.52297   0.18105   0.00000  Uiso   1.00
C4646  C     0.71396   0.37492   0.18355   0.00000  Uiso   1.00
C4747  C     0.76570   0.41567   0.18107   0.00000  Uiso   1.00
C4848  C     0.67336   0.38905   0.18686   0.00000  Uiso   1.00
N149   N     0.49864   0.55709   0.18907   0.00000  Uiso   1.00
N250   N     0.40154   0.59774   0.18405   0.00000  Uiso   1.00
N351   N     0.04451   0.49499   0.18687   0.00000  Uiso   1.00
N452   N     0.18229   0.59206   0.18864   0.00000  Uiso   1.00
N553   N     0.43657   0.94916   0.18548   0.00000  Uiso   1.00
N654   N     0.39595   0.81136   0.18340   0.00000  Uiso   1.00
N755   N     0.54974   0.50519   0.19177   0.00000  Uiso   1.00
N856   N     0.58944   0.40749   0.19226   0.00000  Uiso   1.00
N957   N     0.48859   0.05229   0.18877   0.00000  Uiso   1.00
N1058  N     0.58647   0.18970   0.18755   0.00000  Uiso   1.00
N1159  N     0.94159   0.44403   0.17558   0.00000  Uiso   1.00
N1260  N     0.80419   0.40443   0.17795   0.00000  Uiso   1.00
O161   O     0.24972   0.56311   0.18641   0.00000  Uiso   1.00
O262   O     0.29948   0.74388   0.18335   0.00000  Uiso   1.00
O363   O     0.43046   0.69411   0.18225   0.00000  Uiso   1.00
O464   O     0.55649   0.25623   0.18901   0.00000  Uiso   1.00
O565   O     0.73772   0.30802   0.18101   0.00000  Uiso   1.00
O666   O     0.68595   0.43751   0.18784   0.00000  Uiso   1.00
H167   H     0.50031   0.62839   0.18616   0.00000  Uiso   1.00
H268   H     0.34547   0.48936   0.18475   0.00000  Uiso   1.00
H369   H     0.42747   0.63945   0.18307   0.00000  Uiso   1.00
H470   H     0.31967   0.54541   0.18596   0.00000  Uiso   1.00
H571   H     0.11413   0.49331   0.19211   0.00000  Uiso   1.00
H672   H     0.13005   0.64816   0.18284   0.00000  Uiso   1.00
H773   H     0.19806   0.56613   0.18848   0.00000  Uiso   1.00
H874   H     0.21182   0.67393   0.18651   0.00000  Uiso   1.00
H975   H     0.36529   0.87946   0.18265   0.00000  Uiso   1.00
H1076  H     0.50435   0.86376   0.18621   0.00000  Uiso   1.00
H1177  H     0.35426   0.79560   0.18296   0.00000  Uiso   1.00
H1278  H     0.44822   0.78171   0.18378   0.00000  Uiso   1.00
H1379  H     0.38904   0.43583   0.18850   0.00000  Uiso   1.00
H1480  H     0.62066   0.50607   0.19206   0.00000  Uiso   1.00
H1581  H     0.48082   0.35187   0.19572   0.00000  Uiso   1.00
H1682  H     0.63117   0.43362   0.19094   0.00000  Uiso   1.00
H1783  H     0.53762   0.32546   0.19184   0.00000  Uiso   1.00
H1884  H     0.48777   0.12234   0.18894   0.00000  Uiso   1.00
H1985  H     0.64192   0.13656   0.18821   0.00000  Uiso   1.00
H2086  H     0.56038   0.20536   0.18815   0.00000  Uiso   1.00
H2187  H     0.66852   0.21992   0.18486   0.00000  Uiso   1.00
H2288  H     0.87155   0.37314   0.17204   0.00000  Uiso   1.00
H2389  H     0.85725   0.51298   0.18177   0.00000  Uiso   1.00
H2490  H     0.78849   0.36267   0.17815   0.00000  Uiso   1.00
H2591  H     0.77417   0.45640   0.18182   0.00000  Uiso   1.00
H2692  H     0.42800   0.39628   0.19498   0.00000  Uiso   1.00
H2793  H     0.95446   0.56576   0.18388   0.00000  Uiso   1.00
H2894  H     0.59744   0.03935   0.18797   0.00000  Uiso   1.00
H2995  H     0.03296   0.60461   0.17867   0.00000  Uiso   1.00
H3096  H     0.55782   0.96088   0.18825   0.00000  Uiso   1.00
loop_
_geom_bond_atom_site_label_1
_geom_bond_atom_site_label_2
_geom_bond_distance
_geom_bond_site_symmetry_2
_ccdc_geom_bond_type
C11    C55     1.319   .     D
C11    C2525   1.372   .     S
C11    N149    1.265   .     S
C22    C33     1.316   .     S
C22    N149    1.236   .     D
C22    H167    1.029   .     S
C33    C44     1.312   .     D
C33    N250    1.288   .     S
C44    C55     1.295   .     S
C44    H268    1.022   .     S
C55    H1379   1.021   .     S
C66    C77     1.298   .     D
C66    C88     1.354   .     S
C66    C2424   1.357   .     S
C77    N250    1.243   .     S
C77    H470    1.023   .     S
C88    C1414   1.357   .     S
C88    O161    1.198   .     D
C99    C1313   1.319   .     D
C99    N351    1.265   .     S
C99    C4141   1.372   1_455 S
C1010  C1111   1.316   .     S
C1010  N351    1.236   .     D
C1010  H571    1.028   .     S
C1111  C1212   1.311   .     D
C1111  N452    1.288   .     S
C1212  C1313   1.295   .     S
C1212  H672    1.022   .     S
C1313  H2995   1.021   .     S
C1414  C1515   1.298   .     D
C1414  C1616   1.354   .     S
C1515  N452    1.243   .     S
C1515  H874    1.023   .     S
C1616  C2222   1.357   .     S
C1616  O262    1.197   .     D
C1717  C2121   1.319   .     D
C1717  N553    1.265   .     S
C1717  C3333   1.373   1_565 S
C1818  C1919   1.316   .     S
C1818  N553    1.236   .     D
C1818  H975    1.029   .     S
C1919  C2020   1.311   .     D
C1919  N654    1.289   .     S
C2020  C2121   1.296   .     S
C2020  H1076   1.022   .     S
C2121  H3096   1.021   .     S
C2222  C2323   1.298   .     D
C2222  C2424   1.354   .     S
C2323  N654    1.243   .     S
C2323  H1278   1.023   .     S
C2424  O363    1.197   .     D
C2525  C2929   1.319   .     S
C2525  N755    1.265   .     D
C2626  C2727   1.316   .     D
C2626  N755    1.235   .     S
C2626  H1480   1.029   .     S
C2727  C2828   1.311   .     S
C2727  N856    1.288   .     S
C2828  C2929   1.296   .     D
C2828  H1581   1.022   .     S
C2929  H2692   1.021   .     S
C3030  C3131   1.299   .     D
C3030  C3232   1.353   .     S
C3030  C4848   1.357   .     S
C3131  N856    1.243   .     S
C3131  H1783   1.023   .     S
C3232  C3838   1.357   .     S
C3232  O464    1.198   .     D
C3333  C3737   1.319   .     S
C3333  N957    1.265   .     D
C3333  C1717   1.373   1_545 S
C3434  C3535   1.316   .     D
C3434  N957    1.235   .     S
C3434  H1884   1.029   .     S
C3535  C3636   1.311   .     S
C3535  N1058   1.288   .     S
C3636  C3737   1.296   .     D
C3636  H1985   1.022   .     S
C3737  H2894   1.021   .     S
C3838  C3939   1.299   .     D
C3838  C4040   1.353   .     S
C3939  N1058   1.243   .     S
C3939  H2187   1.024   .     S
C4040  C4646   1.357   .     S
C4040  O565    1.198   .     D
C4141  C4545   1.319   .     S
C4141  N1159   1.265   .     D
C4141  C99     1.372   1_655 S
C4242  C4343   1.316   .     D
C4242  N1159   1.235   .     S
C4242  H2288   1.028   .     S
C4343  C4444   1.311   .     S
C4343  N1260   1.288   .     S
C4444  C4545   1.296   .     D
C4444  H2389   1.022   .     S
C4545  H2793   1.021   .     S
C4646  C4747   1.299   .     D
C4646  C4848   1.353   .     S
C4747  N1260   1.242   .     S
C4747  H2591   1.024   .     S
C4848  O666    1.198   .     D
N250   H369    1.003   .     S
N452   H773    1.003   .     S
N654   H1177   1.003   .     S
N856   H1682   1.004   .     S
N1058  H2086   1.005   .     S
N1260  H2490   1.005   .     S
