data_1105
_audit_creation_date              2023-09-08
_audit_creation_method            'Materials Studio'
_symmetry_space_group_name_H-M    'P1'
_symmetry_Int_Tables_number       1
_symmetry_cell_setting            triclinic
loop_
_symmetry_equiv_pos_as_xyz
  x,y,z
_cell_length_a                    27.5000
_cell_length_b                    27.5000
_cell_length_c                    6.8000
_cell_angle_alpha                 90.0000
_cell_angle_beta                  90.0000
_cell_angle_gamma                 120.0000
loop_
_atom_site_label
_atom_site_type_symbol
_atom_site_fract_x
_atom_site_fract_y
_atom_site_fract_z
_atom_site_U_iso_or_equiv
_atom_site_adp_type
_atom_site_occupancy
C11    C     0.54277   0.48259   0.18854   0.00000  Uiso   1.00
C22    C     0.53774   0.58177   0.18807   0.00000  Uiso   1.00
C33    C     0.46986   0.54939   0.18856   0.00000  Uiso   1.00
C44    C     0.44423   0.48173   0.18883   0.00000  Uiso   1.00
C55    C     0.35477   0.62554   0.18883   0.00000  Uiso   1.00
C66    C     0.37767   0.58094   0.18876   0.00000  Uiso   1.00
C77    C     0.28191   0.59750   0.18899   0.00000  Uiso   1.00
C88    C     0.06138   0.54071   0.18866   0.00000  Uiso   1.00
C99    C     0.03260   0.57921   0.18812   0.00000  Uiso   1.00
C1010  C     0.25334   0.64044   0.18883   0.00000  Uiso   1.00
C1111  C     0.18643   0.61983   0.18874   0.00000  Uiso   1.00
C1212  C     0.29823   0.71270   0.18885   0.00000  Uiso   1.00
C1313  C     0.36908   0.74076   0.18877   0.00000  Uiso   1.00
C1414  C     0.39724   0.69651   0.18878   0.00000  Uiso   1.00
C1515  C     0.61903   0.36684   0.18875   0.00000  Uiso   1.00
C1616  C     0.57616   0.39182   0.18870   0.00000  Uiso   1.00
C1717  C     0.58553   0.29309   0.18880   0.00000  Uiso   1.00
C1818  C     0.43974   0.03170   0.18813   0.00000  Uiso   1.00
C1919  C     0.50733   0.06931   0.18859   0.00000  Uiso   1.00
C2020  C     0.62326   0.25952   0.18869   0.00000  Uiso   1.00
C2121  C     0.59783   0.19168   0.18868   0.00000  Uiso   1.00
C2222  C     0.69571   0.29870   0.18878   0.00000  Uiso   1.00
C2323  C     0.73086   0.37228   0.18877   0.00000  Uiso   1.00
C2424  C     0.69149   0.40509   0.18883   0.00000  Uiso   1.00
C2525  C     0.57319   0.55028   0.18805   0.00000  Uiso   1.00
C2626  C     0.40896   0.96489   0.18811   0.00000  Uiso   1.00
C2727  C     0.44222   0.93029   0.18860   0.00000  Uiso   1.00
C2828  C     0.50971   0.97263   0.18888   0.00000  Uiso   1.00
C2929  C     0.41324   0.80817   0.18873   0.00000  Uiso   1.00
C3030  C     0.96550   0.55097   0.18803   0.00000  Uiso   1.00
C3131  C     0.92263   0.48394   0.18857   0.00000  Uiso   1.00
C3232  C     0.95681   0.44998   0.18895   0.00000  Uiso   1.00
C3333  C     0.79884   0.39902   0.18876   0.00000  Uiso   1.00
N134   N     0.43920   0.58959   0.18867   0.00000  Uiso   1.00
N235   N     0.13032   0.56102   0.18882   0.00000  Uiso   1.00
N336   N     0.58440   0.45323   0.18872   0.00000  Uiso   1.00
N437   N     0.53631   0.13977   0.18871   0.00000  Uiso   1.00
N538   N     0.47863   0.45080   0.18885   0.00000  Uiso   1.00
N639   N     0.40312   0.85985   0.18873   0.00000  Uiso   1.00
N740   N     0.85292   0.45964   0.18867   0.00000  Uiso   1.00
N841   N     0.02133   0.47695   0.18899   0.00000  Uiso   1.00
N942   N     0.53994   0.03781   0.18889   0.00000  Uiso   1.00
O143   O     0.24494   0.53859   0.18933   0.00000  Uiso   1.00
O244   O     0.27678   0.75050   0.18903   0.00000  Uiso   1.00
O345   O     0.52596   0.25986   0.18901   0.00000  Uiso   1.00
O446   O     0.72727   0.27100   0.18893   0.00000  Uiso   1.00
O547   O     0.71901   0.46500   0.18899   0.00000  Uiso   1.00
O648   O     0.45651   0.71879   0.18878   0.00000  Uiso   1.00
H149   H     0.56452   0.63390   0.18758   0.00000  Uiso   1.00
H250   H     0.39264   0.44946   0.18897   0.00000  Uiso   1.00
H351   H     0.47253   0.63749   0.18856   0.00000  Uiso   1.00
H452   H     0.33916   0.53114   0.18871   0.00000  Uiso   1.00
H553   H     0.06100   0.63120   0.18774   0.00000  Uiso   1.00
H654   H     0.13649   0.52202   0.18896   0.00000  Uiso   1.00
H755   H     0.17845   0.66057   0.18853   0.00000  Uiso   1.00
H856   H     0.63161   0.48783   0.18866   0.00000  Uiso   1.00
H957   H     0.52604   0.35402   0.18860   0.00000  Uiso   1.00
H1058  H     0.41010   0.05399   0.18755   0.00000  Uiso   1.00
H1159  H     0.50236   0.15333   0.18853   0.00000  Uiso   1.00
H1260  H     0.63507   0.17861   0.18862   0.00000  Uiso   1.00
H1361  H     0.62515   0.57961   0.18757   0.00000  Uiso   1.00
H1462  H     0.35683   0.93886   0.18760   0.00000  Uiso   1.00
H1563  H     0.54232   0.95372   0.18912   0.00000  Uiso   1.00
H1664  H     0.35484   0.84391   0.18868   0.00000  Uiso   1.00
H1765  H     0.46325   0.82020   0.18867   0.00000  Uiso   1.00
H1866  H     0.94635   0.58340   0.18744   0.00000  Uiso   1.00
H1967  H     0.93120   0.39783   0.18916   0.00000  Uiso   1.00
H2068  H     0.84299   0.49604   0.18852   0.00000  Uiso   1.00
H2169  H     0.81023   0.36051   0.18880   0.00000  Uiso   1.00
loop_
_geom_bond_atom_site_label_1
_geom_bond_atom_site_label_2
_geom_bond_distance
_geom_bond_site_symmetry_2
_ccdc_geom_bond_type
C11    C2525   1.615   .     D
C11    N336    1.699   .     S
C11    N538    1.528   .     S
C22    C33     1.617   .     D
C22    C2525   1.595   .     S
C22    H149    1.242   .     S
C33    C44     1.627   .     S
C33    N134    1.693   .     S
C44    N538    1.557   .     D
C44    H250    1.241   .     S
C55    C66     1.635   .     D
C55    C77     1.750   .     S
C55    C1414   1.701   .     S
C66    N134    1.587   .     S
C66    H452    1.244   .     S
C77    C1010   1.714   .     S
C77    O143    1.418   .     D
C88    C99     1.608   .     D
C88    N235    1.687   .     S
C88    N841    1.535   .     S
C99    H553    1.240   .     S
C99    C3030   1.605   1_455 S
C1010  C1111   1.632   .     D
C1010  C1212   1.738   .     S
C1111  N235    1.581   .     S
C1111  H755    1.245   .     S
C1212  C1313   1.699   .     S
C1212  O244    1.429   .     D
C1313  C1414   1.739   .     S
C1313  C2929   1.631   .     D
C1414  O648    1.426   .     D
C1515  C1616   1.635   .     D
C1515  C1717   1.759   .     S
C1515  C2424   1.727   .     S
C1616  N336    1.588   .     S
C1616  H957    1.244   .     S
C1717  C2020   1.699   .     S
C1717  O345    1.422   .     D
C1818  C1919   1.613   .     D
C1818  H1058   1.241   .     S
C1818  C2626   1.593   1_545 S
C1919  N437    1.687   .     S
C1919  N942    1.527   .     S
C2020  C2121   1.632   .     D
C2020  C2222   1.727   .     S
C2121  N437    1.576   .     S
C2121  H1260   1.243   .     S
C2222  C2323   1.753   .     S
C2222  O446    1.412   .     D
C2323  C2424   1.721   .     S
C2323  C3333   1.631   .     D
C2424  O547    1.428   .     D
C2525  H1361   1.241   .     S
C2626  C2727   1.616   .     D
C2626  H1462   1.242   .     S
C2626  C1818   1.593   1_565 S
C2727  C2828   1.625   .     S
C2727  N639    1.681   .     S
C2828  H1563   1.241   .     S
C2828  N942    1.554   1_565 D
C2929  N639    1.579   .     S
C2929  H1765   1.243   .     S
C3030  C3131   1.617   .     D
C3030  H1866   1.242   .     S
C3030  C99     1.605   1_655 S
C3131  C3232   1.623   .     S
C3131  N740    1.685   .     S
C3232  H1967   1.242   .     S
C3232  N841    1.543   1_655 D
C3333  N740    1.585   .     S
C3333  H2169   1.246   .     S
N134   H351    1.170   .     S
N235   H654    1.167   .     S
N336   H856    1.164   .     S
N437   H1159   1.166   .     S
N639   H1664   1.172   .     S
N740   H2068   1.162   .     S
N841   C3232   1.543   1_455 D
N942   C2828   1.554   1_545 D
