data_1106
_audit_creation_date              2023-09-08
_audit_creation_method            'Materials Studio'
_symmetry_space_group_name_H-M    'P1'
_symmetry_Int_Tables_number       1
_symmetry_cell_setting            triclinic
loop_
_symmetry_equiv_pos_as_xyz
  x,y,z
_cell_length_a                    37.2861
_cell_length_b                    37.2861
_cell_length_c                    3.5349
_cell_angle_alpha                 90.0000
_cell_angle_beta                  90.0000
_cell_angle_gamma                 120.0000
loop_
_atom_site_label
_atom_site_type_symbol
_atom_site_fract_x
_atom_site_fract_y
_atom_site_fract_z
_atom_site_U_iso_or_equiv
_atom_site_adp_type
_atom_site_occupancy
C1     C     0.54801   0.61814   0.50000   0.00000  Uiso   1.00
C2     C     0.61328   0.36679   0.50000   0.00000  Uiso   1.00
C3     C     0.62960   0.40978   0.50000   0.00000  Uiso   1.00
C4     C     0.60324   0.42631   0.50000   0.00000  Uiso   1.00
C5     C     0.56010   0.39995   0.50000   0.00000  Uiso   1.00
C6     C     0.54382   0.35708   0.50000   0.00000  Uiso   1.00
C7     C     0.57020   0.34057   0.50000   0.00000  Uiso   1.00
C8     C     0.48205   0.52595   0.50000   0.00000  Uiso   1.00
O9     O     0.52623   0.54398   0.50000   0.00000  Uiso   1.00
C10    C     0.54215   0.51714   0.50000   0.00000  Uiso   1.00
C11    C     0.35891   0.65065   0.50000   0.00000  Uiso   1.00
C12    C     0.08956   0.54446   0.50000   0.00000  Uiso   1.00
N13    N     0.31740   0.62530   0.50000   0.00000  Uiso   1.00
N14    N     0.11639   0.53223   0.50000   0.00000  Uiso   1.00
O15    O     0.55755   0.58598   0.50000   0.00000  Uiso   1.00
H16    H     0.51501   0.61091   0.44043   0.00000  Uiso   1.00
H17    H     0.57331   0.65135   0.55957   0.00000  Uiso   1.00
H18    H     0.66457   0.43147   0.50000   0.00000  Uiso   1.00
H19    H     0.61673   0.46131   0.50000   0.00000  Uiso   1.00
H20    H     0.50885   0.33539   0.50000   0.00000  Uiso   1.00
H21    H     0.55673   0.30557   0.50000   0.00000  Uiso   1.00
H22    H     0.57708   0.53014   0.50000   0.00000  Uiso   1.00
H23    H     0.10037   0.57897   0.50000   0.00000  Uiso   1.00
C24    C     0.38186   0.92987   0.50000   0.00000  Uiso   1.00
C25    C     0.63321   0.24649   0.50000   0.00000  Uiso   1.00
C26    C     0.59022   0.21982   0.50000   0.00000  Uiso   1.00
C27    C     0.57369   0.17693   0.50000   0.00000  Uiso   1.00
C28    C     0.60005   0.16015   0.50000   0.00000  Uiso   1.00
C29    C     0.64292   0.18674   0.50000   0.00000  Uiso   1.00
C30    C     0.65943   0.22963   0.50000   0.00000  Uiso   1.00
C31    C     0.47405   0.95610   0.50000   0.00000  Uiso   1.00
O32    O     0.45602   0.98225   0.50000   0.00000  Uiso   1.00
C33    C     0.48286   0.02501   0.50000   0.00000  Uiso   1.00
C34    C     0.34935   0.70826   0.50000   0.00000  Uiso   1.00
C35    C     0.45554   0.54510   0.50000   0.00000  Uiso   1.00
N36    N     0.37470   0.69210   0.50000   0.00000  Uiso   1.00
N37    N     0.46777   0.58416   0.50000   0.00000  Uiso   1.00
O38    O     0.41402   0.97157   0.50000   0.00000  Uiso   1.00
H39    H     0.38909   0.90410   0.44043   0.00000  Uiso   1.00
H40    H     0.34865   0.92195   0.55957   0.00000  Uiso   1.00
H41    H     0.56853   0.23309   0.50000   0.00000  Uiso   1.00
H42    H     0.53869   0.15542   0.50000   0.00000  Uiso   1.00
H43    H     0.66461   0.17346   0.50000   0.00000  Uiso   1.00
H44    H     0.69443   0.25116   0.50000   0.00000  Uiso   1.00
H45    H     0.46986   0.04693   0.50000   0.00000  Uiso   1.00
H46    H     0.42103   0.52140   0.50000   0.00000  Uiso   1.00
C47    C     0.07013   0.45199   0.50000   0.00000  Uiso   1.00
C48    C     0.75351   0.38672   0.50000   0.00000  Uiso   1.00
C49    C     0.78018   0.37040   0.50000   0.00000  Uiso   1.00
C50    C     0.82307   0.39676   0.50000   0.00000  Uiso   1.00
C51    C     0.83985   0.43990   0.50000   0.00000  Uiso   1.00
C52    C     0.81326   0.45618   0.50000   0.00000  Uiso   1.00
C53    C     0.77037   0.42980   0.50000   0.00000  Uiso   1.00
C54    C     0.04390   0.51795   0.50000   0.00000  Uiso   1.00
O55    O     0.01775   0.47377   0.50000   0.00000  Uiso   1.00
C56    C     0.97499   0.45785   0.50000   0.00000  Uiso   1.00
C57    C     0.29174   0.64109   0.50000   0.00000  Uiso   1.00
C58    C     0.45490   0.91044   0.50000   0.00000  Uiso   1.00
N59    N     0.30790   0.68260   0.50000   0.00000  Uiso   1.00
N60    N     0.41584   0.88361   0.50000   0.00000  Uiso   1.00
O61    O     0.02843   0.44245   0.50000   0.00000  Uiso   1.00
H62    H     0.09590   0.48499   0.44043   0.00000  Uiso   1.00
H63    H     0.07805   0.42669   0.55957   0.00000  Uiso   1.00
H64    H     0.76691   0.33543   0.50000   0.00000  Uiso   1.00
H65    H     0.84458   0.38327   0.50000   0.00000  Uiso   1.00
H66    H     0.82654   0.49115   0.50000   0.00000  Uiso   1.00
H67    H     0.74884   0.44327   0.50000   0.00000  Uiso   1.00
H68    H     0.95307   0.42292   0.50000   0.00000  Uiso   1.00
H69    H     0.47860   0.89963   0.50000   0.00000  Uiso   1.00
C70    C     0.45199   0.38186   0.50000   0.00000  Uiso   1.00
C71    C     0.38672   0.63321   0.50000   0.00000  Uiso   1.00
C72    C     0.37040   0.59022   0.50000   0.00000  Uiso   1.00
C73    C     0.39676   0.57369   0.50000   0.00000  Uiso   1.00
C74    C     0.43990   0.60005   0.50000   0.00000  Uiso   1.00
C75    C     0.45618   0.64292   0.50000   0.00000  Uiso   1.00
C76    C     0.42980   0.65943   0.50000   0.00000  Uiso   1.00
C77    C     0.51795   0.47405   0.50000   0.00000  Uiso   1.00
O78    O     0.47377   0.45602   0.50000   0.00000  Uiso   1.00
C79    C     0.45785   0.48286   0.50000   0.00000  Uiso   1.00
C80    C     0.64109   0.34935   0.50000   0.00000  Uiso   1.00
C81    C     0.91044   0.45554   0.50000   0.00000  Uiso   1.00
N82    N     0.68260   0.37470   0.50000   0.00000  Uiso   1.00
N83    N     0.88361   0.46777   0.50000   0.00000  Uiso   1.00
O84    O     0.44245   0.41402   0.50000   0.00000  Uiso   1.00
H85    H     0.48499   0.38909   0.44043   0.00000  Uiso   1.00
H86    H     0.42669   0.34865   0.55957   0.00000  Uiso   1.00
H87    H     0.33543   0.56853   0.50000   0.00000  Uiso   1.00
H88    H     0.38327   0.53869   0.50000   0.00000  Uiso   1.00
H89    H     0.49115   0.66461   0.50000   0.00000  Uiso   1.00
H90    H     0.44327   0.69443   0.50000   0.00000  Uiso   1.00
H91    H     0.42292   0.46986   0.50000   0.00000  Uiso   1.00
H92    H     0.89963   0.42103   0.50000   0.00000  Uiso   1.00
C93    C     0.61814   0.07013   0.50000   0.00000  Uiso   1.00
C94    C     0.36679   0.75351   0.50000   0.00000  Uiso   1.00
C95    C     0.40978   0.78018   0.50000   0.00000  Uiso   1.00
C96    C     0.42631   0.82307   0.50000   0.00000  Uiso   1.00
C97    C     0.39995   0.83985   0.50000   0.00000  Uiso   1.00
C98    C     0.35708   0.81326   0.50000   0.00000  Uiso   1.00
C99    C     0.34057   0.77037   0.50000   0.00000  Uiso   1.00
C100   C     0.52595   0.04390   0.50000   0.00000  Uiso   1.00
O101   O     0.54398   0.01775   0.50000   0.00000  Uiso   1.00
C102   C     0.51714   0.97499   0.50000   0.00000  Uiso   1.00
C103   C     0.65065   0.29174   0.50000   0.00000  Uiso   1.00
C104   C     0.54446   0.45490   0.50000   0.00000  Uiso   1.00
N105   N     0.62530   0.30790   0.50000   0.00000  Uiso   1.00
N106   N     0.53223   0.41584   0.50000   0.00000  Uiso   1.00
O107   O     0.58598   0.02843   0.50000   0.00000  Uiso   1.00
H108   H     0.61091   0.09590   0.44043   0.00000  Uiso   1.00
H109   H     0.65135   0.07805   0.55957   0.00000  Uiso   1.00
H110   H     0.43147   0.76691   0.50000   0.00000  Uiso   1.00
H111   H     0.46131   0.84458   0.50000   0.00000  Uiso   1.00
H112   H     0.33539   0.82654   0.50000   0.00000  Uiso   1.00
H113   H     0.30557   0.74884   0.50000   0.00000  Uiso   1.00
H114   H     0.53014   0.95307   0.50000   0.00000  Uiso   1.00
H115   H     0.57897   0.47860   0.50000   0.00000  Uiso   1.00
C116   C     0.92987   0.54801   0.50000   0.00000  Uiso   1.00
C117   C     0.24649   0.61328   0.50000   0.00000  Uiso   1.00
C118   C     0.21982   0.62960   0.50000   0.00000  Uiso   1.00
C119   C     0.17693   0.60324   0.50000   0.00000  Uiso   1.00
C120   C     0.16015   0.56010   0.50000   0.00000  Uiso   1.00
C121   C     0.18674   0.54382   0.50000   0.00000  Uiso   1.00
C122   C     0.22963   0.57020   0.50000   0.00000  Uiso   1.00
C123   C     0.95610   0.48205   0.50000   0.00000  Uiso   1.00
O124   O     0.98225   0.52623   0.50000   0.00000  Uiso   1.00
C125   C     0.02501   0.54215   0.50000   0.00000  Uiso   1.00
C126   C     0.70826   0.35891   0.50000   0.00000  Uiso   1.00
C127   C     0.54510   0.08956   0.50000   0.00000  Uiso   1.00
N128   N     0.69210   0.31740   0.50000   0.00000  Uiso   1.00
N129   N     0.58416   0.11639   0.50000   0.00000  Uiso   1.00
O130   O     0.97157   0.55755   0.50000   0.00000  Uiso   1.00
H131   H     0.90410   0.51501   0.44043   0.00000  Uiso   1.00
H132   H     0.92195   0.57331   0.55957   0.00000  Uiso   1.00
H133   H     0.23309   0.66457   0.50000   0.00000  Uiso   1.00
H134   H     0.15542   0.61673   0.50000   0.00000  Uiso   1.00
H135   H     0.17346   0.50885   0.50000   0.00000  Uiso   1.00
H136   H     0.25116   0.55673   0.50000   0.00000  Uiso   1.00
H137   H     0.04693   0.57708   0.50000   0.00000  Uiso   1.00
H138   H     0.52140   0.10037   0.50000   0.00000  Uiso   1.00
loop_
_geom_bond_atom_site_label_1
_geom_bond_atom_site_label_2
_geom_bond_distance
_geom_bond_site_symmetry_2
_ccdc_geom_bond_type
C1     O15     1.411   .     D
C1     H16     1.140   .     S
C1     H17     1.140   .     S
C2     C3      1.402   .     S
C2     C7      1.402   .     D
C2     C80     1.474   .     S
C3     C4      1.397   .     D
C3     H18     1.140   .     S
C4     C5      1.404   .     S
C4     H19     1.140   .     S
C5     C6      1.398   .     D
C5     N106    1.431   .     S
C6     C7      1.397   .     S
C6     H20     1.140   .     S
C7     H21     1.140   .     S
C8     O9      1.435   .     S
C8     C35     1.481   .     S
C8     C79     1.395   .     D
O9     C10     1.396   .     S
O9     O15     1.410   .     S
C10    C77     1.395   .     D
C10    H22     1.140   .     S
C11    N13     1.351   .     D
C11    C71     1.474   .     S
C11    N36     1.351   .     S
C12    N14     1.290   .     D
C12    C54     1.481   .     S
C12    H23     1.140   .     S
N13    C57     1.351   .     S
N14    C120    1.431   .     S
C24    O38     1.411   .     D
C24    H39     1.140   .     S
C24    H40     1.140   .     S
C25    C26     1.402   .     D
C25    C30     1.402   .     S
C25    C103    1.474   .     S
C26    C27     1.397   .     S
C26    H41     1.140   .     S
C27    C28     1.404   .     D
C27    H42     1.140   .     S
C28    C29     1.398   .     S
C28    N129    1.431   .     S
C29    C30     1.397   .     D
C29    H43     1.140   .     S
C30    H44     1.140   .     S
C31    O32     1.435   .     S
C31    C58     1.481   .     S
C31    C102    1.395   .     D
O32    O38     1.410   .     S
O32    C33     1.396   1_565 S
C33    C100    1.395   .     D
C33    H45     1.140   .     S
C33    O32     1.396   1_545 S
C34    N36     1.351   .     D
C34    C94     1.474   .     S
C34    N59     1.351   .     S
C35    N37     1.290   .     D
C35    H46     1.140   .     S
N37    C74     1.431   .     S
C47    O61     1.411   .     D
C47    H62     1.140   .     S
C47    H63     1.140   .     S
C48    C49     1.402   .     D
C48    C53     1.402   .     S
C48    C126    1.474   .     S
C49    C50     1.397   .     S
C49    H64     1.140   .     S
C50    C51     1.404   .     D
C50    H65     1.140   .     S
C51    C52     1.398   .     S
C51    N83     1.431   .     S
C52    C53     1.397   .     D
C52    H66     1.140   .     S
C53    H67     1.140   .     S
C54    O55     1.435   .     S
C54    C125    1.395   .     D
O55    O61     1.410   .     S
O55    C56     1.396   1_455 S
C56    C123    1.395   .     D
C56    H68     1.140   .     S
C56    O55     1.396   1_655 S
C57    N59     1.351   .     D
C57    C117    1.474   .     S
C58    N60     1.290   .     D
C58    H69     1.140   .     S
N60    C97     1.431   .     S
C70    O84     1.411   .     D
C70    H85     1.140   .     S
C70    H86     1.140   .     S
C71    C72     1.402   .     S
C71    C76     1.402   .     D
C72    C73     1.397   .     D
C72    H87     1.140   .     S
C73    C74     1.404   .     S
C73    H88     1.140   .     S
C74    C75     1.398   .     D
C75    C76     1.397   .     S
C75    H89     1.140   .     S
C76    H90     1.140   .     S
C77    O78     1.435   .     S
C77    C104    1.481   .     S
O78    C79     1.396   .     S
O78    O84     1.410   .     S
C79    H91     1.140   .     S
C80    N82     1.351   .     D
C80    N105    1.351   .     S
C81    N83     1.290   .     D
C81    C123    1.481   .     S
C81    H92     1.140   .     S
N82    C126    1.351   .     S
C93    O107    1.411   .     D
C93    H108    1.140   .     S
C93    H109    1.140   .     S
C94    C95     1.402   .     D
C94    C99     1.402   .     S
C95    C96     1.397   .     S
C95    H110    1.140   .     S
C96    C97     1.404   .     D
C96    H111    1.140   .     S
C97    C98     1.398   .     S
C98    C99     1.397   .     D
C98    H112    1.140   .     S
C99    H113    1.140   .     S
C100   O101    1.435   .     S
C100   C127    1.481   .     S
O101   O107    1.410   .     S
O101   C102    1.396   1_545 S
C102   H114    1.140   .     S
C102   O101    1.396   1_565 S
C103   N105    1.351   .     D
C103   N128    1.351   .     S
C104   N106    1.290   .     D
C104   H115    1.140   .     S
C116   O130    1.411   .     D
C116   H131    1.140   .     S
C116   H132    1.140   .     S
C117   C118    1.402   .     D
C117   C122    1.402   .     S
C118   C119    1.397   .     S
C118   H133    1.140   .     S
C119   C120    1.404   .     D
C119   H134    1.140   .     S
C120   C121    1.398   .     S
C121   C122    1.397   .     D
C121   H135    1.140   .     S
C122   H136    1.140   .     S
C123   O124    1.435   .     S
O124   O130    1.410   .     S
O124   C125    1.396   1_655 S
C125   H137    1.140   .     S
C125   O124    1.396   1_455 S
C126   N128    1.351   .     D
C127   N129    1.290   .     D
C127   H138    1.140   .     S
