data_1107
_audit_creation_date              2023-09-08
_audit_creation_method            'Materials Studio'
_symmetry_space_group_name_H-M    'P1'
_symmetry_Int_Tables_number       1
_symmetry_cell_setting            triclinic
loop_
_symmetry_equiv_pos_as_xyz
  x,y,z
_cell_length_a                    37.2861
_cell_length_b                    37.2861
_cell_length_c                    3.5349
_cell_angle_alpha                 90.0000
_cell_angle_beta                  90.0000
_cell_angle_gamma                 120.0000
loop_
_atom_site_label
_atom_site_type_symbol
_atom_site_fract_x
_atom_site_fract_y
_atom_site_fract_z
_atom_site_U_iso_or_equiv
_atom_site_adp_type
_atom_site_occupancy
C1     C     0.54801   0.61814   0.14145   0.00000  Uiso   1.00
C2     C     0.61328   0.36679   0.14145   0.00000  Uiso   1.00
C3     C     0.62960   0.40978   0.14145   0.00000  Uiso   1.00
C4     C     0.60324   0.42631   0.14145   0.00000  Uiso   1.00
C5     C     0.56010   0.39995   0.14145   0.00000  Uiso   1.00
C6     C     0.54382   0.35708   0.14145   0.00000  Uiso   1.00
C7     C     0.57020   0.34057   0.14145   0.00000  Uiso   1.00
C8     C     0.48205   0.52595   0.14145   0.00000  Uiso   1.00
O9     O     0.52623   0.54398   0.14145   0.00000  Uiso   1.00
C10    C     0.54215   0.51714   0.14145   0.00000  Uiso   1.00
C11    C     0.35891   0.65065   0.14145   0.00000  Uiso   1.00
C12    C     0.08956   0.54446   0.14145   0.00000  Uiso   1.00
N13    N     0.31740   0.62530   0.14145   0.00000  Uiso   1.00
N14    N     0.11639   0.53223   0.14145   0.00000  Uiso   1.00
O15    O     0.55755   0.58598   0.14145   0.00000  Uiso   1.00
C16    C     0.85576   0.38303   0.14145   0.00000  Uiso   1.00
C17    C     0.90307   0.41189   0.14145   0.00000  Uiso   1.00
C18    C     0.83929   0.33603   0.14145   0.00000  Uiso   1.00
C19    C     0.80137   0.30715   0.14145   0.00000  Uiso   1.00
C20    C     0.78490   0.26015   0.14145   0.00000  Uiso   1.00
C21    C     0.80636   0.24204   0.14145   0.00000  Uiso   1.00
C22    C     0.84429   0.27093   0.14145   0.00000  Uiso   1.00
C23    C     0.86075   0.31792   0.14145   0.00000  Uiso   1.00
H24    H     0.51501   0.61091   0.08188   0.00000  Uiso   1.00
H25    H     0.57331   0.65135   0.20102   0.00000  Uiso   1.00
H26    H     0.66457   0.43147   0.14145   0.00000  Uiso   1.00
H27    H     0.50885   0.33539   0.14145   0.00000  Uiso   1.00
H28    H     0.55673   0.30557   0.14145   0.00000  Uiso   1.00
H29    H     0.57708   0.53014   0.14145   0.00000  Uiso   1.00
H30    H     0.92443   0.39823   0.14145   0.00000  Uiso   1.00
H31    H     0.77563   0.31521   0.14145   0.00000  Uiso   1.00
H32    H     0.75011   0.23755   0.14145   0.00000  Uiso   1.00
H33    H     0.79022   0.20678   0.14145   0.00000  Uiso   1.00
H34    H     0.87003   0.26288   0.14145   0.00000  Uiso   1.00
H35    H     0.89554   0.34052   0.14145   0.00000  Uiso   1.00
C36    C     0.38186   0.92987   0.14145   0.00000  Uiso   1.00
C37    C     0.63321   0.24649   0.14145   0.00000  Uiso   1.00
C38    C     0.59022   0.21982   0.14145   0.00000  Uiso   1.00
C39    C     0.57369   0.17693   0.14145   0.00000  Uiso   1.00
C40    C     0.60005   0.16015   0.14145   0.00000  Uiso   1.00
C41    C     0.64292   0.18674   0.14145   0.00000  Uiso   1.00
C42    C     0.65943   0.22963   0.14145   0.00000  Uiso   1.00
C43    C     0.47405   0.95610   0.14145   0.00000  Uiso   1.00
O44    O     0.45602   0.98225   0.14145   0.00000  Uiso   1.00
C45    C     0.48286   0.02501   0.14145   0.00000  Uiso   1.00
C46    C     0.34935   0.70826   0.14145   0.00000  Uiso   1.00
C47    C     0.45554   0.54510   0.14145   0.00000  Uiso   1.00
N48    N     0.37470   0.69210   0.14145   0.00000  Uiso   1.00
N49    N     0.46777   0.58416   0.14145   0.00000  Uiso   1.00
O50    O     0.41402   0.97157   0.14145   0.00000  Uiso   1.00
C51    C     0.61697   0.47273   0.14145   0.00000  Uiso   1.00
C52    C     0.58811   0.49118   0.14145   0.00000  Uiso   1.00
C53    C     0.66397   0.50326   0.14145   0.00000  Uiso   1.00
C54    C     0.69285   0.49422   0.14145   0.00000  Uiso   1.00
C55    C     0.73985   0.52475   0.14145   0.00000  Uiso   1.00
C56    C     0.75796   0.56432   0.14145   0.00000  Uiso   1.00
C57    C     0.72907   0.57336   0.14145   0.00000  Uiso   1.00
C58    C     0.68208   0.54283   0.14145   0.00000  Uiso   1.00
H59    H     0.38909   0.90410   0.08188   0.00000  Uiso   1.00
H60    H     0.34865   0.92195   0.20102   0.00000  Uiso   1.00
H61    H     0.56853   0.23309   0.14145   0.00000  Uiso   1.00
H62    H     0.66461   0.17346   0.14145   0.00000  Uiso   1.00
H63    H     0.69443   0.25116   0.14145   0.00000  Uiso   1.00
H64    H     0.46986   0.04693   0.14145   0.00000  Uiso   1.00
H65    H     0.60177   0.52620   0.14145   0.00000  Uiso   1.00
H66    H     0.68479   0.46042   0.14145   0.00000  Uiso   1.00
H67    H     0.76245   0.51256   0.14145   0.00000  Uiso   1.00
H68    H     0.79322   0.58344   0.14145   0.00000  Uiso   1.00
H69    H     0.73712   0.60716   0.14145   0.00000  Uiso   1.00
H70    H     0.65948   0.55502   0.14145   0.00000  Uiso   1.00
C71    C     0.07013   0.45199   0.14145   0.00000  Uiso   1.00
C72    C     0.75351   0.38672   0.14145   0.00000  Uiso   1.00
C73    C     0.78018   0.37040   0.14145   0.00000  Uiso   1.00
C74    C     0.82307   0.39676   0.14145   0.00000  Uiso   1.00
C75    C     0.83985   0.43990   0.14145   0.00000  Uiso   1.00
C76    C     0.81326   0.45618   0.14145   0.00000  Uiso   1.00
C77    C     0.77037   0.42980   0.14145   0.00000  Uiso   1.00
C78    C     0.04390   0.51795   0.14145   0.00000  Uiso   1.00
O79    O     0.01775   0.47377   0.14145   0.00000  Uiso   1.00
C80    C     0.97499   0.45785   0.14145   0.00000  Uiso   1.00
C81    C     0.29174   0.64109   0.14145   0.00000  Uiso   1.00
C82    C     0.45490   0.91044   0.14145   0.00000  Uiso   1.00
N83    N     0.30790   0.68260   0.14145   0.00000  Uiso   1.00
N84    N     0.41584   0.88361   0.14145   0.00000  Uiso   1.00
O85    O     0.02843   0.44245   0.14145   0.00000  Uiso   1.00
C86    C     0.52727   0.14424   0.14145   0.00000  Uiso   1.00
C87    C     0.50882   0.09693   0.14145   0.00000  Uiso   1.00
C88    C     0.49674   0.16071   0.14145   0.00000  Uiso   1.00
C89    C     0.50578   0.19863   0.14145   0.00000  Uiso   1.00
C90    C     0.47525   0.21510   0.14145   0.00000  Uiso   1.00
C91    C     0.43568   0.19364   0.14145   0.00000  Uiso   1.00
C92    C     0.42664   0.15571   0.14145   0.00000  Uiso   1.00
C93    C     0.45717   0.13925   0.14145   0.00000  Uiso   1.00
H94    H     0.09590   0.48499   0.08188   0.00000  Uiso   1.00
H95    H     0.07805   0.42669   0.20102   0.00000  Uiso   1.00
H96    H     0.76691   0.33543   0.14145   0.00000  Uiso   1.00
H97    H     0.82654   0.49115   0.14145   0.00000  Uiso   1.00
H98    H     0.74884   0.44327   0.14145   0.00000  Uiso   1.00
H99    H     0.95307   0.42292   0.14145   0.00000  Uiso   1.00
H100   H     0.47380   0.07557   0.14145   0.00000  Uiso   1.00
H101   H     0.53958   0.22437   0.14145   0.00000  Uiso   1.00
H102   H     0.48744   0.24989   0.14145   0.00000  Uiso   1.00
H103   H     0.41656   0.20978   0.14145   0.00000  Uiso   1.00
H104   H     0.39284   0.12997   0.14145   0.00000  Uiso   1.00
H105   H     0.44498   0.10446   0.14145   0.00000  Uiso   1.00
C106   C     0.45199   0.38186   0.14145   0.00000  Uiso   1.00
C107   C     0.38672   0.63321   0.14145   0.00000  Uiso   1.00
C108   C     0.37040   0.59022   0.14145   0.00000  Uiso   1.00
C109   C     0.39676   0.57369   0.14145   0.00000  Uiso   1.00
C110   C     0.43990   0.60005   0.14145   0.00000  Uiso   1.00
C111   C     0.45618   0.64292   0.14145   0.00000  Uiso   1.00
C112   C     0.42980   0.65943   0.14145   0.00000  Uiso   1.00
C113   C     0.51795   0.47405   0.14145   0.00000  Uiso   1.00
O114   O     0.47377   0.45602   0.14145   0.00000  Uiso   1.00
C115   C     0.45785   0.48286   0.14145   0.00000  Uiso   1.00
C116   C     0.64109   0.34935   0.14145   0.00000  Uiso   1.00
C117   C     0.91044   0.45554   0.14145   0.00000  Uiso   1.00
N118   N     0.68260   0.37470   0.14145   0.00000  Uiso   1.00
N119   N     0.88361   0.46777   0.14145   0.00000  Uiso   1.00
O120   O     0.44245   0.41402   0.14145   0.00000  Uiso   1.00
C121   C     0.14424   0.61697   0.14145   0.00000  Uiso   1.00
C122   C     0.09693   0.58811   0.14145   0.00000  Uiso   1.00
C123   C     0.16071   0.66397   0.14145   0.00000  Uiso   1.00
C124   C     0.19863   0.69285   0.14145   0.00000  Uiso   1.00
C125   C     0.21510   0.73985   0.14145   0.00000  Uiso   1.00
C126   C     0.19364   0.75796   0.14145   0.00000  Uiso   1.00
C127   C     0.15571   0.72907   0.14145   0.00000  Uiso   1.00
C128   C     0.13925   0.68208   0.14145   0.00000  Uiso   1.00
H129   H     0.48499   0.38909   0.08188   0.00000  Uiso   1.00
H130   H     0.42669   0.34865   0.20102   0.00000  Uiso   1.00
H131   H     0.33543   0.56853   0.14145   0.00000  Uiso   1.00
H132   H     0.49115   0.66461   0.14145   0.00000  Uiso   1.00
H133   H     0.44327   0.69443   0.14145   0.00000  Uiso   1.00
H134   H     0.42292   0.46986   0.14145   0.00000  Uiso   1.00
H135   H     0.07557   0.60177   0.14145   0.00000  Uiso   1.00
H136   H     0.22437   0.68479   0.14145   0.00000  Uiso   1.00
H137   H     0.24989   0.76245   0.14145   0.00000  Uiso   1.00
H138   H     0.20978   0.79322   0.14145   0.00000  Uiso   1.00
H139   H     0.12997   0.73712   0.14145   0.00000  Uiso   1.00
H140   H     0.10446   0.65948   0.14145   0.00000  Uiso   1.00
C141   C     0.61814   0.07013   0.14145   0.00000  Uiso   1.00
C142   C     0.36679   0.75351   0.14145   0.00000  Uiso   1.00
C143   C     0.40978   0.78018   0.14145   0.00000  Uiso   1.00
C144   C     0.42631   0.82307   0.14145   0.00000  Uiso   1.00
C145   C     0.39995   0.83985   0.14145   0.00000  Uiso   1.00
C146   C     0.35708   0.81326   0.14145   0.00000  Uiso   1.00
C147   C     0.34057   0.77037   0.14145   0.00000  Uiso   1.00
C148   C     0.52595   0.04390   0.14145   0.00000  Uiso   1.00
O149   O     0.54398   0.01775   0.14145   0.00000  Uiso   1.00
C150   C     0.51714   0.97499   0.14145   0.00000  Uiso   1.00
C151   C     0.65065   0.29174   0.14145   0.00000  Uiso   1.00
C152   C     0.54446   0.45490   0.14145   0.00000  Uiso   1.00
N153   N     0.62530   0.30790   0.14145   0.00000  Uiso   1.00
N154   N     0.53223   0.41584   0.14145   0.00000  Uiso   1.00
O155   O     0.58598   0.02843   0.14145   0.00000  Uiso   1.00
C156   C     0.38303   0.52727   0.14145   0.00000  Uiso   1.00
C157   C     0.41189   0.50882   0.14145   0.00000  Uiso   1.00
C158   C     0.33603   0.49674   0.14145   0.00000  Uiso   1.00
C159   C     0.30715   0.50578   0.14145   0.00000  Uiso   1.00
C160   C     0.26015   0.47525   0.14145   0.00000  Uiso   1.00
C161   C     0.24204   0.43568   0.14145   0.00000  Uiso   1.00
C162   C     0.27093   0.42664   0.14145   0.00000  Uiso   1.00
C163   C     0.31792   0.45717   0.14145   0.00000  Uiso   1.00
H164   H     0.61091   0.09590   0.08188   0.00000  Uiso   1.00
H165   H     0.65135   0.07805   0.20102   0.00000  Uiso   1.00
H166   H     0.43147   0.76691   0.14145   0.00000  Uiso   1.00
H167   H     0.33539   0.82654   0.14145   0.00000  Uiso   1.00
H168   H     0.30557   0.74884   0.14145   0.00000  Uiso   1.00
H169   H     0.53014   0.95307   0.14145   0.00000  Uiso   1.00
H170   H     0.39823   0.47380   0.14145   0.00000  Uiso   1.00
H171   H     0.31521   0.53958   0.14145   0.00000  Uiso   1.00
H172   H     0.23755   0.48744   0.14145   0.00000  Uiso   1.00
H173   H     0.20678   0.41656   0.14145   0.00000  Uiso   1.00
H174   H     0.26288   0.39284   0.14145   0.00000  Uiso   1.00
H175   H     0.34052   0.44498   0.14145   0.00000  Uiso   1.00
C176   C     0.92987   0.54801   0.14145   0.00000  Uiso   1.00
C177   C     0.24649   0.61328   0.14145   0.00000  Uiso   1.00
C178   C     0.21982   0.62960   0.14145   0.00000  Uiso   1.00
C179   C     0.17693   0.60324   0.14145   0.00000  Uiso   1.00
C180   C     0.16015   0.56010   0.14145   0.00000  Uiso   1.00
C181   C     0.18674   0.54382   0.14145   0.00000  Uiso   1.00
C182   C     0.22963   0.57020   0.14145   0.00000  Uiso   1.00
C183   C     0.95610   0.48205   0.14145   0.00000  Uiso   1.00
O184   O     0.98225   0.52623   0.14145   0.00000  Uiso   1.00
C185   C     0.02501   0.54215   0.14145   0.00000  Uiso   1.00
C186   C     0.70826   0.35891   0.14145   0.00000  Uiso   1.00
C187   C     0.54510   0.08956   0.14145   0.00000  Uiso   1.00
N188   N     0.69210   0.31740   0.14145   0.00000  Uiso   1.00
N189   N     0.58416   0.11639   0.14145   0.00000  Uiso   1.00
O190   O     0.97157   0.55755   0.14145   0.00000  Uiso   1.00
C191   C     0.47273   0.85576   0.14145   0.00000  Uiso   1.00
C192   C     0.49118   0.90307   0.14145   0.00000  Uiso   1.00
C193   C     0.50326   0.83929   0.14145   0.00000  Uiso   1.00
C194   C     0.49422   0.80137   0.14145   0.00000  Uiso   1.00
C195   C     0.52475   0.78490   0.14145   0.00000  Uiso   1.00
C196   C     0.56432   0.80636   0.14145   0.00000  Uiso   1.00
C197   C     0.57336   0.84429   0.14145   0.00000  Uiso   1.00
C198   C     0.54283   0.86075   0.14145   0.00000  Uiso   1.00
H199   H     0.90410   0.51501   0.08188   0.00000  Uiso   1.00
H200   H     0.92195   0.57331   0.20102   0.00000  Uiso   1.00
H201   H     0.23309   0.66457   0.14145   0.00000  Uiso   1.00
H202   H     0.17346   0.50885   0.14145   0.00000  Uiso   1.00
H203   H     0.25116   0.55673   0.14145   0.00000  Uiso   1.00
H204   H     0.04693   0.57708   0.14145   0.00000  Uiso   1.00
H205   H     0.52620   0.92443   0.14145   0.00000  Uiso   1.00
H206   H     0.46042   0.77563   0.14145   0.00000  Uiso   1.00
H207   H     0.51256   0.75011   0.14145   0.00000  Uiso   1.00
H208   H     0.58344   0.79022   0.14145   0.00000  Uiso   1.00
H209   H     0.60716   0.87003   0.14145   0.00000  Uiso   1.00
H210   H     0.55502   0.89554   0.14145   0.00000  Uiso   1.00
loop_
_geom_bond_atom_site_label_1
_geom_bond_atom_site_label_2
_geom_bond_distance
_geom_bond_site_symmetry_2
_ccdc_geom_bond_type
C1     O15     1.411   .     D
C1     H24     1.140   .     S
C1     H25     1.140   .     S
C2     C3      1.402   .     S
C2     C7      1.402   .     D
C2     C116    1.474   .     S
C3     C4      1.397   .     D
C3     H26     1.140   .     S
C4     C5      1.404   .     S
C4     C51     1.540   .     S
C5     C6      1.398   .     D
C5     N154    1.431   .     S
C6     C7      1.397   .     S
C6     H27     1.140   .     S
C7     H28     1.140   .     S
C8     O9      1.435   .     S
C8     C47     1.481   .     S
C8     C115    1.395   .     D
O9     C10     1.396   .     S
O9     O15     1.410   .     S
C10    C113    1.395   .     D
C10    H29     1.140   .     S
C11    N13     1.351   .     D
C11    C107    1.474   .     S
C11    N48     1.351   .     S
C12    N14     1.290   .     S
C12    C78     1.481   .     S
C12    C122    1.509   .     D
N13    C81     1.351   .     S
N14    C180    1.431   .     D
C16    C17     1.540   .     S
C16    C18     1.540   .     S
C16    C74     1.540   .     D
C17    C117    1.509   .     D
C17    H30     1.140   .     S
C18    C19     1.279   .     D
C18    C23     1.279   .     S
C19    C20     1.540   .     S
C19    H31     1.140   .     S
C20    C21     1.279   .     D
C20    H32     1.140   .     S
C21    C22     1.279   .     S
C21    H33     1.140   .     S
C22    C23     1.540   .     D
C22    H34     1.140   .     S
C23    H35     1.140   .     S
C36    O50     1.411   .     D
C36    H59     1.140   .     S
C36    H60     1.140   .     S
C37    C38     1.402   .     D
C37    C42     1.402   .     S
C37    C151    1.474   .     S
C38    C39     1.397   .     S
C38    H61     1.140   .     S
C39    C40     1.404   .     S
C39    C86     1.540   .     D
C40    C41     1.398   .     S
C40    N189    1.431   .     D
C41    C42     1.397   .     D
C41    H62     1.140   .     S
C42    H63     1.140   .     S
C43    O44     1.435   .     S
C43    C82     1.481   .     S
C43    C150    1.395   .     D
O44    O50     1.410   .     S
O44    C45     1.396   1_565 S
C45    C148    1.395   .     D
C45    H64     1.140   .     S
C45    O44     1.396   1_545 S
C46    N48     1.351   .     D
C46    C142    1.474   .     S
C46    N83     1.351   .     S
C47    N49     1.290   .     D
C47    C157    1.509   .     S
N49    C110    1.431   .     S
C51    C52     1.540   .     D
C51    C53     1.540   .     S
C52    C152    1.509   .     S
C52    H65     1.140   .     S
C53    C54     1.279   .     S
C53    C58     1.279   .     D
C54    C55     1.540   .     D
C54    H66     1.140   .     S
C55    C56     1.279   .     S
C55    H67     1.140   .     S
C56    C57     1.279   .     D
C56    H68     1.140   .     S
C57    C58     1.540   .     S
C57    H69     1.140   .     S
C58    H70     1.140   .     S
C71    O85     1.411   .     D
C71    H94     1.140   .     S
C71    H95     1.140   .     S
C72    C73     1.402   .     D
C72    C77     1.402   .     S
C72    C186    1.474   .     S
C73    C74     1.397   .     S
C73    H96     1.140   .     S
C74    C75     1.404   .     S
C75    C76     1.398   .     S
C75    N119    1.431   .     D
C76    C77     1.397   .     D
C76    H97     1.140   .     S
C77    H98     1.140   .     S
C78    O79     1.435   .     S
C78    C185    1.395   .     D
O79    O85     1.410   .     S
O79    C80     1.396   1_455 S
C80    C183    1.395   .     D
C80    H99     1.140   .     S
C80    O79     1.396   1_655 S
C81    N83     1.351   .     D
C81    C177    1.474   .     S
C82    N84     1.290   .     S
C82    C192    1.509   .     D
N84    C145    1.431   .     D
C86    C87     1.540   .     S
C86    C88     1.540   .     S
C87    C187    1.509   .     D
C87    H100    1.140   .     S
C88    C89     1.279   .     D
C88    C93     1.279   .     S
C89    C90     1.540   .     S
C89    H101    1.140   .     S
C90    C91     1.279   .     D
C90    H102    1.140   .     S
C91    C92     1.279   .     S
C91    H103    1.140   .     S
C92    C93     1.540   .     D
C92    H104    1.140   .     S
C93    H105    1.140   .     S
C106   O120    1.411   .     D
C106   H129    1.140   .     S
C106   H130    1.140   .     S
C107   C108    1.402   .     D
C107   C112    1.402   .     S
C108   C109    1.397   .     S
C108   H131    1.140   .     S
C109   C110    1.404   .     D
C109   C156    1.540   .     S
C110   C111    1.398   .     S
C111   C112    1.397   .     D
C111   H132    1.140   .     S
C112   H133    1.140   .     S
C113   O114    1.435   .     S
C113   C152    1.481   .     S
O114   C115    1.396   .     S
O114   O120    1.410   .     S
C115   H134    1.140   .     S
C116   N118    1.351   .     S
C116   N153    1.351   .     D
C117   N119    1.290   .     S
C117   C183    1.481   .     S
N118   C186    1.351   .     D
C121   C122    1.540   .     S
C121   C123    1.540   .     S
C121   C179    1.540   .     D
C122   H135    1.140   .     S
C123   C124    1.279   .     D
C123   C128    1.279   .     S
C124   C125    1.540   .     S
C124   H136    1.140   .     S
C125   C126    1.279   .     D
C125   H137    1.140   .     S
C126   C127    1.279   .     S
C126   H138    1.140   .     S
C127   C128    1.540   .     D
C127   H139    1.140   .     S
C128   H140    1.140   .     S
C141   O155    1.411   .     D
C141   H164    1.140   .     S
C141   H165    1.140   .     S
C142   C143    1.402   .     D
C142   C147    1.402   .     S
C143   C144    1.397   .     S
C143   H166    1.140   .     S
C144   C145    1.404   .     S
C144   C191    1.540   .     D
C145   C146    1.398   .     S
C146   C147    1.397   .     D
C146   H167    1.140   .     S
C147   H168    1.140   .     S
C148   O149    1.435   .     S
C148   C187    1.481   .     S
O149   O155    1.410   .     S
O149   C150    1.396   1_545 S
C150   H169    1.140   .     S
C150   O149    1.396   1_565 S
C151   N153    1.351   .     S
C151   N188    1.351   .     D
C152   N154    1.290   .     D
C156   C157    1.540   .     D
C156   C158    1.540   .     S
C157   H170    1.140   .     S
C158   C159    1.279   .     D
C158   C163    1.279   .     S
C159   C160    1.540   .     S
C159   H171    1.140   .     S
C160   C161    1.279   .     D
C160   H172    1.140   .     S
C161   C162    1.279   .     S
C161   H173    1.140   .     S
C162   C163    1.540   .     D
C162   H174    1.140   .     S
C163   H175    1.140   .     S
C176   O190    1.411   .     D
C176   H199    1.140   .     S
C176   H200    1.140   .     S
C177   C178    1.402   .     D
C177   C182    1.402   .     S
C178   C179    1.397   .     S
C178   H201    1.140   .     S
C179   C180    1.404   .     S
C180   C181    1.398   .     S
C181   C182    1.397   .     D
C181   H202    1.140   .     S
C182   H203    1.140   .     S
C183   O184    1.435   .     S
O184   O190    1.410   .     S
O184   C185    1.396   1_655 S
C185   H204    1.140   .     S
C185   O184    1.396   1_455 S
C186   N188    1.351   .     S
C187   N189    1.290   .     S
C191   C192    1.540   .     S
C191   C193    1.540   .     S
C192   H205    1.140   .     S
C193   C194    1.279   .     S
C193   C198    1.279   .     D
C194   C195    1.540   .     D
C194   H206    1.140   .     S
C195   C196    1.279   .     S
C195   H207    1.140   .     S
C196   C197    1.279   .     D
C196   H208    1.140   .     S
C197   C198    1.540   .     S
C197   H209    1.140   .     S
C198   H210    1.140   .     S
