data_1108
_audit_creation_date              2023-09-08
_audit_creation_method            'Materials Studio'
_symmetry_space_group_name_H-M    'P1'
_symmetry_Int_Tables_number       1
_symmetry_cell_setting            triclinic
loop_
_symmetry_equiv_pos_as_xyz
  x,y,z
_cell_length_a                    3.6340
_cell_length_b                    29.8839
_cell_length_c                    29.9621
_cell_angle_alpha                 120.0000
_cell_angle_beta                  90.0000
_cell_angle_gamma                 90.0000
loop_
_atom_site_label
_atom_site_type_symbol
_atom_site_fract_x
_atom_site_fract_y
_atom_site_fract_z
_atom_site_U_iso_or_equiv
_atom_site_adp_type
_atom_site_occupancy
C11    C    -0.09687   0.70502   0.39030   0.00000  Uiso   1.00
C22    C    -0.00267   0.72610   0.35615   0.00000  Uiso   1.00
C33    C     0.00910   0.68976   0.30004   0.00000  Uiso   1.00
C44    C    -0.12906   0.63612   0.27853   0.00000  Uiso   1.00
C55    C    -0.18107   0.61610   0.31454   0.00000  Uiso   1.00
C66    C    -0.08971   0.64887   0.36966   0.00000  Uiso   1.00
C77    C    -0.00758   0.63041   0.40142   0.00000  Uiso   1.00
C88    C    -0.20378   0.60517   0.22812   0.00000  Uiso   1.00
O99    O    -0.32576   0.57415   0.29932   0.00000  Uiso   1.00
O1010  O    -0.19387   0.73328   0.43468   0.00000  Uiso   1.00
C1111  C     0.07472   0.77626   0.37379   0.00000  Uiso   1.00
O1212  O     0.15329   0.70356   0.27206   0.00000  Uiso   1.00
N1313  N     0.13920   0.81242   0.42719   0.00000  Uiso   1.00
C1414  C     0.09309   0.86717   0.44908   0.00000  Uiso   1.00
C1515  C    -0.04968   0.89798   0.49954   0.00000  Uiso   1.00
C1616  C    -0.07840   0.95124   0.52037   0.00000  Uiso   1.00
C1717  C     0.02353   0.97504   0.49193   0.00000  Uiso   1.00
C1818  C     0.16216   0.94446   0.44203   0.00000  Uiso   1.00
C1919  C     0.20053   0.89130   0.42112   0.00000  Uiso   1.00
C2020  C    -0.02203   1.03145   0.51388   0.00000  Uiso   1.00
C2121  C     0.06860   1.06570   0.56536   0.00000  Uiso   1.00
C2222  C     0.02293   1.11881   0.58609   0.00000  Uiso   1.00
C2323  C    -0.12037   1.13888   0.55600   0.00000  Uiso   1.00
C2424  C    -0.20960   1.10447   0.50397   0.00000  Uiso   1.00
C2525  C    -0.15792   1.05134   0.48339   0.00000  Uiso   1.00
N2626  N    -0.16927   1.19357   0.57707   0.00000  Uiso   1.00
C2727  C    -0.15271   1.23066   0.63103   0.00000  Uiso   1.00
C2828  C    -0.06899   1.28082   0.64924   0.00000  Uiso   1.00
C2929  C    -0.09535   1.31743   0.70525   0.00000  Uiso   1.00
C3030  C    -0.02516   1.37309   0.72560   0.00000  Uiso   1.00
C3131  C    -0.04692   1.39234   0.68898   0.00000  Uiso   1.00
C3232  C     0.04723   1.35747   0.63425   0.00000  Uiso   1.00
C3333  C     0.05647   1.30137   0.61563   0.00000  Uiso   1.00
O3434  O    -0.15463   1.43622   0.70385   0.00000  Uiso   1.00
O3535  O     0.19001   1.27256   0.57355   0.00000  Uiso   1.00
C3636  C     0.12962   1.37459   0.60141   0.00000  Uiso   1.00
C3737  C     0.04430   1.40660   0.77545   0.00000  Uiso   1.00
O3838  O    -0.19863   1.30203   0.73407   0.00000  Uiso   1.00
N3939  N     0.20297   1.42789   0.61808   0.00000  Uiso   1.00
C4040  C     0.18396   1.44927   0.58443   0.00000  Uiso   1.00
C4141  C     0.05007   1.50005   0.60229   0.00000  Uiso   1.00
C4242  C     0.04948   1.52056   0.56939   0.00000  Uiso   1.00
C4343  C     0.17078   1.49148   0.51835   0.00000  Uiso   1.00
C4444  C     0.30147   1.44129   0.50077   0.00000  Uiso   1.00
C4545  C     0.31136   1.42063   0.53358   0.00000  Uiso   1.00
N4646  N     0.12652   1.39044   0.81225   0.00000  Uiso   1.00
C4747  C     0.07936   1.42354   0.86668   0.00000  Uiso   1.00
C4848  C    -0.06160   1.40425   0.89810   0.00000  Uiso   1.00
C4949  C    -0.09178   1.43702   0.95107   0.00000  Uiso   1.00
C5050  C     0.00798   1.48919   0.97396   0.00000  Uiso   1.00
C5151  C     0.14510   1.50812   0.94273   0.00000  Uiso   1.00
C5252  C     0.18380   1.47556   0.88981   0.00000  Uiso   1.00
N5353  N    -0.19797   0.62274   0.19131   0.00000  Uiso   1.00
C5454  C    -0.14368   0.58930   0.13694   0.00000  Uiso   1.00
N5555  N     0.05828   0.57664   0.38381   0.00000  Uiso   1.00
C5656  C     0.09478   0.55532   0.41743   0.00000  Uiso   1.00
C5757  C    -0.22917   0.60674   0.10205   0.00000  Uiso   1.00
C5858  C    -0.17447   0.57412   0.04919   0.00000  Uiso   1.00
C5959  C    -0.03855   0.52391   0.03011   0.00000  Uiso   1.00
C6060  C     0.04976   0.50697   0.06490   0.00000  Uiso   1.00
C6161  C     0.00033   0.53938   0.11771   0.00000  Uiso   1.00
C6262  C     0.00068   0.50321   0.39954   0.00000  Uiso   1.00
C6363  C     0.03050   0.48262   0.43247   0.00000  Uiso   1.00
C6464  C     0.15279   0.51311   0.48329   0.00000  Uiso   1.00
C6565  C     0.25296   0.56449   0.50058   0.00000  Uiso   1.00
C6666  C     0.22687   0.58528   0.46795   0.00000  Uiso   1.00
H6767  H     0.02704   0.65822   0.44181   0.00000  Uiso   1.00
H6868  H    -0.28765   0.56574   0.21509   0.00000  Uiso   1.00
H6969  H     0.10233   0.78915   0.34592   0.00000  Uiso   1.00
H7070  H     0.23604   0.79854   0.45099   0.00000  Uiso   1.00
O7171  O    -0.18404   0.87733   0.52926   0.00000  Uiso   1.00
H7272  H    -0.19494   0.97349   0.55843   0.00000  Uiso   1.00
H7373  H     0.24972   0.96185   0.41956   0.00000  Uiso   1.00
H7474  H     0.18328   1.05143   0.58933   0.00000  Uiso   1.00
O7575  O    -0.35681   1.12332   0.47333   0.00000  Uiso   1.00
H7676  H    -0.23253   1.02559   0.44382   0.00000  Uiso   1.00
H7777  H    -0.24479   1.20639   0.55144   0.00000  Uiso   1.00
H7878  H    -0.22775   1.21822   0.65822   0.00000  Uiso   1.00
H7979  H     0.15749   1.34640   0.56098   0.00000  Uiso   1.00
H8080  H     0.05484   1.44731   0.78749   0.00000  Uiso   1.00
H8181  H     0.28954   1.45202   0.65601   0.00000  Uiso   1.00
O8282  O    -0.10255   1.53038   0.65118   0.00000  Uiso   1.00
H8383  H    -0.06078   1.55891   0.58379   0.00000  Uiso   1.00
H8484  H     0.40508   1.41846   0.46195   0.00000  Uiso   1.00
H8585  H     0.22953   1.35320   0.79908   0.00000  Uiso   1.00
O8686  O    -0.19266   1.35391   0.87833   0.00000  Uiso   1.00
H8787  H    -0.20743   1.42148   0.97379   0.00000  Uiso   1.00
H8888  H     0.23086   1.54793   0.95941   0.00000  Uiso   1.00
H8989  H    -0.26656   0.66132   0.20387   0.00000  Uiso   1.00
H9090  H     0.07193   0.55028   0.34427   0.00000  Uiso   1.00
O9191  O    -0.37727   0.65601   0.12011   0.00000  Uiso   1.00
H9292  H    -0.24747   0.58771   0.02301   0.00000  Uiso   1.00
H9393  H     0.16475   0.46890   0.05130   0.00000  Uiso   1.00
O9494  O    -0.13321   0.47271   0.34952   0.00000  Uiso   1.00
H9595  H    -0.05184   0.44314   0.41864   0.00000  Uiso   1.00
H9696  H     0.35831   0.58838   0.53918   0.00000  Uiso   1.00
H9797  H    -0.41482   1.09596   0.43678   0.00000  Uiso   1.00
H9898  H     0.10693   1.14415   0.62538   0.00000  Uiso   1.00
H9999  H     0.32424   0.86924   0.38354   0.00000  Uiso   1.00
H100100 H    -0.19021   0.83831   0.51104   0.00000  Uiso   1.00
H101101 H     0.30499   1.49069   0.86706   0.00000  Uiso   1.00
H102102 H     0.08145   0.52567   0.14355   0.00000  Uiso   1.00
H103103 H    -0.19611   1.33277   0.83942   0.00000  Uiso   1.00
H104104 H    -0.43139   0.66509   0.09241   0.00000  Uiso   1.00
H105105 H     0.42927   1.38279   0.51963   0.00000  Uiso   1.00
H106106 H     0.31909   0.62437   0.48201   0.00000  Uiso   1.00
H107107 H    -0.13224   1.51209   0.67180   0.00000  Uiso   1.00
H108108 H    -0.20127   0.43628   0.34033   0.00000  Uiso   1.00
loop_
_geom_bond_atom_site_label_1
_geom_bond_atom_site_label_2
_geom_bond_distance
_geom_bond_site_symmetry_2
_ccdc_geom_bond_type
C11    C22     1.485   .     S
C11    C66     1.470   .     S
C11    O1010   1.218   .     D
C22    C33     1.477   .     S
C22    C1111   1.347   .     D
C33    C44     1.485   .     S
C33    O1212   1.222   .     D
C44    C55     1.484   .     S
C44    C88     1.347   .     D
C55    C66     1.476   .     S
C55    O99     1.218   .     D
C66    C77     1.351   .     D
C77    N5555   1.439   .     S
C77    H6767   1.079   .     S
C88    N5353   1.439   .     S
C88    H6868   1.083   .     S
C1111  N1313   1.433   .     S
C1111  H6969   1.085   .     S
N1313  C1414   1.436   .     S
N1313  H7070   1.049   .     S
C1414  C1515   1.418   .     D
C1414  C1919   1.407   .     S
C1515  C1616   1.393   .     S
C1515  O7171   1.401   .     S
C1616  C1717   1.405   .     D
C1616  H7272   1.079   .     S
C1717  C1818   1.399   .     S
C1717  C2020   1.481   .     S
C1818  C1919   1.393   .     D
C1818  H7373   1.084   .     S
C1919  H9999   1.078   .     S
C2020  C2121   1.399   .     D
C2020  C2525   1.405   .     S
C2121  C2222   1.395   .     S
C2121  H7474   1.085   .     S
C2222  C2323   1.409   .     D
C2222  H9898   1.077   .     S
C2323  C2424   1.411   .     S
C2323  N2626   1.439   .     S
C2424  C2525   1.399   .     D
C2424  O7575   1.401   .     S
C2525  H7676   1.077   .     S
N2626  C2727   1.433   .     S
N2626  H7777   1.052   .     S
C2727  C2828   1.349   .     D
C2727  H7878   1.086   .     S
C2828  C2929   1.479   .     S
C2828  C3333   1.489   .     S
C2929  C3030   1.480   .     S
C2929  O3838   1.223   .     D
C3030  C3131   1.474   .     S
C3030  C3737   1.342   .     D
C3131  C3232   1.478   .     S
C3131  O3434   1.219   .     D
C3232  C3333   1.479   .     S
C3232  C3636   1.350   .     D
C3333  O3535   1.217   .     D
C3636  N3939   1.436   .     S
C3636  H7979   1.080   .     S
C3737  N4646   1.439   .     S
C3737  H8080   1.083   .     S
N3939  C4040   1.440   .     S
N3939  H8181   1.045   .     S
C4040  C4141   1.419   .     D
C4040  C4545   1.401   .     S
C4141  C4242   1.397   .     S
C4141  O8282   1.395   .     S
C4242  C4343   1.400   .     D
C4242  H8383   1.080   .     S
C4343  C4444   1.401   .     S
C4343  C6464   1.485   1_565 S
C4444  C4545   1.399   .     D
C4444  H8484   1.080   .     S
C4545  H105105  1.079   .     S
N4646  C4747   1.433   .     S
N4646  H8585   1.047   .     S
C4747  C4848   1.423   .     D
C4747  C5252   1.401   .     S
C4848  C4949   1.391   .     S
C4848  O8686   1.396   .     S
C4949  C5050   1.401   .     D
C4949  H8787   1.083   .     S
C5050  C5151   1.405   .     S
C5050  C5959   1.480   1_566 S
C5151  C5252   1.392   .     D
C5151  H8888   1.081   .     S
C5252  H101101  1.082   .     S
N5353  C5454   1.436   .     S
N5353  H8989   1.048   .     S
C5454  C5757   1.416   .     D
C5454  C6161   1.404   .     S
N5555  C5656   1.442   .     S
N5555  H9090   1.046   .     S
C5656  C6262   1.412   .     D
C5656  C6666   1.403   .     S
C5757  C5858   1.398   .     S
C5757  O9191   1.398   .     S
C5858  C5959   1.402   .     D
C5858  H9292   1.081   .     S
C5959  C6060   1.405   .     S
C5959  C5050   1.480   1_544 S
C6060  C6161   1.393   .     D
C6060  H9393   1.082   .     S
C6161  H102102  1.082   .     S
C6262  C6363   1.404   .     S
C6262  O9494   1.396   .     S
C6363  C6464   1.400   .     D
C6363  H9595   1.079   .     S
C6464  C6565   1.401   .     S
C6464  C4343   1.485   1_545 S
C6565  C6666   1.399   .     D
C6565  H9696   1.081   .     S
C6666  H106106  1.078   .     S
O7171  H100100  1.011   .     S
O7575  H9797   1.008   .     S
O8282  H107107  1.015   .     S
O8686  H103103  1.011   .     S
O9191  H104104  1.013   .     S
O9494  H108108  1.011   .     S
