data_1109
_audit_creation_date              2023-09-08
_audit_creation_method            'Materials Studio'
_symmetry_space_group_name_H-M    'P1'
_symmetry_Int_Tables_number       1
_symmetry_cell_setting            triclinic
loop_
_symmetry_equiv_pos_as_xyz
  x,y,z
_cell_length_a                    37.2718
_cell_length_b                    37.2718
_cell_length_c                    3.5215
_cell_angle_alpha                 90.0000
_cell_angle_beta                  90.0000
_cell_angle_gamma                 120.0000
loop_
_atom_site_label
_atom_site_type_symbol
_atom_site_fract_x
_atom_site_fract_y
_atom_site_fract_z
_atom_site_U_iso_or_equiv
_atom_site_adp_type
_atom_site_occupancy
C1     C     0.29230   0.64430   0.53209   0.00000  Uiso   1.00
N2     N     0.31400   0.62411   0.53201   0.00000  Uiso   1.00
C3     C     0.24612   0.61888   0.53381   0.00000  Uiso   1.00
C4     C     0.36407   0.58523   0.44441   0.00000  Uiso   1.00
C5     C     0.38790   0.56622   0.44201   0.00000  Uiso   1.00
C6     C     0.43018   0.58860   0.53506   0.00000  Uiso   1.00
C7     C     0.44725   0.63075   0.62383   0.00000  Uiso   1.00
C8     C     0.42332   0.64954   0.62332   0.00000  Uiso   1.00
N9     N     0.45782   0.57286   0.52735   0.00000  Uiso   1.00
C10    C     0.44435   0.53335   0.54605   0.00000  Uiso   1.00
C11    C     0.47293   0.51680   0.53507   0.00000  Uiso   1.00
C12    C     0.45757   0.47360   0.52730   0.00000  Uiso   1.00
C13    C     0.48401   0.45726   0.53202   0.00000  Uiso   1.00
O14    O     0.41485   0.44859   0.51597   0.00000  Uiso   1.00
C15    C     0.60059   0.59331   0.39899   0.00000  Uiso   1.00
H16    H     0.33122   0.56728   0.37026   0.00000  Uiso   1.00
H17    H     0.37348   0.53360   0.36161   0.00000  Uiso   1.00
H18    H     0.48006   0.64882   0.69783   0.00000  Uiso   1.00
H19    H     0.43731   0.68240   0.69388   0.00000  Uiso   1.00
H20    H     0.41088   0.50982   0.57649   0.00000  Uiso   1.00
H21    H     0.47189   0.42389   0.53555   0.00000  Uiso   1.00
H22    H     0.58319   0.59474   0.15332   0.00000  Uiso   1.00
H23    H     0.63323   0.60615   0.32164   0.00000  Uiso   1.00
H24    H     0.59858   0.61241   0.62853   0.00000  Uiso   1.00
C25    C     0.35570   0.64800   0.53209   0.00000  Uiso   1.00
N26    N     0.37589   0.68989   0.53201   0.00000  Uiso   1.00
C27    C     0.38112   0.62724   0.53381   0.00000  Uiso   1.00
C28    C     0.41477   0.77884   0.44441   0.00000  Uiso   1.00
C29    C     0.43378   0.82168   0.44201   0.00000  Uiso   1.00
C30    C     0.41140   0.84158   0.53506   0.00000  Uiso   1.00
C31    C     0.36925   0.81650   0.62383   0.00000  Uiso   1.00
C32    C     0.35046   0.77378   0.62332   0.00000  Uiso   1.00
N33    N     0.42714   0.88496   0.52735   0.00000  Uiso   1.00
C34    C     0.46665   0.91100   0.54605   0.00000  Uiso   1.00
C35    C     0.48320   0.95613   0.53507   0.00000  Uiso   1.00
C36    C     0.52640   0.98397   0.52730   0.00000  Uiso   1.00
C37    C     0.54274   0.02675   0.53202   0.00000  Uiso   1.00
O38    O     0.55141   0.96626   0.51597   0.00000  Uiso   1.00
C39    C     0.40669   0.00728   0.39899   0.00000  Uiso   1.00
H40    H     0.43272   0.76394   0.37026   0.00000  Uiso   1.00
H41    H     0.46640   0.83988   0.36161   0.00000  Uiso   1.00
H42    H     0.35118   0.83124   0.69783   0.00000  Uiso   1.00
H43    H     0.31760   0.75491   0.69388   0.00000  Uiso   1.00
H44    H     0.49018   0.90106   0.57649   0.00000  Uiso   1.00
H45    H     0.57611   0.04800   0.53555   0.00000  Uiso   1.00
H46    H     0.40526   0.98845   0.15332   0.00000  Uiso   1.00
H47    H     0.39385   0.02708   0.32164   0.00000  Uiso   1.00
H48    H     0.38759   0.98617   0.62853   0.00000  Uiso   1.00
C49    C     0.35200   0.70770   0.53209   0.00000  Uiso   1.00
N50    N     0.31011   0.68600   0.53201   0.00000  Uiso   1.00
C51    C     0.37276   0.75388   0.53381   0.00000  Uiso   1.00
C52    C     0.22116   0.63593   0.44441   0.00000  Uiso   1.00
C53    C     0.17832   0.61210   0.44201   0.00000  Uiso   1.00
C54    C     0.15842   0.56982   0.53506   0.00000  Uiso   1.00
C55    C     0.18350   0.55275   0.62383   0.00000  Uiso   1.00
C56    C     0.22622   0.57668   0.62332   0.00000  Uiso   1.00
N57    N     0.11504   0.54218   0.52735   0.00000  Uiso   1.00
C58    C     0.08900   0.55565   0.54605   0.00000  Uiso   1.00
C59    C     0.04387   0.52707   0.53507   0.00000  Uiso   1.00
C60    C     0.01603   0.54243   0.52730   0.00000  Uiso   1.00
C61    C     0.97325   0.51599   0.53202   0.00000  Uiso   1.00
O62    O     0.03374   0.58515   0.51597   0.00000  Uiso   1.00
C63    C     0.99272   0.39941   0.39899   0.00000  Uiso   1.00
H64    H     0.23606   0.66878   0.37026   0.00000  Uiso   1.00
H65    H     0.16012   0.62652   0.36161   0.00000  Uiso   1.00
H66    H     0.16876   0.51994   0.69783   0.00000  Uiso   1.00
H67    H     0.24509   0.56269   0.69388   0.00000  Uiso   1.00
H68    H     0.09894   0.58912   0.57649   0.00000  Uiso   1.00
H69    H     0.95200   0.52811   0.53555   0.00000  Uiso   1.00
H70    H     0.01155   0.41681   0.15332   0.00000  Uiso   1.00
H71    H     0.97292   0.36677   0.32164   0.00000  Uiso   1.00
H72    H     0.01383   0.40142   0.62853   0.00000  Uiso   1.00
C73    C     0.70770   0.35570   0.53209   0.00000  Uiso   1.00
N74    N     0.68600   0.37589   0.53201   0.00000  Uiso   1.00
C75    C     0.75388   0.38112   0.53381   0.00000  Uiso   1.00
C76    C     0.63593   0.41477   0.44441   0.00000  Uiso   1.00
C77    C     0.61210   0.43378   0.44201   0.00000  Uiso   1.00
C78    C     0.56982   0.41140   0.53506   0.00000  Uiso   1.00
C79    C     0.55275   0.36925   0.62383   0.00000  Uiso   1.00
C80    C     0.57668   0.35046   0.62332   0.00000  Uiso   1.00
N81    N     0.54218   0.42714   0.52735   0.00000  Uiso   1.00
C82    C     0.55565   0.46665   0.54605   0.00000  Uiso   1.00
C83    C     0.52707   0.48320   0.53507   0.00000  Uiso   1.00
C84    C     0.54243   0.52640   0.52730   0.00000  Uiso   1.00
C85    C     0.51599   0.54274   0.53202   0.00000  Uiso   1.00
O86    O     0.58515   0.55141   0.51597   0.00000  Uiso   1.00
C87    C     0.39941   0.40669   0.39899   0.00000  Uiso   1.00
H88    H     0.66878   0.43272   0.37026   0.00000  Uiso   1.00
H89    H     0.62652   0.46640   0.36161   0.00000  Uiso   1.00
H90    H     0.51994   0.35118   0.69783   0.00000  Uiso   1.00
H91    H     0.56269   0.31760   0.69388   0.00000  Uiso   1.00
H92    H     0.58912   0.49018   0.57649   0.00000  Uiso   1.00
H93    H     0.52811   0.57611   0.53555   0.00000  Uiso   1.00
H94    H     0.41681   0.40526   0.15332   0.00000  Uiso   1.00
H95    H     0.36677   0.39385   0.32164   0.00000  Uiso   1.00
H96    H     0.40142   0.38759   0.62853   0.00000  Uiso   1.00
C97    C     0.64430   0.35200   0.53209   0.00000  Uiso   1.00
N98    N     0.62411   0.31011   0.53201   0.00000  Uiso   1.00
C99    C     0.61888   0.37276   0.53381   0.00000  Uiso   1.00
C100   C     0.58523   0.22116   0.44441   0.00000  Uiso   1.00
C101   C     0.56622   0.17832   0.44201   0.00000  Uiso   1.00
C102   C     0.58860   0.15842   0.53506   0.00000  Uiso   1.00
C103   C     0.63075   0.18350   0.62383   0.00000  Uiso   1.00
C104   C     0.64954   0.22622   0.62332   0.00000  Uiso   1.00
N105   N     0.57286   0.11504   0.52735   0.00000  Uiso   1.00
C106   C     0.53335   0.08900   0.54605   0.00000  Uiso   1.00
C107   C     0.51680   0.04387   0.53507   0.00000  Uiso   1.00
C108   C     0.47360   0.01603   0.52730   0.00000  Uiso   1.00
C109   C     0.45726   0.97325   0.53202   0.00000  Uiso   1.00
O110   O     0.44859   0.03374   0.51597   0.00000  Uiso   1.00
C111   C     0.59331   0.99272   0.39899   0.00000  Uiso   1.00
H112   H     0.56728   0.23606   0.37026   0.00000  Uiso   1.00
H113   H     0.53360   0.16012   0.36161   0.00000  Uiso   1.00
H114   H     0.64882   0.16876   0.69783   0.00000  Uiso   1.00
H115   H     0.68240   0.24509   0.69388   0.00000  Uiso   1.00
H116   H     0.50982   0.09894   0.57649   0.00000  Uiso   1.00
H117   H     0.42389   0.95200   0.53555   0.00000  Uiso   1.00
H118   H     0.59474   0.01155   0.15332   0.00000  Uiso   1.00
H119   H     0.60615   0.97292   0.32164   0.00000  Uiso   1.00
H120   H     0.61241   0.01383   0.62853   0.00000  Uiso   1.00
C121   C     0.64800   0.29230   0.53209   0.00000  Uiso   1.00
N122   N     0.68989   0.31400   0.53201   0.00000  Uiso   1.00
C123   C     0.62724   0.24612   0.53381   0.00000  Uiso   1.00
C124   C     0.77884   0.36407   0.44441   0.00000  Uiso   1.00
C125   C     0.82168   0.38790   0.44201   0.00000  Uiso   1.00
C126   C     0.84158   0.43018   0.53506   0.00000  Uiso   1.00
C127   C     0.81650   0.44725   0.62383   0.00000  Uiso   1.00
C128   C     0.77378   0.42332   0.62332   0.00000  Uiso   1.00
N129   N     0.88496   0.45782   0.52735   0.00000  Uiso   1.00
C130   C     0.91100   0.44435   0.54605   0.00000  Uiso   1.00
C131   C     0.95613   0.47293   0.53507   0.00000  Uiso   1.00
C132   C     0.98397   0.45757   0.52730   0.00000  Uiso   1.00
C133   C     0.02675   0.48401   0.53202   0.00000  Uiso   1.00
O134   O     0.96626   0.41485   0.51597   0.00000  Uiso   1.00
C135   C     0.00728   0.60059   0.39899   0.00000  Uiso   1.00
H136   H     0.76394   0.33122   0.37026   0.00000  Uiso   1.00
H137   H     0.83988   0.37348   0.36161   0.00000  Uiso   1.00
H138   H     0.83124   0.48006   0.69783   0.00000  Uiso   1.00
H139   H     0.75491   0.43731   0.69388   0.00000  Uiso   1.00
H140   H     0.90106   0.41088   0.57649   0.00000  Uiso   1.00
H141   H     0.04800   0.47189   0.53555   0.00000  Uiso   1.00
H142   H     0.98845   0.58319   0.15332   0.00000  Uiso   1.00
H143   H     0.02708   0.63323   0.32164   0.00000  Uiso   1.00
H144   H     0.98617   0.59858   0.62853   0.00000  Uiso   1.00
loop_
_geom_bond_atom_site_label_1
_geom_bond_atom_site_label_2
_geom_bond_distance
_geom_bond_site_symmetry_2
_ccdc_geom_bond_type
C1     N2      1.352   .     D
C1     C3      1.493   .     S
C1     N50     1.351   .     S
N2     C25     1.351   .     S
C3     C56     1.399   .     S
C3     C52     1.400   .     D
C4     C5      1.386   .     S
C4     H16     1.093   .     S
C4     C27     1.400   .     D
C5     C6      1.404   .     D
C5     H17     1.093   .     S
C6     C7      1.404   .     S
C6     N9      1.418   .     S
C7     C8      1.382   .     D
C7     H18     1.092   .     S
C8     H19     1.093   .     S
C8     C27     1.399   .     S
N9     C10     1.298   .     D
C10    C11     1.474   .     S
C10    H20     1.115   .     S
C11    C12     1.414   .     D
C11    C85     1.400   .     S
C12    C13     1.394   .     S
C12    O14     1.386   .     S
C13    H21     1.091   .     S
C13    C83     1.400   .     D
O14    C87     1.429   .     S
C15    H22     1.098   .     S
C15    H23     1.096   .     S
C15    H24     1.104   .     S
C15    O86     1.429   .     S
C25    N26     1.352   .     D
C25    C27     1.493   .     S
N26    C49     1.351   .     S
C28    C29     1.386   .     S
C28    H40     1.093   .     S
C28    C51     1.400   .     D
C29    C30     1.404   .     D
C29    H41     1.093   .     S
C30    C31     1.404   .     S
C30    N33     1.418   .     S
C31    C32     1.382   .     D
C31    H42     1.092   .     S
C32    H43     1.093   .     S
C32    C51     1.399   .     S
N33    C34     1.298   .     D
C34    C35     1.474   .     S
C34    H44     1.115   .     S
C35    C36     1.414   .     D
C35    C109    1.400   .     S
C36    O38     1.386   .     S
C36    C37     1.394   1_565 S
C37    H45     1.091   .     S
C37    C107    1.400   .     D
C37    C36     1.394   1_545 S
O38    C111    1.429   .     S
C39    H47     1.096   .     S
C39    O110    1.429   .     S
C39    H46     1.098   1_545 S
C39    H48     1.104   1_545 S
H46    C39     1.098   1_565 S
H48    C39     1.104   1_565 S
C49    N50     1.352   .     D
C49    C51     1.493   .     S
C52    C53     1.386   .     S
C52    H64     1.093   .     S
C53    C54     1.404   .     D
C53    H65     1.093   .     S
C54    C55     1.404   .     S
C54    N57     1.418   .     S
C55    C56     1.382   .     D
C55    H66     1.092   .     S
C56    H67     1.093   .     S
N57    C58     1.298   .     D
C58    C59     1.474   .     S
C58    H68     1.115   .     S
C59    C60     1.414   .     S
C59    C133    1.400   .     D
C60    O62     1.386   .     S
C60    C61     1.394   1_455 D
C61    H69     1.091   .     S
C61    C131    1.400   .     S
C61    C60     1.394   1_655 D
O62    C135    1.429   .     S
C63    H71     1.096   .     S
C63    O134    1.429   .     S
C63    H70     1.098   1_655 S
C63    H72     1.104   1_655 S
H70    C63     1.098   1_455 S
H72    C63     1.104   1_455 S
C73    N74     1.352   .     D
C73    C75     1.493   .     S
C73    N122    1.351   .     S
N74    C97     1.351   .     S
C75    C128    1.399   .     S
C75    C124    1.400   .     D
C76    C77     1.386   .     S
C76    H88     1.093   .     S
C76    C99     1.400   .     D
C77    C78     1.404   .     D
C77    H89     1.093   .     S
C78    C79     1.404   .     S
C78    N81     1.418   .     S
C79    C80     1.382   .     D
C79    H90     1.092   .     S
C80    H91     1.093   .     S
C80    C99     1.399   .     S
N81    C82     1.298   .     D
C82    C83     1.474   .     S
C82    H92     1.115   .     S
C83    C84     1.414   .     S
C84    C85     1.394   .     D
C84    O86     1.386   .     S
C85    H93     1.091   .     S
C87    H94     1.098   .     S
C87    H95     1.096   .     S
C87    H96     1.104   .     S
C97    N98     1.352   .     D
C97    C99     1.493   .     S
N98    C121    1.351   .     S
C100   C101    1.386   .     S
C100   H112    1.093   .     S
C100   C123    1.400   .     D
C101   C102    1.404   .     D
C101   H113    1.093   .     S
C102   C103    1.404   .     S
C102   N105    1.418   .     S
C103   C104    1.382   .     D
C103   H114    1.092   .     S
C104   H115    1.093   .     S
C104   C123    1.399   .     S
N105   C106    1.298   .     D
C106   C107    1.474   .     S
C106   H116    1.115   .     S
C107   C108    1.414   .     S
C108   O110    1.386   .     S
C108   C109    1.394   1_545 D
C109   H117    1.091   .     S
C109   C108    1.394   1_565 D
C111   H119    1.096   .     S
C111   H118    1.098   1_565 S
C111   H120    1.104   1_565 S
H118   C111    1.098   1_545 S
H120   C111    1.104   1_545 S
C121   N122    1.352   .     D
C121   C123    1.493   .     S
C124   C125    1.386   .     S
C124   H136    1.093   .     S
C125   C126    1.404   .     D
C125   H137    1.093   .     S
C126   C127    1.404   .     S
C126   N129    1.418   .     S
C127   C128    1.382   .     D
C127   H138    1.092   .     S
C128   H139    1.093   .     S
N129   C130    1.298   .     D
C130   C131    1.474   .     S
C130   H140    1.115   .     S
C131   C132    1.414   .     D
C132   O134    1.386   .     S
C132   C133    1.394   1_655 S
C133   H141    1.091   .     S
C133   C132    1.394   1_455 S
C135   H143    1.096   .     S
C135   H142    1.098   1_455 S
C135   H144    1.104   1_455 S
H142   C135    1.098   1_655 S
H144   C135    1.104   1_655 S
