data_111
_audit_creation_date              2023-09-08
_audit_creation_method            'Materials Studio'
_symmetry_space_group_name_H-M    'P1'
_symmetry_Int_Tables_number       1
_symmetry_cell_setting            triclinic
loop_
_symmetry_equiv_pos_as_xyz
  x,y,z
_cell_length_a                    27.9300
_cell_length_b                    31.3100
_cell_length_c                    7.8900
_cell_angle_alpha                 90.0000
_cell_angle_beta                  90.0000
_cell_angle_gamma                 90.0000
loop_
_atom_site_label
_atom_site_type_symbol
_atom_site_fract_x
_atom_site_fract_y
_atom_site_fract_z
_atom_site_U_iso_or_equiv
_atom_site_adp_type
_atom_site_occupancy
C1     C     0.04330   0.30580   0.89600   0.00000  Uiso   1.00
C2     C     0.04330   0.34090   0.78670   0.00000  Uiso   1.00
C3     C     0.93750   0.21140   0.26890   0.00000  Uiso   1.00
C4     C     0.90000   0.21140   0.38610   0.00000  Uiso   1.00
H5     H     0.07730   0.29230   0.93220   0.00000  Uiso   1.00
H6     H     0.07690   0.35370   0.74120   0.00000  Uiso   1.00
H7     H     0.95160   0.18100   0.22850   0.00000  Uiso   1.00
H8     H     0.88630   0.18140   0.43380   0.00000  Uiso   1.00
C9     C     0.04310   0.43610   0.26620   0.00000  Uiso   1.00
C10    C     0.04330   0.46710   0.13850   0.00000  Uiso   1.00
C11    C     0.80940   0.21150   0.94820   0.00000  Uiso   1.00
C12    C     0.78040   0.21140   0.09280   0.00000  Uiso   1.00
H13    H     0.07690   0.42380   0.31350   0.00000  Uiso   1.00
H14    H     0.07800   0.47720   0.09540   0.00000  Uiso   1.00
H15    H     0.82120   0.18150   0.89480   0.00000  Uiso   1.00
H16    H     0.77100   0.18040   0.14150   0.00000  Uiso   1.00
C17    C     0.54330   0.80580   0.39600   0.00000  Uiso   1.00
C18    C     0.54330   0.84090   0.28670   0.00000  Uiso   1.00
C19    C     0.43750   0.71140   0.76890   0.00000  Uiso   1.00
C20    C     0.40000   0.71140   0.88610   0.00000  Uiso   1.00
H21    H     0.57730   0.79230   0.43220   0.00000  Uiso   1.00
H22    H     0.57690   0.85370   0.24120   0.00000  Uiso   1.00
H23    H     0.45160   0.68100   0.72850   0.00000  Uiso   1.00
H24    H     0.38630   0.68140   0.93380   0.00000  Uiso   1.00
C25    C     0.54310   0.93610   0.76620   0.00000  Uiso   1.00
C26    C     0.54330   0.96710   0.63850   0.00000  Uiso   1.00
C27    C     0.30940   0.71150   0.44820   0.00000  Uiso   1.00
C28    C     0.28040   0.71140   0.59280   0.00000  Uiso   1.00
H29    H     0.57690   0.92380   0.81350   0.00000  Uiso   1.00
H30    H     0.57800   0.97720   0.59540   0.00000  Uiso   1.00
H31    H     0.32120   0.68150   0.39480   0.00000  Uiso   1.00
H32    H     0.27100   0.68040   0.64150   0.00000  Uiso   1.00
C33    C     0.95670   0.19420   0.89600   0.00000  Uiso   1.00
C34    C     0.95670   0.15910   0.78670   0.00000  Uiso   1.00
C35    C     0.06250   0.28860   0.26890   0.00000  Uiso   1.00
C36    C     0.10000   0.28860   0.38610   0.00000  Uiso   1.00
H37    H     0.92270   0.20770   0.93220   0.00000  Uiso   1.00
H38    H     0.92310   0.14630   0.74120   0.00000  Uiso   1.00
H39    H     0.04840   0.31900   0.22850   0.00000  Uiso   1.00
H40    H     0.11370   0.31860   0.43380   0.00000  Uiso   1.00
C41    C     0.95690   0.06390   0.26620   0.00000  Uiso   1.00
C42    C     0.95670   0.03290   0.13850   0.00000  Uiso   1.00
C43    C     0.19060   0.28850   0.94820   0.00000  Uiso   1.00
C44    C     0.21960   0.28860   0.09280   0.00000  Uiso   1.00
H45    H     0.92310   0.07620   0.31350   0.00000  Uiso   1.00
H46    H     0.92200   0.02280   0.09540   0.00000  Uiso   1.00
H47    H     0.17880   0.31850   0.89480   0.00000  Uiso   1.00
H48    H     0.22900   0.31960   0.14150   0.00000  Uiso   1.00
C49    C     0.45670   0.69420   0.39600   0.00000  Uiso   1.00
C50    C     0.45670   0.65910   0.28670   0.00000  Uiso   1.00
C51    C     0.56250   0.78860   0.76890   0.00000  Uiso   1.00
C52    C     0.60000   0.78860   0.88610   0.00000  Uiso   1.00
H53    H     0.42270   0.70770   0.43220   0.00000  Uiso   1.00
H54    H     0.42310   0.64630   0.24120   0.00000  Uiso   1.00
H55    H     0.54840   0.81900   0.72850   0.00000  Uiso   1.00
H56    H     0.61370   0.81860   0.93380   0.00000  Uiso   1.00
C57    C     0.45690   0.56390   0.76620   0.00000  Uiso   1.00
C58    C     0.45670   0.53290   0.63850   0.00000  Uiso   1.00
C59    C     0.69060   0.78850   0.44820   0.00000  Uiso   1.00
C60    C     0.71960   0.78860   0.59280   0.00000  Uiso   1.00
H61    H     0.42310   0.57620   0.81350   0.00000  Uiso   1.00
H62    H     0.42200   0.52280   0.59540   0.00000  Uiso   1.00
H63    H     0.67880   0.81850   0.39480   0.00000  Uiso   1.00
H64    H     0.72900   0.81960   0.64150   0.00000  Uiso   1.00
C65    C     0.95670   0.80580   0.10400   0.00000  Uiso   1.00
C66    C     0.95670   0.84090   0.21330   0.00000  Uiso   1.00
C67    C     0.06250   0.71140   0.73110   0.00000  Uiso   1.00
C68    C     0.10000   0.71140   0.61390   0.00000  Uiso   1.00
H69    H     0.92270   0.79230   0.06780   0.00000  Uiso   1.00
H70    H     0.92310   0.85370   0.25880   0.00000  Uiso   1.00
H71    H     0.04840   0.68100   0.77150   0.00000  Uiso   1.00
H72    H     0.11370   0.68140   0.56620   0.00000  Uiso   1.00
C73    C     0.95690   0.93610   0.73380   0.00000  Uiso   1.00
C74    C     0.95670   0.96710   0.86150   0.00000  Uiso   1.00
C75    C     0.19060   0.71150   0.05180   0.00000  Uiso   1.00
C76    C     0.21960   0.71140   0.90720   0.00000  Uiso   1.00
H77    H     0.92310   0.92380   0.68650   0.00000  Uiso   1.00
H78    H     0.92200   0.97720   0.90460   0.00000  Uiso   1.00
H79    H     0.17880   0.68150   0.10520   0.00000  Uiso   1.00
H80    H     0.22900   0.68040   0.85850   0.00000  Uiso   1.00
C81    C     0.45670   0.30580   0.60400   0.00000  Uiso   1.00
C82    C     0.45670   0.34090   0.71330   0.00000  Uiso   1.00
C83    C     0.56250   0.21140   0.23110   0.00000  Uiso   1.00
C84    C     0.60000   0.21140   0.11390   0.00000  Uiso   1.00
H85    H     0.42270   0.29230   0.56780   0.00000  Uiso   1.00
H86    H     0.42310   0.35370   0.75880   0.00000  Uiso   1.00
H87    H     0.54840   0.18100   0.27150   0.00000  Uiso   1.00
H88    H     0.61370   0.18140   0.06620   0.00000  Uiso   1.00
C89    C     0.45690   0.43610   0.23380   0.00000  Uiso   1.00
C90    C     0.45670   0.46710   0.36150   0.00000  Uiso   1.00
C91    C     0.69060   0.21150   0.55180   0.00000  Uiso   1.00
C92    C     0.71960   0.21140   0.40720   0.00000  Uiso   1.00
H93    H     0.42310   0.42380   0.18650   0.00000  Uiso   1.00
H94    H     0.42200   0.47720   0.40460   0.00000  Uiso   1.00
H95    H     0.67880   0.18150   0.60520   0.00000  Uiso   1.00
H96    H     0.72900   0.18040   0.35850   0.00000  Uiso   1.00
C97    C     0.04330   0.69420   0.10400   0.00000  Uiso   1.00
C98    C     0.04330   0.65910   0.21330   0.00000  Uiso   1.00
C99    C     0.93750   0.78860   0.73110   0.00000  Uiso   1.00
C100   C     0.90000   0.78860   0.61390   0.00000  Uiso   1.00
H101   H     0.07730   0.70770   0.06780   0.00000  Uiso   1.00
H102   H     0.07690   0.64630   0.25880   0.00000  Uiso   1.00
H103   H     0.95160   0.81900   0.77150   0.00000  Uiso   1.00
H104   H     0.88630   0.81860   0.56620   0.00000  Uiso   1.00
C105   C     0.04310   0.56390   0.73380   0.00000  Uiso   1.00
C106   C     0.04330   0.53290   0.86150   0.00000  Uiso   1.00
C107   C     0.80940   0.78850   0.05180   0.00000  Uiso   1.00
C108   C     0.78040   0.78860   0.90720   0.00000  Uiso   1.00
H109   H     0.07690   0.57620   0.68650   0.00000  Uiso   1.00
H110   H     0.07800   0.52280   0.90460   0.00000  Uiso   1.00
H111   H     0.82120   0.81850   0.10520   0.00000  Uiso   1.00
H112   H     0.77100   0.81960   0.85850   0.00000  Uiso   1.00
C113   C     0.54330   0.19420   0.60400   0.00000  Uiso   1.00
C114   C     0.54330   0.15910   0.71330   0.00000  Uiso   1.00
C115   C     0.43750   0.28860   0.23110   0.00000  Uiso   1.00
C116   C     0.40000   0.28860   0.11390   0.00000  Uiso   1.00
H117   H     0.57730   0.20770   0.56780   0.00000  Uiso   1.00
H118   H     0.57690   0.14630   0.75880   0.00000  Uiso   1.00
H119   H     0.45160   0.31900   0.27150   0.00000  Uiso   1.00
H120   H     0.38630   0.31860   0.06620   0.00000  Uiso   1.00
C121   C     0.54310   0.06390   0.23380   0.00000  Uiso   1.00
C122   C     0.54330   0.03290   0.36150   0.00000  Uiso   1.00
C123   C     0.30940   0.28850   0.55180   0.00000  Uiso   1.00
C124   C     0.28040   0.28860   0.40720   0.00000  Uiso   1.00
H125   H     0.57690   0.07620   0.18650   0.00000  Uiso   1.00
H126   H     0.57800   0.02280   0.40460   0.00000  Uiso   1.00
H127   H     0.32120   0.31850   0.60520   0.00000  Uiso   1.00
H128   H     0.27100   0.31960   0.35850   0.00000  Uiso   1.00
C129   C     0.95670   0.69420   0.10400   0.00000  Uiso   1.00
C130   C     0.95670   0.65910   0.21330   0.00000  Uiso   1.00
C131   C     0.06250   0.78860   0.73110   0.00000  Uiso   1.00
C132   C     0.10000   0.78860   0.61390   0.00000  Uiso   1.00
H133   H     0.92270   0.70770   0.06780   0.00000  Uiso   1.00
H134   H     0.92310   0.64630   0.25880   0.00000  Uiso   1.00
H135   H     0.04840   0.81900   0.77150   0.00000  Uiso   1.00
H136   H     0.11370   0.81860   0.56620   0.00000  Uiso   1.00
C137   C     0.95690   0.56390   0.73380   0.00000  Uiso   1.00
C138   C     0.95670   0.53290   0.86150   0.00000  Uiso   1.00
C139   C     0.19060   0.78850   0.05180   0.00000  Uiso   1.00
C140   C     0.21960   0.78860   0.90720   0.00000  Uiso   1.00
H141   H     0.92310   0.57620   0.68650   0.00000  Uiso   1.00
H142   H     0.92200   0.52280   0.90460   0.00000  Uiso   1.00
H143   H     0.17880   0.81850   0.10520   0.00000  Uiso   1.00
H144   H     0.22900   0.81960   0.85850   0.00000  Uiso   1.00
C145   C     0.45670   0.19420   0.60400   0.00000  Uiso   1.00
C146   C     0.45670   0.15910   0.71330   0.00000  Uiso   1.00
C147   C     0.56250   0.28860   0.23110   0.00000  Uiso   1.00
C148   C     0.60000   0.28860   0.11390   0.00000  Uiso   1.00
H149   H     0.42270   0.20770   0.56780   0.00000  Uiso   1.00
H150   H     0.42310   0.14630   0.75880   0.00000  Uiso   1.00
H151   H     0.54840   0.31900   0.27150   0.00000  Uiso   1.00
H152   H     0.61370   0.31860   0.06620   0.00000  Uiso   1.00
C153   C     0.45690   0.06390   0.23380   0.00000  Uiso   1.00
C154   C     0.45670   0.03290   0.36150   0.00000  Uiso   1.00
C155   C     0.69060   0.28850   0.55180   0.00000  Uiso   1.00
C156   C     0.71960   0.28860   0.40720   0.00000  Uiso   1.00
H157   H     0.42310   0.07620   0.18650   0.00000  Uiso   1.00
H158   H     0.42200   0.02280   0.40460   0.00000  Uiso   1.00
H159   H     0.67880   0.31850   0.60520   0.00000  Uiso   1.00
H160   H     0.72900   0.31960   0.35850   0.00000  Uiso   1.00
C161   C     0.04330   0.80580   0.10400   0.00000  Uiso   1.00
C162   C     0.04330   0.84090   0.21330   0.00000  Uiso   1.00
C163   C     0.93750   0.71140   0.73110   0.00000  Uiso   1.00
C164   C     0.90000   0.71140   0.61390   0.00000  Uiso   1.00
H165   H     0.07730   0.79230   0.06780   0.00000  Uiso   1.00
H166   H     0.07690   0.85370   0.25880   0.00000  Uiso   1.00
H167   H     0.95160   0.68100   0.77150   0.00000  Uiso   1.00
H168   H     0.88630   0.68140   0.56620   0.00000  Uiso   1.00
C169   C     0.04310   0.93610   0.73380   0.00000  Uiso   1.00
C170   C     0.04330   0.96710   0.86150   0.00000  Uiso   1.00
C171   C     0.80940   0.71150   0.05180   0.00000  Uiso   1.00
C172   C     0.78040   0.71140   0.90720   0.00000  Uiso   1.00
H173   H     0.07690   0.92380   0.68650   0.00000  Uiso   1.00
H174   H     0.07800   0.97720   0.90460   0.00000  Uiso   1.00
H175   H     0.82120   0.68150   0.10520   0.00000  Uiso   1.00
H176   H     0.77100   0.68040   0.85850   0.00000  Uiso   1.00
C177   C     0.54330   0.30580   0.60400   0.00000  Uiso   1.00
C178   C     0.54330   0.34090   0.71330   0.00000  Uiso   1.00
C179   C     0.43750   0.21140   0.23110   0.00000  Uiso   1.00
C180   C     0.40000   0.21140   0.11390   0.00000  Uiso   1.00
H181   H     0.57730   0.29230   0.56780   0.00000  Uiso   1.00
H182   H     0.57690   0.35370   0.75880   0.00000  Uiso   1.00
H183   H     0.45160   0.18100   0.27150   0.00000  Uiso   1.00
H184   H     0.38630   0.18140   0.06620   0.00000  Uiso   1.00
C185   C     0.54310   0.43610   0.23380   0.00000  Uiso   1.00
C186   C     0.54330   0.46710   0.36150   0.00000  Uiso   1.00
C187   C     0.30940   0.21150   0.55180   0.00000  Uiso   1.00
C188   C     0.28040   0.21140   0.40720   0.00000  Uiso   1.00
H189   H     0.57690   0.42380   0.18650   0.00000  Uiso   1.00
H190   H     0.57800   0.47720   0.40460   0.00000  Uiso   1.00
H191   H     0.32120   0.18150   0.60520   0.00000  Uiso   1.00
H192   H     0.27100   0.18040   0.35850   0.00000  Uiso   1.00
C193   C     0.04330   0.19420   0.89600   0.00000  Uiso   1.00
C194   C     0.04330   0.15910   0.78670   0.00000  Uiso   1.00
C195   C     0.93750   0.28860   0.26890   0.00000  Uiso   1.00
C196   C     0.90000   0.28860   0.38610   0.00000  Uiso   1.00
H197   H     0.07730   0.20770   0.93220   0.00000  Uiso   1.00
H198   H     0.07690   0.14630   0.74120   0.00000  Uiso   1.00
H199   H     0.95160   0.31900   0.22850   0.00000  Uiso   1.00
H200   H     0.88630   0.31860   0.43380   0.00000  Uiso   1.00
C201   C     0.04310   0.06390   0.26620   0.00000  Uiso   1.00
C202   C     0.04330   0.03290   0.13850   0.00000  Uiso   1.00
C203   C     0.80940   0.28850   0.94820   0.00000  Uiso   1.00
C204   C     0.78040   0.28860   0.09280   0.00000  Uiso   1.00
H205   H     0.07690   0.07620   0.31350   0.00000  Uiso   1.00
H206   H     0.07800   0.02280   0.09540   0.00000  Uiso   1.00
H207   H     0.82120   0.31850   0.89480   0.00000  Uiso   1.00
H208   H     0.77100   0.31960   0.14150   0.00000  Uiso   1.00
C209   C     0.54330   0.69420   0.39600   0.00000  Uiso   1.00
C210   C     0.54330   0.65910   0.28670   0.00000  Uiso   1.00
C211   C     0.43750   0.78860   0.76890   0.00000  Uiso   1.00
C212   C     0.40000   0.78860   0.88610   0.00000  Uiso   1.00
H213   H     0.57730   0.70770   0.43220   0.00000  Uiso   1.00
H214   H     0.57690   0.64630   0.24120   0.00000  Uiso   1.00
H215   H     0.45160   0.81900   0.72850   0.00000  Uiso   1.00
H216   H     0.38630   0.81860   0.93380   0.00000  Uiso   1.00
C217   C     0.54310   0.56390   0.76620   0.00000  Uiso   1.00
C218   C     0.54330   0.53290   0.63850   0.00000  Uiso   1.00
C219   C     0.30940   0.78850   0.44820   0.00000  Uiso   1.00
C220   C     0.28040   0.78860   0.59280   0.00000  Uiso   1.00
H221   H     0.57690   0.57620   0.81350   0.00000  Uiso   1.00
H222   H     0.57800   0.52280   0.59540   0.00000  Uiso   1.00
H223   H     0.32120   0.81850   0.39480   0.00000  Uiso   1.00
H224   H     0.27100   0.81960   0.64150   0.00000  Uiso   1.00
C225   C     0.95670   0.30580   0.89600   0.00000  Uiso   1.00
C226   C     0.95670   0.34090   0.78670   0.00000  Uiso   1.00
C227   C     0.06250   0.21140   0.26890   0.00000  Uiso   1.00
C228   C     0.10000   0.21140   0.38610   0.00000  Uiso   1.00
H229   H     0.92270   0.29230   0.93220   0.00000  Uiso   1.00
H230   H     0.92310   0.35370   0.74120   0.00000  Uiso   1.00
H231   H     0.04840   0.18100   0.22850   0.00000  Uiso   1.00
H232   H     0.11370   0.18140   0.43380   0.00000  Uiso   1.00
C233   C     0.95690   0.43610   0.26620   0.00000  Uiso   1.00
C234   C     0.95670   0.46710   0.13850   0.00000  Uiso   1.00
C235   C     0.19060   0.21150   0.94820   0.00000  Uiso   1.00
C236   C     0.21960   0.21140   0.09280   0.00000  Uiso   1.00
H237   H     0.92310   0.42380   0.31350   0.00000  Uiso   1.00
H238   H     0.92200   0.47720   0.09540   0.00000  Uiso   1.00
H239   H     0.17880   0.18150   0.89480   0.00000  Uiso   1.00
H240   H     0.22900   0.18040   0.14150   0.00000  Uiso   1.00
C241   C     0.45670   0.80580   0.39600   0.00000  Uiso   1.00
C242   C     0.45670   0.84090   0.28670   0.00000  Uiso   1.00
C243   C     0.56250   0.71140   0.76890   0.00000  Uiso   1.00
C244   C     0.60000   0.71140   0.88610   0.00000  Uiso   1.00
H245   H     0.42270   0.79230   0.43220   0.00000  Uiso   1.00
H246   H     0.42310   0.85370   0.24120   0.00000  Uiso   1.00
H247   H     0.54840   0.68100   0.72850   0.00000  Uiso   1.00
H248   H     0.61370   0.68140   0.93380   0.00000  Uiso   1.00
C249   C     0.45690   0.93610   0.76620   0.00000  Uiso   1.00
C250   C     0.45670   0.96710   0.63850   0.00000  Uiso   1.00
C251   C     0.69060   0.71150   0.44820   0.00000  Uiso   1.00
C252   C     0.71960   0.71140   0.59280   0.00000  Uiso   1.00
H253   H     0.42310   0.92380   0.81350   0.00000  Uiso   1.00
H254   H     0.42200   0.97720   0.59540   0.00000  Uiso   1.00
H255   H     0.67880   0.68150   0.39480   0.00000  Uiso   1.00
H256   H     0.72900   0.68040   0.64150   0.00000  Uiso   1.00
C257   C     0.00000   0.25000   0.08180   0.00000  Uiso   1.00
C258   C     0.50000   0.75000   0.58180   0.00000  Uiso   1.00
C259   C     0.00000   0.75000   0.91820   0.00000  Uiso   1.00
C260   C     0.50000   0.25000   0.41820   0.00000  Uiso   1.00
C261   C     0.00000   0.28890   0.96030   0.00000  Uiso   1.00
C262   C     0.00000   0.35900   0.73400   0.00000  Uiso   1.00
N263   N     0.00000   0.39360   0.61600   0.00000  Uiso   1.00
C264   C     0.00000   0.48340   0.07020   0.00000  Uiso   1.00
C265   C     0.00000   0.42070   0.33080   0.00000  Uiso   1.00
C266   C     0.00000   0.38590   0.45480   0.00000  Uiso   1.00
H267   H     0.00000   0.35340   0.41000   0.00000  Uiso   1.00
C268   C     0.50000   0.78890   0.46030   0.00000  Uiso   1.00
C269   C     0.50000   0.85900   0.23400   0.00000  Uiso   1.00
N270   N     0.50000   0.89360   0.11600   0.00000  Uiso   1.00
C271   C     0.50000   0.98340   0.57020   0.00000  Uiso   1.00
C272   C     0.50000   0.92070   0.83080   0.00000  Uiso   1.00
C273   C     0.50000   0.88590   0.95480   0.00000  Uiso   1.00
H274   H     0.50000   0.85340   0.91000   0.00000  Uiso   1.00
C275   C     0.00000   0.21110   0.96030   0.00000  Uiso   1.00
C276   C     0.00000   0.14100   0.73400   0.00000  Uiso   1.00
N277   N     0.00000   0.10640   0.61600   0.00000  Uiso   1.00
C278   C     0.00000   0.01660   0.07020   0.00000  Uiso   1.00
C279   C     0.00000   0.07930   0.33080   0.00000  Uiso   1.00
C280   C     0.00000   0.11410   0.45480   0.00000  Uiso   1.00
H281   H     0.00000   0.14660   0.41000   0.00000  Uiso   1.00
C282   C     0.50000   0.71110   0.46030   0.00000  Uiso   1.00
C283   C     0.50000   0.64100   0.23400   0.00000  Uiso   1.00
N284   N     0.50000   0.60640   0.11600   0.00000  Uiso   1.00
C285   C     0.50000   0.51660   0.57020   0.00000  Uiso   1.00
C286   C     0.50000   0.57930   0.83080   0.00000  Uiso   1.00
C287   C     0.50000   0.61410   0.95480   0.00000  Uiso   1.00
H288   H     0.50000   0.64660   0.91000   0.00000  Uiso   1.00
C289   C     0.00000   0.78890   0.03970   0.00000  Uiso   1.00
C290   C     0.00000   0.85900   0.26600   0.00000  Uiso   1.00
N291   N     0.00000   0.89360   0.38400   0.00000  Uiso   1.00
C292   C     0.00000   0.98340   0.92980   0.00000  Uiso   1.00
C293   C     0.00000   0.92070   0.66920   0.00000  Uiso   1.00
C294   C     0.00000   0.88590   0.54520   0.00000  Uiso   1.00
H295   H     0.00000   0.85340   0.59000   0.00000  Uiso   1.00
C296   C     0.50000   0.28890   0.53970   0.00000  Uiso   1.00
C297   C     0.50000   0.35900   0.76600   0.00000  Uiso   1.00
N298   N     0.50000   0.39360   0.88400   0.00000  Uiso   1.00
C299   C     0.50000   0.48340   0.42980   0.00000  Uiso   1.00
C300   C     0.50000   0.42070   0.16920   0.00000  Uiso   1.00
C301   C     0.50000   0.38590   0.04520   0.00000  Uiso   1.00
H302   H     0.50000   0.35340   0.09000   0.00000  Uiso   1.00
C303   C     0.00000   0.71110   0.03970   0.00000  Uiso   1.00
C304   C     0.00000   0.64100   0.26600   0.00000  Uiso   1.00
N305   N     0.00000   0.60640   0.38400   0.00000  Uiso   1.00
C306   C     0.00000   0.51660   0.92980   0.00000  Uiso   1.00
C307   C     0.00000   0.57930   0.66920   0.00000  Uiso   1.00
C308   C     0.00000   0.61410   0.54520   0.00000  Uiso   1.00
H309   H     0.00000   0.64660   0.59000   0.00000  Uiso   1.00
C310   C     0.50000   0.21110   0.53970   0.00000  Uiso   1.00
C311   C     0.50000   0.14100   0.76600   0.00000  Uiso   1.00
N312   N     0.50000   0.10640   0.88400   0.00000  Uiso   1.00
C313   C     0.50000   0.01660   0.42980   0.00000  Uiso   1.00
C314   C     0.50000   0.07930   0.16920   0.00000  Uiso   1.00
C315   C     0.50000   0.11410   0.04520   0.00000  Uiso   1.00
H316   H     0.50000   0.14660   0.09000   0.00000  Uiso   1.00
C317   C     0.95630   0.25000   0.20360   0.00000  Uiso   1.00
C318   C     0.88110   0.25000   0.44480   0.00000  Uiso   1.00
N319   N     0.84490   0.25000   0.57270   0.00000  Uiso   1.00
C320   C     0.76530   0.25000   0.17040   0.00000  Uiso   1.00
C321   C     0.82390   0.25000   0.87550   0.00000  Uiso   1.00
C322   C     0.85850   0.25000   0.73640   0.00000  Uiso   1.00
H323   H     0.89616   0.25000   0.76581   0.00000  Uiso   1.00
C324   C     0.45630   0.75000   0.70360   0.00000  Uiso   1.00
C325   C     0.38110   0.75000   0.94480   0.00000  Uiso   1.00
N326   N     0.34490   0.75000   0.07270   0.00000  Uiso   1.00
C327   C     0.26530   0.75000   0.67040   0.00000  Uiso   1.00
C328   C     0.32390   0.75000   0.37550   0.00000  Uiso   1.00
C329   C     0.35850   0.75000   0.23640   0.00000  Uiso   1.00
H330   H     0.39615   0.75000   0.26581   0.00000  Uiso   1.00
C331   C     0.04370   0.25000   0.20360   0.00000  Uiso   1.00
C332   C     0.11890   0.25000   0.44480   0.00000  Uiso   1.00
N333   N     0.15510   0.25000   0.57270   0.00000  Uiso   1.00
C334   C     0.23470   0.25000   0.17040   0.00000  Uiso   1.00
C335   C     0.17610   0.25000   0.87550   0.00000  Uiso   1.00
C336   C     0.14150   0.25000   0.73640   0.00000  Uiso   1.00
H337   H     0.10385   0.25000   0.76581   0.00000  Uiso   1.00
C338   C     0.54370   0.75000   0.70360   0.00000  Uiso   1.00
C339   C     0.61890   0.75000   0.94480   0.00000  Uiso   1.00
N340   N     0.65510   0.75000   0.07270   0.00000  Uiso   1.00
C341   C     0.73470   0.75000   0.67040   0.00000  Uiso   1.00
C342   C     0.67610   0.75000   0.37550   0.00000  Uiso   1.00
C343   C     0.64150   0.75000   0.23640   0.00000  Uiso   1.00
H344   H     0.60385   0.75000   0.26581   0.00000  Uiso   1.00
C345   C     0.04370   0.75000   0.79640   0.00000  Uiso   1.00
C346   C     0.11890   0.75000   0.55520   0.00000  Uiso   1.00
N347   N     0.15510   0.75000   0.42730   0.00000  Uiso   1.00
C348   C     0.23470   0.75000   0.82960   0.00000  Uiso   1.00
C349   C     0.17610   0.75000   0.12450   0.00000  Uiso   1.00
C350   C     0.14150   0.75000   0.26360   0.00000  Uiso   1.00
H351   H     0.10385   0.75000   0.23419   0.00000  Uiso   1.00
C352   C     0.54370   0.25000   0.29640   0.00000  Uiso   1.00
C353   C     0.61890   0.25000   0.05520   0.00000  Uiso   1.00
N354   N     0.65510   0.25000   0.92730   0.00000  Uiso   1.00
C355   C     0.73470   0.25000   0.32960   0.00000  Uiso   1.00
C356   C     0.67610   0.25000   0.62450   0.00000  Uiso   1.00
C357   C     0.64150   0.25000   0.76360   0.00000  Uiso   1.00
H358   H     0.60385   0.25000   0.73419   0.00000  Uiso   1.00
C359   C     0.95630   0.75000   0.79640   0.00000  Uiso   1.00
C360   C     0.88110   0.75000   0.55520   0.00000  Uiso   1.00
N361   N     0.84490   0.75000   0.42730   0.00000  Uiso   1.00
C362   C     0.76530   0.75000   0.82960   0.00000  Uiso   1.00
C363   C     0.82390   0.75000   0.12450   0.00000  Uiso   1.00
C364   C     0.85850   0.75000   0.26360   0.00000  Uiso   1.00
H365   H     0.89616   0.75000   0.23419   0.00000  Uiso   1.00
C366   C     0.45630   0.25000   0.29640   0.00000  Uiso   1.00
C367   C     0.38110   0.25000   0.05520   0.00000  Uiso   1.00
N368   N     0.34490   0.25000   0.92730   0.00000  Uiso   1.00
C369   C     0.26530   0.25000   0.32960   0.00000  Uiso   1.00
C370   C     0.32390   0.25000   0.62450   0.00000  Uiso   1.00
C371   C     0.35850   0.25000   0.76360   0.00000  Uiso   1.00
H372   H     0.39615   0.25000   0.73419   0.00000  Uiso   1.00
loop_
_geom_bond_atom_site_label_1
_geom_bond_atom_site_label_2
_geom_bond_distance
_geom_bond_site_symmetry_2
_ccdc_geom_bond_type
C1     C2      1.397   .     D
C1     H5      1.078   .     S
C1     C261    1.414   .     S
C2     H6      1.082   .     S
C2     C262    1.399   .     S
C3     C4      1.397   .     S
C3     H7      1.078   .     S
C3     C317    1.415   .     D
C4     H8      1.082   .     S
C4     C318    1.398   .     D
C9     C10     1.399   .     D
C9     H13     1.086   .     S
C9     C265    1.393   .     S
C10    H14     1.075   .     S
C10    C264    1.419   .     S
C11    C12     1.399   1_556 S
C11    H15     1.081   .     S
C11    C321    1.395   .     D
C12    C11     1.399   1_554 S
C12    H16     1.076   .     S
C12    C320    1.419   .     D
C17    C18     1.397   .     S
C17    H21     1.078   .     S
C17    C268    1.414   .     D
C18    H22     1.082   .     S
C18    C269    1.399   .     D
C19    C20     1.397   .     D
C19    H23     1.078   .     S
C19    C324    1.415   .     S
C20    H24     1.082   .     S
C20    C325    1.398   .     S
C25    C26     1.399   .     S
C25    H29     1.086   .     S
C25    C272    1.393   .     D
C26    H30     1.075   .     S
C26    C271    1.419   .     D
C27    C28     1.399   .     D
C27    H31     1.081   .     S
C27    C328    1.395   .     S
C28    H32     1.076   .     S
C28    C327    1.419   .     S
C33    C34     1.397   .     S
C33    H37     1.078   .     S
C33    C275    1.414   1_655 D
C34    H38     1.082   .     S
C34    C276    1.399   1_655 D
C35    C36     1.397   .     D
C35    H39     1.078   .     S
C35    C331    1.415   .     S
C36    H40     1.082   .     S
C36    C332    1.398   .     S
C41    C42     1.399   .     S
C41    H45     1.086   .     S
C41    C279    1.393   1_655 D
C42    H46     1.075   .     S
C42    C278    1.419   1_655 D
C43    C44     1.399   1_556 D
C43    H47     1.081   .     S
C43    C335    1.395   .     S
C44    C43     1.399   1_554 D
C44    H48     1.076   .     S
C44    C334    1.419   .     S
C49    C50     1.397   .     D
C49    H53     1.078   .     S
C49    C282    1.414   .     S
C50    H54     1.082   .     S
C50    C283    1.399   .     S
C51    C52     1.397   .     S
C51    H55     1.078   .     S
C51    C338    1.415   .     D
C52    H56     1.082   .     S
C52    C339    1.398   .     D
C57    C58     1.399   .     D
C57    H61     1.086   .     S
C57    C286    1.393   .     S
C58    H62     1.075   .     S
C58    C285    1.419   .     S
C59    C60     1.399   .     S
C59    H63     1.081   .     S
C59    C342    1.395   .     D
C60    H64     1.076   .     S
C60    C341    1.419   .     D
C65    C66     1.397   .     S
C65    H69     1.078   .     S
C65    C289    1.414   1_655 D
C66    H70     1.082   .     S
C66    C290    1.399   1_655 D
C67    C68     1.397   .     D
C67    H71     1.078   .     S
C67    C345    1.415   .     S
C68    H72     1.082   .     S
C68    C346    1.398   .     S
C73    C74     1.399   .     S
C73    H77     1.086   .     S
C73    C293    1.393   1_655 D
C74    H78     1.075   .     S
C74    C292    1.419   1_655 D
C75    C76     1.399   1_554 D
C75    H79     1.081   .     S
C75    C349    1.395   .     S
C76    C75     1.399   1_556 D
C76    H80     1.076   .     S
C76    C348    1.419   .     S
C81    C82     1.397   .     D
C81    H85     1.078   .     S
C81    C296    1.414   .     S
C82    H86     1.082   .     S
C82    C297    1.399   .     S
C83    C84     1.397   .     S
C83    H87     1.078   .     S
C83    C352    1.415   .     D
C84    H88     1.082   .     S
C84    C353    1.398   .     D
C89    C90     1.399   .     D
C89    H93     1.086   .     S
C89    C300    1.393   .     S
C90    H94     1.075   .     S
C90    C299    1.419   .     S
C91    C92     1.399   .     S
C91    H95     1.081   .     S
C91    C356    1.395   .     D
C92    H96     1.076   .     S
C92    C355    1.419   .     D
C97    C98     1.397   .     D
C97    H101    1.078   .     S
C97    C303    1.414   .     S
C98    H102    1.082   .     S
C98    C304    1.399   .     S
C99    C100    1.397   .     S
C99    H103    1.078   .     S
C99    C359    1.415   .     D
C100   H104    1.082   .     S
C100   C360    1.398   .     D
C105   C106    1.399   .     D
C105   H109    1.086   .     S
C105   C307    1.393   .     S
C106   H110    1.075   .     S
C106   C306    1.419   .     S
C107   C108    1.399   1_554 S
C107   H111    1.081   .     S
C107   C363    1.395   .     D
C108   C107    1.399   1_556 S
C108   H112    1.076   .     S
C108   C362    1.419   .     D
C113   C114    1.397   .     S
C113   H117    1.078   .     S
C113   C310    1.414   .     D
C114   H118    1.082   .     S
C114   C311    1.399   .     D
C115   C116    1.397   .     D
C115   H119    1.078   .     S
C115   C366    1.415   .     S
C116   H120    1.082   .     S
C116   C367    1.398   .     S
C121   C122    1.399   .     S
C121   H125    1.086   .     S
C121   C314    1.393   .     D
C122   H126    1.075   .     S
C122   C313    1.419   .     D
C123   C124    1.399   .     D
C123   H127    1.081   .     S
C123   C370    1.395   .     S
C124   H128    1.076   .     S
C124   C369    1.419   .     S
C129   C130    1.397   .     S
C129   H133    1.078   .     S
C129   C303    1.414   1_655 D
C130   H134    1.082   .     S
C130   C304    1.399   1_655 D
C131   C132    1.397   .     S
C131   H135    1.078   .     S
C131   C345    1.415   .     D
C132   H136    1.082   .     S
C132   C346    1.398   .     D
C137   C138    1.399   .     S
C137   H141    1.086   .     S
C137   C307    1.393   1_655 D
C138   H142    1.075   .     S
C138   C306    1.419   1_655 D
C139   C140    1.399   1_554 S
C139   H143    1.081   .     S
C139   C349    1.395   .     D
C140   C139    1.399   1_556 S
C140   H144    1.076   .     S
C140   C348    1.419   .     D
C145   C146    1.397   .     D
C145   H149    1.078   .     S
C145   C310    1.414   .     S
C146   H150    1.082   .     S
C146   C311    1.399   .     S
C147   C148    1.397   .     D
C147   H151    1.078   .     S
C147   C352    1.415   .     S
C148   H152    1.082   .     S
C148   C353    1.398   .     S
C153   C154    1.399   .     D
C153   H157    1.086   .     S
C153   C314    1.393   .     S
C154   H158    1.075   .     S
C154   C313    1.419   .     S
C155   C156    1.399   .     D
C155   H159    1.081   .     S
C155   C356    1.395   .     S
C156   H160    1.076   .     S
C156   C355    1.419   .     S
C161   C162    1.397   .     D
C161   H165    1.078   .     S
C161   C289    1.414   .     S
C162   H166    1.082   .     S
C162   C290    1.399   .     S
C163   C164    1.397   .     D
C163   H167    1.078   .     S
C163   C359    1.415   .     S
C164   H168    1.082   .     S
C164   C360    1.398   .     S
C169   C170    1.399   .     D
C169   H173    1.086   .     S
C169   C293    1.393   .     S
C170   H174    1.075   .     S
C170   C292    1.419   .     S
C171   C172    1.399   1_554 D
C171   H175    1.081   .     S
C171   C363    1.395   .     S
C172   C171    1.399   1_556 D
C172   H176    1.076   .     S
C172   C362    1.419   .     S
C177   C178    1.397   .     S
C177   H181    1.078   .     S
C177   C296    1.414   .     D
C178   H182    1.082   .     S
C178   C297    1.399   .     D
C179   C180    1.397   .     S
C179   H183    1.078   .     S
C179   C366    1.415   .     D
C180   H184    1.082   .     S
C180   C367    1.398   .     D
C185   C186    1.399   .     S
C185   H189    1.086   .     S
C185   C300    1.393   .     D
C186   H190    1.075   .     S
C186   C299    1.419   .     D
C187   C188    1.399   .     S
C187   H191    1.081   .     S
C187   C370    1.395   .     D
C188   H192    1.076   .     S
C188   C369    1.419   .     D
C193   C194    1.397   .     D
C193   H197    1.078   .     S
C193   C275    1.414   .     S
C194   H198    1.082   .     S
C194   C276    1.399   .     S
C195   C196    1.397   .     D
C195   H199    1.078   .     S
C195   C317    1.415   .     S
C196   H200    1.082   .     S
C196   C318    1.398   .     S
C201   C202    1.399   .     D
C201   H205    1.086   .     S
C201   C279    1.393   .     S
C202   H206    1.075   .     S
C202   C278    1.419   .     S
C203   C204    1.399   1_556 D
C203   H207    1.081   .     S
C203   C321    1.395   .     S
C204   C203    1.399   1_554 D
C204   H208    1.076   .     S
C204   C320    1.419   .     S
C209   C210    1.397   .     S
C209   H213    1.078   .     S
C209   C282    1.414   .     D
C210   H214    1.082   .     S
C210   C283    1.399   .     D
C211   C212    1.397   .     S
C211   H215    1.078   .     S
C211   C324    1.415   .     D
C212   H216    1.082   .     S
C212   C325    1.398   .     D
C217   C218    1.399   .     S
C217   H221    1.086   .     S
C217   C286    1.393   .     D
C218   H222    1.075   .     S
C218   C285    1.419   .     D
C219   C220    1.399   .     S
C219   H223    1.081   .     S
C219   C328    1.395   .     D
C220   H224    1.076   .     S
C220   C327    1.419   .     D
C225   C226    1.397   .     S
C225   H229    1.078   .     S
C225   C261    1.414   1_655 D
C226   H230    1.082   .     S
C226   C262    1.399   1_655 D
C227   C228    1.397   .     S
C227   H231    1.078   .     S
C227   C331    1.415   .     D
C228   H232    1.082   .     S
C228   C332    1.398   .     D
C233   C234    1.399   .     S
C233   H237    1.086   .     S
C233   C265    1.393   1_655 D
C234   H238    1.075   .     S
C234   C264    1.419   1_655 D
C235   C236    1.399   1_556 S
C235   H239    1.081   .     S
C235   C335    1.395   .     D
C236   C235    1.399   1_554 S
C236   H240    1.076   .     S
C236   C334    1.419   .     D
C241   C242    1.397   .     D
C241   H245    1.078   .     S
C241   C268    1.414   .     S
C242   H246    1.082   .     S
C242   C269    1.399   .     S
C243   C244    1.397   .     D
C243   H247    1.078   .     S
C243   C338    1.415   .     S
C244   H248    1.082   .     S
C244   C339    1.398   .     S
C249   C250    1.399   .     D
C249   H253    1.086   .     S
C249   C272    1.393   .     S
C250   H254    1.075   .     S
C250   C271    1.419   .     S
C251   C252    1.399   .     D
C251   H255    1.081   .     S
C251   C342    1.395   .     S
C252   H256    1.076   .     S
C252   C341    1.419   .     S
C257   C261    1.550   1_554 S
C257   C275    1.550   1_554 S
C257   C317    1.553   1_455 S
C257   C331    1.553   .     S
C258   C268    1.550   .     S
C258   C282    1.550   .     S
C258   C324    1.553   .     S
C258   C338    1.553   .     S
C259   C289    1.550   1_556 S
C259   C303    1.550   1_556 S
C259   C345    1.553   .     S
C259   C359    1.553   1_455 S
C260   C296    1.550   .     S
C260   C310    1.550   .     S
C260   C352    1.553   .     S
C260   C366    1.553   .     S
C261   C257    1.550   1_556 S
C261   C225    1.414   1_455 D
C262   C226    1.399   1_455 D
C262   N263    1.428   .     S
N263   C266    1.295   .     D
C264   C234    1.419   1_455 D
C264   C306    1.519   1_554 S
C265   C233    1.393   1_455 D
C265   C266    1.464   .     S
C266   H267    1.077   .     S
C269   N270    1.428   .     S
N270   C273    1.295   1_554 D
C271   C313    1.519   1_565 S
C272   C273    1.464   .     S
C273   N270    1.295   1_556 D
C273   H274    1.077   .     S
C275   C257    1.550   1_556 S
C275   C33     1.414   1_455 D
C276   C34     1.399   1_455 D
C276   N277    1.428   .     S
N277   C280    1.295   .     D
C278   C42     1.419   1_455 D
C278   C292    1.519   1_544 S
C279   C41     1.393   1_455 D
C279   C280    1.464   .     S
C280   H281    1.077   .     S
C283   N284    1.428   .     S
N284   C287    1.295   1_554 D
C285   C299    1.519   .     S
C286   C287    1.464   .     S
C287   N284    1.295   1_556 D
C287   H288    1.077   .     S
C289   C65     1.414   1_455 D
C289   C259    1.550   1_554 S
C290   C66     1.399   1_455 D
C290   N291    1.428   .     S
N291   C294    1.295   .     D
C292   C278    1.519   1_566 S
C292   C74     1.419   1_455 D
C293   C73     1.393   1_455 D
C293   C294    1.464   .     S
C294   H295    1.077   .     S
C297   N298    1.428   .     S
N298   C301    1.295   1_556 D
C300   C301    1.464   .     S
C301   N298    1.295   1_554 D
C301   H302    1.077   .     S
C303   C129    1.414   1_455 D
C303   C259    1.550   1_554 S
C304   C130    1.399   1_455 D
C304   N305    1.428   .     S
N305   C308    1.295   .     D
C306   C264    1.519   1_556 S
C306   C138    1.419   1_455 D
C307   C137    1.393   1_455 D
C307   C308    1.464   .     S
C308   H309    1.077   .     S
C311   N312    1.428   .     S
N312   C315    1.295   1_556 D
C313   C271    1.519   1_545 S
C314   C315    1.464   .     S
C315   N312    1.295   1_554 D
C315   H316    1.077   .     S
C317   C257    1.553   1_655 S
C318   N319    1.428   .     S
N319   C322    1.346   .     D
C320   C355    1.519   .     S
C321   C322    1.462   .     S
C322   H323    1.077   .     S
C325   N326    1.428   1_556 S
N326   C325    1.428   1_554 S
N326   C329    1.346   .     D
C327   C348    1.519   .     S
C328   C329    1.462   .     S
C329   H330    1.077   .     S
C332   N333    1.428   .     S
N333   C336    1.346   .     D
C334   C369    1.519   .     S
C335   C336    1.462   .     S
C336   H337    1.077   .     S
C339   N340    1.428   1_556 S
N340   C339    1.428   1_554 S
N340   C343    1.346   .     D
C341   C362    1.519   .     S
C342   C343    1.462   .     S
C343   H344    1.077   .     S
C346   N347    1.428   .     S
N347   C350    1.346   .     D
C349   C350    1.462   .     S
C350   H351    1.077   .     S
C353   N354    1.428   1_554 S
N354   C353    1.428   1_556 S
N354   C357    1.346   .     D
C356   C357    1.462   .     S
C357   H358    1.077   .     S
C359   C259    1.553   1_655 S
C360   N361    1.428   .     S
N361   C364    1.346   .     D
C363   C364    1.462   .     S
C364   H365    1.077   .     S
C367   N368    1.428   1_554 S
N368   C367    1.428   1_556 S
N368   C371    1.346   .     D
C370   C371    1.462   .     S
C371   H372    1.077   .     S
