data_1110
_audit_creation_date              2023-09-08
_audit_creation_method            'Materials Studio'
_symmetry_space_group_name_H-M    'P1'
_symmetry_Int_Tables_number       1
_symmetry_cell_setting            triclinic
loop_
_symmetry_equiv_pos_as_xyz
  x,y,z
_cell_length_a                    36.6669
_cell_length_b                    36.6669
_cell_length_c                    6.3984
_cell_angle_alpha                 90.0000
_cell_angle_beta                  90.0000
_cell_angle_gamma                 120.0000
loop_
_atom_site_label
_atom_site_type_symbol
_atom_site_fract_x
_atom_site_fract_y
_atom_site_fract_z
_atom_site_U_iso_or_equiv
_atom_site_adp_type
_atom_site_occupancy
C1     C     0.97646   0.02012   0.24973   0.00000  Uiso   1.00
C2     C     0.95597   0.97626   0.24976   0.00000  Uiso   1.00
H3     H     0.95796   0.03596   0.24982   0.00000  Uiso   1.00
N4     N     0.35776   0.64790   0.50441   0.00000  Uiso   1.00
C5     C     0.37476   0.69009   0.50438   0.00000  Uiso   1.00
C6     C     0.04890   0.95831   0.25065   0.00000  Uiso   1.00
C7     C     0.08887   0.97724   0.15920   0.00000  Uiso   1.00
C8     C     0.11233   0.95730   0.15980   0.00000  Uiso   1.00
C9     C     0.09686   0.91806   0.25623   0.00000  Uiso   1.00
C10    C     0.05663   0.89867   0.34545   0.00000  Uiso   1.00
C11    C     0.03316   0.91862   0.34212   0.00000  Uiso   1.00
H12    H     0.10145   0.00780   0.08238   0.00000  Uiso   1.00
H13    H     0.14348   0.97239   0.08780   0.00000  Uiso   1.00
H14    H     0.04337   0.86747   0.41580   0.00000  Uiso   1.00
H15    H     0.00206   0.90324   0.41506   0.00000  Uiso   1.00
C16    C     0.21555   0.79048   0.37173   0.00000  Uiso   1.00
N17    N     0.20847   0.76115   0.50566   0.00000  Uiso   1.00
C18    C     0.11806   0.87299   0.39586   0.00000  Uiso   1.00
N19    N     0.12195   0.89900   0.24848   0.00000  Uiso   1.00
H20    H     0.23954   0.80008   0.24593   0.00000  Uiso   1.00
H21    H     0.09677   0.86600   0.53229   0.00000  Uiso   1.00
C22    C     0.28374   0.70477   0.50346   0.00000  Uiso   1.00
C23    C     0.24021   0.68065   0.53156   0.00000  Uiso   1.00
C24    C     0.21566   0.69940   0.53252   0.00000  Uiso   1.00
C25    C     0.23416   0.74276   0.49857   0.00000  Uiso   1.00
C26    C     0.27779   0.76714   0.47162   0.00000  Uiso   1.00
C27    C     0.30220   0.74821   0.47544   0.00000  Uiso   1.00
H28    H     0.22599   0.64673   0.55508   0.00000  Uiso   1.00
H29    H     0.18166   0.68052   0.55478   0.00000  Uiso   1.00
H30    H     0.29246   0.80119   0.45148   0.00000  Uiso   1.00
H31    H     0.33632   0.76699   0.45570   0.00000  Uiso   1.00
C32    C     0.19079   0.81157   0.37836   0.00000  Uiso   1.00
C33    C     0.16146   0.80245   0.53815   0.00000  Uiso   1.00
C34    C     0.13772   0.82241   0.54429   0.00000  Uiso   1.00
C35    C     0.14286   0.85198   0.38914   0.00000  Uiso   1.00
C36    C     0.17213   0.86102   0.22910   0.00000  Uiso   1.00
C37    C     0.19606   0.84126   0.22373   0.00000  Uiso   1.00
H38    H     0.15795   0.77927   0.65508   0.00000  Uiso   1.00
O39    O     0.10811   0.81479   0.69649   0.00000  Uiso   1.00
H40    H     0.17539   0.88394   0.11127   0.00000  Uiso   1.00
O41    O     0.22578   0.84898   0.07193   0.00000  Uiso   1.00
C42    C     0.10337   0.78573   0.85805   0.00000  Uiso   1.00
C43    C     0.23073   0.87826  -0.08883   0.00000  Uiso   1.00
H44    H     0.13307   0.79688   0.94470   0.00000  Uiso   1.00
H45    H     0.09326   0.75427   0.79306   0.00000  Uiso   1.00
H46    H     0.07916   0.78372   0.96508   0.00000  Uiso   1.00
H47    H     0.20125   0.86706  -0.17750   0.00000  Uiso   1.00
H48    H     0.25536   0.88070  -0.19427   0.00000  Uiso   1.00
H49    H     0.24043   0.90954  -0.02273   0.00000  Uiso   1.00
C50    C     0.97988   0.95634   0.24973   0.00000  Uiso   1.00
C51    C     0.02374   0.97971   0.24976   0.00000  Uiso   1.00
H52    H     0.96404   0.92200   0.24982   0.00000  Uiso   1.00
N53    N     0.35210   0.70986   0.50441   0.00000  Uiso   1.00
C54    C     0.30991   0.68467   0.50438   0.00000  Uiso   1.00
C55    C     0.04169   0.09059   0.25065   0.00000  Uiso   1.00
C56    C     0.02276   0.11163   0.15920   0.00000  Uiso   1.00
C57    C     0.04270   0.15503   0.15980   0.00000  Uiso   1.00
C58    C     0.08194   0.17880   0.25623   0.00000  Uiso   1.00
C59    C     0.10133   0.15796   0.34545   0.00000  Uiso   1.00
C60    C     0.08138   0.11454   0.34212   0.00000  Uiso   1.00
H61    H     0.99220   0.09365   0.08238   0.00000  Uiso   1.00
H62    H     0.02761   0.17109   0.08780   0.00000  Uiso   1.00
H63    H     0.13253   0.17590   0.41580   0.00000  Uiso   1.00
H64    H     0.09676   0.09882   0.41506   0.00000  Uiso   1.00
C65    C     0.20952   0.42507   0.37173   0.00000  Uiso   1.00
N66    N     0.23885   0.44732   0.50566   0.00000  Uiso   1.00
C67    C     0.12701   0.24507   0.39586   0.00000  Uiso   1.00
N68    N     0.10100   0.22295   0.24848   0.00000  Uiso   1.00
H69    H     0.19992   0.43946   0.24593   0.00000  Uiso   1.00
H70    H     0.13400   0.23077   0.53229   0.00000  Uiso   1.00
C71    C     0.29523   0.57897   0.50346   0.00000  Uiso   1.00
C72    C     0.31935   0.55956   0.53156   0.00000  Uiso   1.00
C73    C     0.30060   0.51626   0.53252   0.00000  Uiso   1.00
C74    C     0.25724   0.49140   0.49857   0.00000  Uiso   1.00
C75    C     0.23286   0.51065   0.47162   0.00000  Uiso   1.00
C76    C     0.25179   0.55399   0.47544   0.00000  Uiso   1.00
H77    H     0.35327   0.57926   0.55508   0.00000  Uiso   1.00
H78    H     0.31948   0.50114   0.55478   0.00000  Uiso   1.00
H79    H     0.19881   0.49127   0.45148   0.00000  Uiso   1.00
H80    H     0.23301   0.56933   0.45570   0.00000  Uiso   1.00
C81    C     0.18843   0.37922   0.37836   0.00000  Uiso   1.00
C82    C     0.19755   0.35901   0.53815   0.00000  Uiso   1.00
C83    C     0.17759   0.31531   0.54429   0.00000  Uiso   1.00
C84    C     0.14802   0.29088   0.38914   0.00000  Uiso   1.00
C85    C     0.13898   0.31111   0.22910   0.00000  Uiso   1.00
C86    C     0.15874   0.35480   0.22373   0.00000  Uiso   1.00
H87    H     0.22073   0.37868   0.65508   0.00000  Uiso   1.00
O88    O     0.18521   0.29332   0.69649   0.00000  Uiso   1.00
H89    H     0.11606   0.29145   0.11127   0.00000  Uiso   1.00
O90    O     0.15102   0.37680   0.07193   0.00000  Uiso   1.00
C91    C     0.21427   0.31764   0.85805   0.00000  Uiso   1.00
C92    C     0.12174   0.35247  -0.08883   0.00000  Uiso   1.00
H93    H     0.20312   0.33619   0.94470   0.00000  Uiso   1.00
H94    H     0.24573   0.33899   0.79306   0.00000  Uiso   1.00
H95    H     0.21628   0.29544   0.96508   0.00000  Uiso   1.00
H96    H     0.13294   0.33419  -0.17750   0.00000  Uiso   1.00
H97    H     0.11930   0.37466  -0.19427   0.00000  Uiso   1.00
H98    H     0.09046   0.33089  -0.02273   0.00000  Uiso   1.00
C99    C     0.04366   0.02354   0.24973   0.00000  Uiso   1.00
C100   C     0.02029   0.04403   0.24976   0.00000  Uiso   1.00
H101   H     0.07800   0.04204   0.24982   0.00000  Uiso   1.00
N102   N     0.29014   0.64224   0.50441   0.00000  Uiso   1.00
C103   C     0.31533   0.62524   0.50438   0.00000  Uiso   1.00
C104   C     0.90941   0.95110   0.25065   0.00000  Uiso   1.00
C105   C     0.88837   0.91113   0.15920   0.00000  Uiso   1.00
C106   C     0.84497   0.88767   0.15980   0.00000  Uiso   1.00
C107   C     0.82120   0.90314   0.25623   0.00000  Uiso   1.00
C108   C     0.84204   0.94337   0.34545   0.00000  Uiso   1.00
C109   C     0.88546   0.96684   0.34212   0.00000  Uiso   1.00
H110   H     0.90635   0.89855   0.08238   0.00000  Uiso   1.00
H111   H     0.82891   0.85652   0.08780   0.00000  Uiso   1.00
H112   H     0.82410   0.95663   0.41580   0.00000  Uiso   1.00
H113   H     0.90118   0.99794   0.41506   0.00000  Uiso   1.00
C114   C     0.57493   0.78445   0.37173   0.00000  Uiso   1.00
N115   N     0.55268   0.79153   0.50566   0.00000  Uiso   1.00
C116   C     0.75493   0.88194   0.39586   0.00000  Uiso   1.00
N117   N     0.77705   0.87805   0.24848   0.00000  Uiso   1.00
H118   H     0.56054   0.76046   0.24593   0.00000  Uiso   1.00
H119   H     0.76923   0.90323   0.53229   0.00000  Uiso   1.00
C120   C     0.42103   0.71626   0.50346   0.00000  Uiso   1.00
C121   C     0.44044   0.75979   0.53156   0.00000  Uiso   1.00
C122   C     0.48374   0.78434   0.53252   0.00000  Uiso   1.00
C123   C     0.50860   0.76584   0.49857   0.00000  Uiso   1.00
C124   C     0.48935   0.72221   0.47162   0.00000  Uiso   1.00
C125   C     0.44601   0.69780   0.47544   0.00000  Uiso   1.00
H126   H     0.42074   0.77401   0.55508   0.00000  Uiso   1.00
H127   H     0.49886   0.81834   0.55478   0.00000  Uiso   1.00
H128   H     0.50873   0.70754   0.45148   0.00000  Uiso   1.00
H129   H     0.43067   0.66368   0.45570   0.00000  Uiso   1.00
C130   C     0.62078   0.80921   0.37836   0.00000  Uiso   1.00
C131   C     0.64099   0.83854   0.53815   0.00000  Uiso   1.00
C132   C     0.68469   0.86228   0.54429   0.00000  Uiso   1.00
C133   C     0.70912   0.85714   0.38914   0.00000  Uiso   1.00
C134   C     0.68889   0.82787   0.22910   0.00000  Uiso   1.00
C135   C     0.64520   0.80394   0.22373   0.00000  Uiso   1.00
H136   H     0.62132   0.84205   0.65508   0.00000  Uiso   1.00
O137   O     0.70668   0.89189   0.69649   0.00000  Uiso   1.00
H138   H     0.70855   0.82461   0.11127   0.00000  Uiso   1.00
O139   O     0.62320   0.77422   0.07193   0.00000  Uiso   1.00
C140   C     0.68236   0.89663   0.85805   0.00000  Uiso   1.00
C141   C     0.64753   0.76927  -0.08883   0.00000  Uiso   1.00
H142   H     0.66381   0.86693   0.94470   0.00000  Uiso   1.00
H143   H     0.66101   0.90674   0.79306   0.00000  Uiso   1.00
H144   H     0.70456   0.92084   0.96508   0.00000  Uiso   1.00
H145   H     0.66581   0.79875  -0.17750   0.00000  Uiso   1.00
H146   H     0.62534   0.74464  -0.19427   0.00000  Uiso   1.00
H147   H     0.66911   0.75957  -0.02273   0.00000  Uiso   1.00
C148   C     0.02354   0.97988   0.75027   0.00000  Uiso   1.00
C149   C     0.04403   0.02374   0.75024   0.00000  Uiso   1.00
H150   H     0.04204   0.96404   0.75018   0.00000  Uiso   1.00
N151   N     0.64224   0.35210   0.49559   0.00000  Uiso   1.00
C152   C     0.62524   0.30991   0.49562   0.00000  Uiso   1.00
C153   C     0.95110   0.04169   0.74935   0.00000  Uiso   1.00
C154   C     0.91113   0.02276   0.84080   0.00000  Uiso   1.00
C155   C     0.88767   0.04270   0.84020   0.00000  Uiso   1.00
C156   C     0.90314   0.08194   0.74377   0.00000  Uiso   1.00
C157   C     0.94337   0.10133   0.65455   0.00000  Uiso   1.00
C158   C     0.96684   0.08138   0.65788   0.00000  Uiso   1.00
H159   H     0.89855   0.99220   0.91762   0.00000  Uiso   1.00
H160   H     0.85652   0.02761   0.91220   0.00000  Uiso   1.00
H161   H     0.95663   0.13253   0.58420   0.00000  Uiso   1.00
H162   H     0.99794   0.09676   0.58494   0.00000  Uiso   1.00
C163   C     0.78445   0.20952   0.62827   0.00000  Uiso   1.00
N164   N     0.79153   0.23885   0.49434   0.00000  Uiso   1.00
C165   C     0.88194   0.12701   0.60414   0.00000  Uiso   1.00
N166   N     0.87805   0.10100   0.75152   0.00000  Uiso   1.00
H167   H     0.76046   0.19992   0.75407   0.00000  Uiso   1.00
H168   H     0.90323   0.13400   0.46771   0.00000  Uiso   1.00
C169   C     0.71626   0.29523   0.49654   0.00000  Uiso   1.00
C170   C     0.75979   0.31935   0.46844   0.00000  Uiso   1.00
C171   C     0.78434   0.30060   0.46748   0.00000  Uiso   1.00
C172   C     0.76584   0.25724   0.50143   0.00000  Uiso   1.00
C173   C     0.72221   0.23286   0.52838   0.00000  Uiso   1.00
C174   C     0.69780   0.25179   0.52456   0.00000  Uiso   1.00
H175   H     0.77401   0.35327   0.44492   0.00000  Uiso   1.00
H176   H     0.81834   0.31948   0.44522   0.00000  Uiso   1.00
H177   H     0.70754   0.19881   0.54852   0.00000  Uiso   1.00
H178   H     0.66368   0.23301   0.54430   0.00000  Uiso   1.00
C179   C     0.80921   0.18843   0.62164   0.00000  Uiso   1.00
C180   C     0.83854   0.19755   0.46185   0.00000  Uiso   1.00
C181   C     0.86228   0.17759   0.45571   0.00000  Uiso   1.00
C182   C     0.85714   0.14802   0.61086   0.00000  Uiso   1.00
C183   C     0.82787   0.13898   0.77090   0.00000  Uiso   1.00
C184   C     0.80394   0.15874   0.77627   0.00000  Uiso   1.00
H185   H     0.84205   0.22073   0.34492   0.00000  Uiso   1.00
O186   O     0.89189   0.18521   0.30351   0.00000  Uiso   1.00
H187   H     0.82461   0.11606   0.88873   0.00000  Uiso   1.00
O188   O     0.77422   0.15102   0.92807   0.00000  Uiso   1.00
C189   C     0.89663   0.21427   0.14195   0.00000  Uiso   1.00
C190   C     0.76927   0.12174   1.08883   0.00000  Uiso   1.00
H191   H     0.86693   0.20312   0.05530   0.00000  Uiso   1.00
H192   H     0.90674   0.24573   0.20694   0.00000  Uiso   1.00
H193   H     0.92084   0.21628   0.03492   0.00000  Uiso   1.00
H194   H     0.79875   0.13294   1.17750   0.00000  Uiso   1.00
H195   H     0.74464   0.11930   1.19427   0.00000  Uiso   1.00
H196   H     0.75957   0.09046   1.02273   0.00000  Uiso   1.00
C197   C     0.02012   0.04366   0.75027   0.00000  Uiso   1.00
C198   C     0.97626   0.02029   0.75024   0.00000  Uiso   1.00
H199   H     0.03596   0.07800   0.75018   0.00000  Uiso   1.00
N200   N     0.64790   0.29014   0.49559   0.00000  Uiso   1.00
C201   C     0.69009   0.31533   0.49562   0.00000  Uiso   1.00
C202   C     0.95831   0.90941   0.74935   0.00000  Uiso   1.00
C203   C     0.97724   0.88837   0.84080   0.00000  Uiso   1.00
C204   C     0.95730   0.84497   0.84020   0.00000  Uiso   1.00
C205   C     0.91806   0.82120   0.74377   0.00000  Uiso   1.00
C206   C     0.89867   0.84204   0.65455   0.00000  Uiso   1.00
C207   C     0.91862   0.88546   0.65788   0.00000  Uiso   1.00
H208   H     0.00780   0.90635   0.91762   0.00000  Uiso   1.00
H209   H     0.97239   0.82891   0.91220   0.00000  Uiso   1.00
H210   H     0.86747   0.82410   0.58420   0.00000  Uiso   1.00
H211   H     0.90324   0.90118   0.58494   0.00000  Uiso   1.00
C212   C     0.79048   0.57493   0.62827   0.00000  Uiso   1.00
N213   N     0.76115   0.55268   0.49434   0.00000  Uiso   1.00
C214   C     0.87299   0.75493   0.60414   0.00000  Uiso   1.00
N215   N     0.89900   0.77705   0.75152   0.00000  Uiso   1.00
H216   H     0.80008   0.56054   0.75407   0.00000  Uiso   1.00
H217   H     0.86600   0.76923   0.46771   0.00000  Uiso   1.00
C218   C     0.70477   0.42103   0.49654   0.00000  Uiso   1.00
C219   C     0.68065   0.44044   0.46844   0.00000  Uiso   1.00
C220   C     0.69940   0.48374   0.46748   0.00000  Uiso   1.00
C221   C     0.74276   0.50860   0.50143   0.00000  Uiso   1.00
C222   C     0.76714   0.48935   0.52838   0.00000  Uiso   1.00
C223   C     0.74821   0.44601   0.52456   0.00000  Uiso   1.00
H224   H     0.64673   0.42074   0.44492   0.00000  Uiso   1.00
H225   H     0.68052   0.49886   0.44522   0.00000  Uiso   1.00
H226   H     0.80119   0.50873   0.54852   0.00000  Uiso   1.00
H227   H     0.76699   0.43067   0.54430   0.00000  Uiso   1.00
C228   C     0.81157   0.62078   0.62164   0.00000  Uiso   1.00
C229   C     0.80245   0.64099   0.46185   0.00000  Uiso   1.00
C230   C     0.82241   0.68469   0.45571   0.00000  Uiso   1.00
C231   C     0.85198   0.70912   0.61086   0.00000  Uiso   1.00
C232   C     0.86102   0.68889   0.77090   0.00000  Uiso   1.00
C233   C     0.84126   0.64520   0.77627   0.00000  Uiso   1.00
H234   H     0.77927   0.62132   0.34492   0.00000  Uiso   1.00
O235   O     0.81479   0.70668   0.30351   0.00000  Uiso   1.00
H236   H     0.88394   0.70855   0.88873   0.00000  Uiso   1.00
O237   O     0.84898   0.62320   0.92807   0.00000  Uiso   1.00
C238   C     0.78573   0.68236   0.14195   0.00000  Uiso   1.00
C239   C     0.87826   0.64753   1.08883   0.00000  Uiso   1.00
H240   H     0.79688   0.66381   0.05530   0.00000  Uiso   1.00
H241   H     0.75427   0.66101   0.20694   0.00000  Uiso   1.00
H242   H     0.78372   0.70456   0.03492   0.00000  Uiso   1.00
H243   H     0.86706   0.66581   1.17750   0.00000  Uiso   1.00
H244   H     0.88070   0.62534   1.19427   0.00000  Uiso   1.00
H245   H     0.90954   0.66911   1.02273   0.00000  Uiso   1.00
C246   C     0.95634   0.97646   0.75027   0.00000  Uiso   1.00
C247   C     0.97971   0.95597   0.75024   0.00000  Uiso   1.00
H248   H     0.92200   0.95796   0.75018   0.00000  Uiso   1.00
N249   N     0.70986   0.35776   0.49559   0.00000  Uiso   1.00
C250   C     0.68467   0.37476   0.49562   0.00000  Uiso   1.00
C251   C     0.09059   0.04890   0.74935   0.00000  Uiso   1.00
C252   C     0.11163   0.08887   0.84080   0.00000  Uiso   1.00
C253   C     0.15503   0.11233   0.84020   0.00000  Uiso   1.00
C254   C     0.17880   0.09686   0.74377   0.00000  Uiso   1.00
C255   C     0.15796   0.05663   0.65455   0.00000  Uiso   1.00
C256   C     0.11454   0.03316   0.65788   0.00000  Uiso   1.00
H257   H     0.09365   0.10145   0.91762   0.00000  Uiso   1.00
H258   H     0.17109   0.14348   0.91220   0.00000  Uiso   1.00
H259   H     0.17590   0.04337   0.58420   0.00000  Uiso   1.00
H260   H     0.09882   0.00206   0.58494   0.00000  Uiso   1.00
C261   C     0.42507   0.21555   0.62827   0.00000  Uiso   1.00
N262   N     0.44732   0.20847   0.49434   0.00000  Uiso   1.00
C263   C     0.24507   0.11806   0.60414   0.00000  Uiso   1.00
N264   N     0.22295   0.12195   0.75152   0.00000  Uiso   1.00
H265   H     0.43946   0.23954   0.75407   0.00000  Uiso   1.00
H266   H     0.23077   0.09677   0.46771   0.00000  Uiso   1.00
C267   C     0.57897   0.28374   0.49654   0.00000  Uiso   1.00
C268   C     0.55956   0.24021   0.46844   0.00000  Uiso   1.00
C269   C     0.51626   0.21566   0.46748   0.00000  Uiso   1.00
C270   C     0.49140   0.23416   0.50143   0.00000  Uiso   1.00
C271   C     0.51065   0.27779   0.52838   0.00000  Uiso   1.00
C272   C     0.55399   0.30220   0.52456   0.00000  Uiso   1.00
H273   H     0.57926   0.22599   0.44492   0.00000  Uiso   1.00
H274   H     0.50114   0.18166   0.44522   0.00000  Uiso   1.00
H275   H     0.49127   0.29246   0.54852   0.00000  Uiso   1.00
H276   H     0.56933   0.33632   0.54430   0.00000  Uiso   1.00
C277   C     0.37922   0.19079   0.62164   0.00000  Uiso   1.00
C278   C     0.35901   0.16146   0.46185   0.00000  Uiso   1.00
C279   C     0.31531   0.13772   0.45571   0.00000  Uiso   1.00
C280   C     0.29088   0.14286   0.61086   0.00000  Uiso   1.00
C281   C     0.31111   0.17213   0.77090   0.00000  Uiso   1.00
C282   C     0.35480   0.19606   0.77627   0.00000  Uiso   1.00
H283   H     0.37868   0.15795   0.34492   0.00000  Uiso   1.00
O284   O     0.29332   0.10811   0.30351   0.00000  Uiso   1.00
H285   H     0.29145   0.17539   0.88873   0.00000  Uiso   1.00
O286   O     0.37680   0.22578   0.92807   0.00000  Uiso   1.00
C287   C     0.31764   0.10337   0.14195   0.00000  Uiso   1.00
C288   C     0.35247   0.23073   1.08883   0.00000  Uiso   1.00
H289   H     0.33619   0.13307   0.05530   0.00000  Uiso   1.00
H290   H     0.33899   0.09326   0.20694   0.00000  Uiso   1.00
H291   H     0.29544   0.07916   0.03492   0.00000  Uiso   1.00
H292   H     0.33419   0.20125   1.17750   0.00000  Uiso   1.00
H293   H     0.37466   0.25536   1.19427   0.00000  Uiso   1.00
H294   H     0.33089   0.24043   1.02273   0.00000  Uiso   1.00
loop_
_geom_bond_atom_site_label_1
_geom_bond_atom_site_label_2
_geom_bond_distance
_geom_bond_site_symmetry_2
_ccdc_geom_bond_type
C1     H3      1.092   .     S
C1     C2      1.394   1_545 S
C1     C100    1.394   1_655 D
C2     C50     1.394   .     D
C2     C104    1.480   .     S
C2     C1      1.394   1_565 S
N4     C5      1.348   .     D
N4     C103    1.348   .     S
C5     N53     1.348   .     S
C5     C120    1.473   .     S
C6     C7      1.398   .     S
C6     C11     1.398   .     D
C6     C51     1.480   .     S
C7     C8      1.380   .     D
C7     H12     1.092   1_565 S
C8     C9      1.399   .     S
C8     H13     1.091   .     S
C9     C10     1.399   .     D
C9     N19     1.407   .     S
C10    C11     1.380   .     S
C10    H14     1.092   .     S
C11    H15     1.092   .     S
H12    C7      1.092   1_545 S
C16    N17     1.296   .     D
C16    H20     1.112   .     S
C16    C32     1.458   .     S
N17    C25     1.407   .     S
C18    N19     1.297   .     D
C18    H21     1.112   .     S
C18    C35     1.457   .     S
C22    C23     1.397   .     D
C22    C27     1.396   .     S
C22    C54     1.473   .     S
C23    C24     1.379   .     S
C23    H28     1.092   .     S
C24    C25     1.399   .     D
C24    H29     1.091   .     S
C25    C26     1.399   .     S
C26    C27     1.380   .     D
C26    H30     1.092   .     S
C27    H31     1.093   .     S
C32    C33     1.398   .     D
C32    C37     1.411   .     S
C33    C34     1.390   .     S
C33    H38     1.091   .     S
C34    C35     1.411   .     D
C34    O39     1.379   .     S
C35    C36     1.398   .     S
C36    C37     1.390   .     D
C36    H40     1.090   .     S
C37    O41     1.379   .     S
O39    C42     1.431   .     S
O41    C43     1.431   .     S
C42    H44     1.102   .     S
C42    H45     1.102   .     S
C42    H46     1.094   .     S
C43    H47     1.102   .     S
C43    H48     1.095   .     S
C43    H49     1.101   .     S
C50    H52     1.092   .     S
C50    C51     1.394   1_655 S
C51    C50     1.394   1_455 S
C51    C99     1.394   1_565 D
N53    C54     1.348   .     D
C54    N102    1.348   .     S
C55    C56     1.398   .     D
C55    C60     1.398   .     S
C55    C100    1.480   .     S
C56    C57     1.380   .     S
C56    H61     1.092   1_455 S
C57    C58     1.399   .     D
C57    H62     1.091   .     S
C58    C59     1.399   .     S
C58    N68     1.407   .     S
C59    C60     1.380   .     D
C59    H63     1.092   .     S
C60    H64     1.092   .     S
H61    C56     1.092   1_655 S
C65    N66     1.296   .     D
C65    H69     1.112   .     S
C65    C81     1.458   .     S
N66    C74     1.407   .     S
C67    N68     1.297   .     D
C67    H70     1.112   .     S
C67    C84     1.457   .     S
C71    C72     1.397   .     S
C71    C76     1.396   .     D
C71    C103    1.473   .     S
C72    C73     1.379   .     D
C72    H77     1.092   .     S
C73    C74     1.399   .     S
C73    H78     1.091   .     S
C74    C75     1.399   .     D
C75    C76     1.380   .     S
C75    H79     1.092   .     S
C76    H80     1.093   .     S
C81    C82     1.398   .     S
C81    C86     1.411   .     D
C82    C83     1.390   .     D
C82    H87     1.091   .     S
C83    C84     1.411   .     S
C83    O88     1.379   .     S
C84    C85     1.398   .     D
C85    C86     1.390   .     S
C85    H89     1.090   .     S
C86    O90     1.379   .     S
O88    C91     1.431   .     S
O90    C92     1.431   .     S
C91    H93     1.102   .     S
C91    H94     1.102   .     S
C91    H95     1.094   .     S
C92    H96     1.102   .     S
C92    H97     1.095   .     S
C92    H98     1.101   .     S
C99    C100    1.394   .     S
C99    H101    1.092   .     S
C99    C51     1.394   1_545 D
C100   C1      1.394   1_455 D
N102   C103    1.348   .     D
C104   C105    1.398   .     D
C104   C109    1.398   .     S
C105   C106    1.380   .     S
C105   H110    1.092   .     S
C106   C107    1.399   .     D
C106   H111    1.091   .     S
C107   C108    1.399   .     S
C107   N117    1.407   .     S
C108   C109    1.380   .     D
C108   H112    1.092   .     S
C109   H113    1.092   .     S
C114   N115    1.296   .     D
C114   H118    1.112   .     S
C114   C130    1.458   .     S
N115   C123    1.407   .     S
C116   N117    1.297   .     D
C116   H119    1.112   .     S
C116   C133    1.457   .     S
C120   C121    1.397   .     D
C120   C125    1.396   .     S
C121   C122    1.379   .     S
C121   H126    1.092   .     S
C122   C123    1.399   .     D
C122   H127    1.091   .     S
C123   C124    1.399   .     S
C124   C125    1.380   .     D
C124   H128    1.092   .     S
C125   H129    1.093   .     S
C130   C131    1.398   .     S
C130   C135    1.411   .     D
C131   C132    1.390   .     D
C131   H136    1.091   .     S
C132   C133    1.411   .     S
C132   O137    1.379   .     S
C133   C134    1.398   .     D
C134   C135    1.390   .     S
C134   H138    1.090   .     S
C135   O139    1.379   .     S
O137   C140    1.431   .     S
O139   C141    1.431   .     S
C140   H142    1.102   .     S
C140   H143    1.102   .     S
C140   H144    1.094   .     S
C141   H145    1.102   .     S
C141   H146    1.095   .     S
C141   H147    1.101   .     S
C148   H150    1.092   .     S
C148   C149    1.394   1_565 S
C148   C247    1.394   1_455 D
C149   C197    1.394   .     D
C149   C251    1.480   .     S
C149   C148    1.394   1_545 S
N151   C152    1.348   .     D
N151   C250    1.348   .     S
C152   N200    1.348   .     S
C152   C267    1.473   .     S
C153   C154    1.398   .     S
C153   C158    1.398   .     D
C153   C198    1.480   .     S
C154   C155    1.380   .     D
C154   H159    1.092   1_545 S
C155   C156    1.399   .     S
C155   H160    1.091   .     S
C156   C157    1.399   .     D
C156   N166    1.407   .     S
C157   C158    1.380   .     S
C157   H161    1.092   .     S
C158   H162    1.092   .     S
H159   C154    1.092   1_565 S
C163   N164    1.296   .     D
C163   H167    1.112   .     S
C163   C179    1.458   .     S
N164   C172    1.407   .     S
C165   N166    1.297   .     D
C165   H168    1.112   .     S
C165   C182    1.457   .     S
C169   C170    1.397   .     D
C169   C174    1.396   .     S
C169   C201    1.473   .     S
C170   C171    1.379   .     S
C170   H175    1.092   .     S
C171   C172    1.399   .     D
C171   H176    1.091   .     S
C172   C173    1.399   .     S
C173   C174    1.380   .     D
C173   H177    1.092   .     S
C174   H178    1.093   .     S
C179   C180    1.398   .     D
C179   C184    1.411   .     S
C180   C181    1.390   .     S
C180   H185    1.091   .     S
C181   C182    1.411   .     D
C181   O186    1.379   .     S
C182   C183    1.398   .     S
C183   C184    1.390   .     D
C183   H187    1.090   .     S
C184   O188    1.379   .     S
O186   C189    1.431   .     S
O188   C190    1.431   .     S
C189   H191    1.102   .     S
C189   H192    1.102   .     S
C189   H193    1.094   .     S
C190   H194    1.102   .     S
C190   H195    1.095   .     S
C190   H196    1.101   .     S
C197   H199    1.092   .     S
C197   C198    1.394   1_455 S
C198   C197    1.394   1_655 S
C198   C246    1.394   1_545 D
N200   C201    1.348   .     D
C201   N249    1.348   .     S
C202   C203    1.398   .     D
C202   C207    1.398   .     S
C202   C247    1.480   .     S
C203   C204    1.380   .     S
C203   H208    1.092   1_655 S
C204   C205    1.399   .     D
C204   H209    1.091   .     S
C205   C206    1.399   .     S
C205   N215    1.407   .     S
C206   C207    1.380   .     D
C206   H210    1.092   .     S
C207   H211    1.092   .     S
H208   C203    1.092   1_455 S
C212   N213    1.296   .     D
C212   H216    1.112   .     S
C212   C228    1.458   .     S
N213   C221    1.407   .     S
C214   N215    1.297   .     D
C214   H217    1.112   .     S
C214   C231    1.457   .     S
C218   C219    1.397   .     S
C218   C223    1.396   .     D
C218   C250    1.473   .     S
C219   C220    1.379   .     D
C219   H224    1.092   .     S
C220   C221    1.399   .     S
C220   H225    1.091   .     S
C221   C222    1.399   .     D
C222   C223    1.380   .     S
C222   H226    1.092   .     S
C223   H227    1.093   .     S
C228   C229    1.398   .     S
C228   C233    1.411   .     D
C229   C230    1.390   .     D
C229   H234    1.091   .     S
C230   C231    1.411   .     S
C230   O235    1.379   .     S
C231   C232    1.398   .     D
C232   C233    1.390   .     S
C232   H236    1.090   .     S
C233   O237    1.379   .     S
O235   C238    1.431   .     S
O237   C239    1.431   .     S
C238   H240    1.102   .     S
C238   H241    1.102   .     S
C238   H242    1.094   .     S
C239   H243    1.102   .     S
C239   H244    1.095   .     S
C239   H245    1.101   .     S
C246   C247    1.394   .     S
C246   H248    1.092   .     S
C246   C198    1.394   1_565 D
C247   C148    1.394   1_655 D
N249   C250    1.348   .     D
C251   C252    1.398   .     D
C251   C256    1.398   .     S
C252   C253    1.380   .     S
C252   H257    1.092   .     S
C253   C254    1.399   .     D
C253   H258    1.091   .     S
C254   C255    1.399   .     S
C254   N264    1.407   .     S
C255   C256    1.380   .     D
C255   H259    1.092   .     S
C256   H260    1.092   .     S
C261   N262    1.296   .     D
C261   H265    1.112   .     S
C261   C277    1.458   .     S
N262   C270    1.407   .     S
C263   N264    1.297   .     D
C263   H266    1.112   .     S
C263   C280    1.457   .     S
C267   C268    1.397   .     D
C267   C272    1.396   .     S
C268   C269    1.379   .     S
C268   H273    1.092   .     S
C269   C270    1.399   .     D
C269   H274    1.091   .     S
C270   C271    1.399   .     S
C271   C272    1.380   .     D
C271   H275    1.092   .     S
C272   H276    1.093   .     S
C277   C278    1.398   .     S
C277   C282    1.411   .     D
C278   C279    1.390   .     D
C278   H283    1.091   .     S
C279   C280    1.411   .     S
C279   O284    1.379   .     S
C280   C281    1.398   .     D
C281   C282    1.390   .     S
C281   H285    1.090   .     S
C282   O286    1.379   .     S
O284   C287    1.431   .     S
O286   C288    1.431   .     S
C287   H289    1.102   .     S
C287   H290    1.102   .     S
C287   H291    1.094   .     S
C288   H292    1.102   .     S
C288   H293    1.095   .     S
C288   H294    1.101   .     S
