data_1111
_audit_creation_date              2023-09-08
_audit_creation_method            'Materials Studio'
_symmetry_space_group_name_H-M    'P1'
_symmetry_Int_Tables_number       1
_symmetry_cell_setting            triclinic
loop_
_symmetry_equiv_pos_as_xyz
  x,y,z
_cell_length_a                    22.9400
_cell_length_b                    23.1400
_cell_length_c                    3.6800
_cell_angle_alpha                 90.0000
_cell_angle_beta                  90.0000
_cell_angle_gamma                 120.0000
loop_
_atom_site_label
_atom_site_type_symbol
_atom_site_fract_x
_atom_site_fract_y
_atom_site_fract_z
_atom_site_U_iso_or_equiv
_atom_site_adp_type
_atom_site_occupancy
H11    H     2.36326  -4.86421   0.05468   0.00000  Uiso   1.00
H22    H     2.40779  -5.02049  -0.15721   0.00000  Uiso   1.00
H33    H     2.56774  -4.82297   0.08061   0.00000  Uiso   1.00
H44    H     2.58694  -4.72659  -0.12147   0.00000  Uiso   1.00
H55    H     2.48070  -5.03648   0.19821   0.00000  Uiso   1.00
H66    H     2.48659  -5.13690   0.08733   0.00000  Uiso   1.00
H77    H     2.55144  -5.19293   0.12831   0.00000  Uiso   1.00
H88    H     2.73552  -5.00295   0.09591   0.00000  Uiso   1.00
H99    H     2.67071  -4.94674   0.10374   0.00000  Uiso   1.00
H1010  H     2.74025  -5.10347   0.24364   0.00000  Uiso   1.00
H1111  H     2.65632  -5.31843   0.00923   0.00000  Uiso   1.00
H1212  H     2.86129  -5.27464  -0.02803   0.00000  Uiso   1.00
H1313  H     2.81601  -5.11595  -0.06869   0.00000  Uiso   1.00
H1414  H     2.95736  -5.19719   0.15147   0.00000  Uiso   1.00
H1515  H     3.05642  -5.18671  -0.24073   0.00000  Uiso   1.00
H1616  H     3.17766  -5.11778  -0.33001   0.00000  Uiso   1.00
H1717  H     3.17093  -4.94617   0.07121   0.00000  Uiso   1.00
H1818  H     3.04941  -5.01505   0.15622   0.00000  Uiso   1.00
H1919  H     3.27458  -4.93367  -0.26506   0.00000  Uiso   1.00
H2020  H     2.67804  -4.62596   0.23562   0.00000  Uiso   1.00
H2121  H     2.73067  -4.50535   0.29706   0.00000  Uiso   1.00
H2222  H     2.54684  -4.51489  -0.05597   0.00000  Uiso   1.00
H2323  H     2.49417  -4.63571  -0.11793   0.00000  Uiso   1.00
H2424  H     2.64022  -4.41107   0.25966   0.00000  Uiso   1.00
C125   C     2.39948  -4.88057   0.01830   0.00000  Uiso   1.00
C226   C     2.37673  -4.94842  -0.04982   0.00000  Uiso   1.00
C327   C     2.42452  -4.96897  -0.09022   0.00000  Uiso   1.00
C428   C     2.49351  -4.92394  -0.04299   0.00000  Uiso   1.00
C529   C     2.51487  -4.85671   0.02941   0.00000  Uiso   1.00
C630   C     2.46859  -4.83371   0.05012   0.00000  Uiso   1.00
C731   C     2.49144  -4.76159   0.11481   0.00000  Uiso   1.00
C832   C     2.55323  -4.71312   0.00949   0.00000  Uiso   1.00
C933   C     2.58159  -4.64048   0.06347   0.00000  Uiso   1.00
C1034  C     2.44520  -4.74491   0.28885   0.00000  Uiso   1.00
C1135  C     2.54373  -4.94658  -0.06766   0.00000  Uiso   1.00
C1236  C     2.52947  -5.00632   0.07161   0.00000  Uiso   1.00
C1337  C     2.57287  -5.03721   0.06770   0.00000  Uiso   1.00
C1438  C     2.54102  -5.10708   0.08198   0.00000  Uiso   1.00
C1539  C     2.57851  -5.13946   0.09713   0.00000  Uiso   1.00
C1640  C     2.64925  -5.10266   0.08745   0.00000  Uiso   1.00
C1741  C     2.68111  -5.03277   0.08730   0.00000  Uiso   1.00
C1842  C     2.64360  -5.00035   0.08269   0.00000  Uiso   1.00
C1943  C     2.69254  -5.13358   0.10726   0.00000  Uiso   1.00
C2044  C     2.67945  -5.19277  -0.03534   0.00000  Uiso   1.00
C2145  C     2.73051  -5.21473  -0.01503   0.00000  Uiso   1.00
C2246  C     2.70963  -5.28298   0.00673   0.00000  Uiso   1.00
C2347  C     2.75646  -5.30540   0.01089   0.00000  Uiso   1.00
C2448  C     2.82543  -5.25755  -0.01435   0.00000  Uiso   1.00
C2549  C     2.84805  -5.18876  -0.03837   0.00000  Uiso   1.00
C2650  C     2.79971  -5.16832  -0.03838   0.00000  Uiso   1.00
C2751  C     2.92123  -5.13811  -0.08574   0.00000  Uiso   1.00
C2852  C     2.97031  -5.15052   0.02053   0.00000  Uiso   1.00
C2953  C     3.04333  -5.10604  -0.04291   0.00000  Uiso   1.00
C3054  C     3.08107  -5.13420  -0.17183   0.00000  Uiso   1.00
C3155  C     3.15061  -5.09488  -0.21835   0.00000  Uiso   1.00
C3256  C     3.18413  -5.02689  -0.12527   0.00000  Uiso   1.00
C3357  C     3.14624  -4.99854  -0.00091   0.00000  Uiso   1.00
C3458  C     3.07661  -5.03782   0.04428   0.00000  Uiso   1.00
C3559  C     3.25804  -4.98331  -0.16234   0.00000  Uiso   1.00
C3660  C     3.30454  -4.99906  -0.05180   0.00000  Uiso   1.00
C3761  C     2.93844  -5.07522  -0.25713   0.00000  Uiso   1.00
C3862  C     3.28482  -5.06453   0.09210   0.00000  Uiso   1.00
C3963  C     2.61664  -5.23649  -0.21770   0.00000  Uiso   1.00
C4064  C     2.60703  -4.90240  -0.24373   0.00000  Uiso   1.00
C4165  C     2.64896  -4.60211   0.17202   0.00000  Uiso   1.00
C4266  C     2.67936  -4.53286   0.20270   0.00000  Uiso   1.00
C4367  C     2.64338  -4.50031   0.11586   0.00000  Uiso   1.00
C4468  C     2.57572  -4.53879   0.01135   0.00000  Uiso   1.00
C4569  C     2.54530  -4.60809  -0.01947   0.00000  Uiso   1.00
C4670  C     2.67320  -4.42688   0.14349   0.00000  Uiso   1.00
C4771  C     2.73430  -4.38066   0.01491   0.00000  Uiso   1.00
C4872  C     2.77982  -4.40080  -0.13417   0.00000  Uiso   1.00
N173   N     2.40764  -4.73212   0.42566   0.00000  Uiso   1.00
N274   N     2.95168  -5.02493  -0.39187   0.00000  Uiso   1.00
N375   N     3.26966  -5.11681   0.20574   0.00000  Uiso   1.00
N476   N     2.56642  -5.27217  -0.36206   0.00000  Uiso   1.00
N577   N     2.65763  -4.86634  -0.38352   0.00000  Uiso   1.00
N678   N     2.81701  -4.41608  -0.25071   0.00000  Uiso   1.00
loop_
_geom_bond_atom_site_label_1
_geom_bond_atom_site_label_2
_geom_bond_distance
_geom_bond_site_symmetry_2
_ccdc_geom_bond_type
H11    C125    1.080   .     S
H22    C327    1.082   .     S
H33    C529    1.081   .     S
H44    C832    1.081   .     S
H55    C1236   1.084   .     S
H66    C1438   1.084   .     S
H77    C1539   1.078   .     S
H88    C1741   1.083   .     S
H99    C1842   1.077   .     S
H1010  C1943   1.083   .     S
H1111  C2246   1.080   .     S
H1212  C2448   1.077   .     S
H1313  C2650   1.081   .     S
H1414  C2852   1.080   .     S
H1515  C3054   1.083   .     S
H1616  C3155   1.079   .     S
H1717  C3357   1.083   .     S
H1818  C3458   1.080   .     S
H1919  C3559   1.082   .     S
H2020  C4165   1.083   .     S
H2121  C4266   1.078   .     S
H2222  C4468   1.083   .     S
H2323  C4569   1.080   .     S
H2424  C4670   1.080   .     S
C125   C226    1.407   .     S
C125   C630    1.408   .     D
C226   C327    1.404   .     D
C226   C3660   1.475   1_455 S
C327   C428    1.404   .     S
C428   C529    1.403   .     D
C428   C1135   1.488   .     S
C529   C630    1.408   .     S
C630   C731    1.497   .     S
C731   C832    1.352   .     D
C731   C1034   1.447   .     S
C832   C933    1.481   .     S
C933   C4165   1.401   .     D
C933   C4569   1.404   .     S
C1034  N173    1.157   .     T
C1135  C1236   1.352   .     D
C1135  C4064   1.445   .     S
C1236  C1337   1.488   .     S
C1337  C1438   1.403   .     S
C1337  C1842   1.407   .     D
C1438  C1539   1.396   .     D
C1539  C1640   1.406   .     S
C1640  C1741   1.403   .     D
C1640  C1943   1.488   .     S
C1741  C1842   1.396   .     S
C1943  C2044   1.353   .     D
C2044  C2145   1.494   .     S
C2044  C3963   1.446   .     S
C2145  C2246   1.405   .     D
C2145  C2650   1.406   .     S
C2246  C2347   1.407   .     S
C2347  C2448   1.409   .     D
C2347  C4771   1.551   1_545 S
C2448  C2549   1.409   .     S
C2549  C2650   1.406   .     D
C2549  C2751   1.502   .     S
C2751  C2852   1.351   .     D
C2751  C3761   1.448   .     S
C2852  C2953   1.482   .     S
C2953  C3054   1.401   .     D
C2953  C3458   1.405   .     S
C3054  C3155   1.397   .     S
C3155  C3256   1.405   .     D
C3256  C3357   1.402   .     S
C3256  C3559   1.483   .     S
C3357  C3458   1.398   .     D
C3559  C3660   1.351   .     D
C3660  C3862   1.447   .     S
C3660  C226    1.475   1_655 S
C3761  N274    1.157   .     T
C3862  N375    1.157   .     T
C3963  N476    1.158   .     T
C4064  N577    1.157   .     T
C4165  C4266   1.396   .     S
C4266  C4367   1.404   .     D
C4367  C4468   1.403   .     S
C4367  C4670   1.484   .     S
C4468  C4569   1.397   .     D
C4670  C4771   1.354   .     D
C4771  C4872   1.447   .     S
C4771  C2347   1.551   1_565 S
C4872  N678    1.157   .     T
