data_1112
_audit_creation_date              2023-09-08
_audit_creation_method            'Materials Studio'
_symmetry_space_group_name_H-M    'P1'
_symmetry_Int_Tables_number       1
_symmetry_cell_setting            triclinic
loop_
_symmetry_equiv_pos_as_xyz
  x,y,z
_cell_length_a                    22.5100
_cell_length_b                    22.5100
_cell_length_c                    4.9300
_cell_angle_alpha                 90.0000
_cell_angle_beta                  90.0000
_cell_angle_gamma                 120.0000
loop_
_atom_site_label
_atom_site_type_symbol
_atom_site_fract_x
_atom_site_fract_y
_atom_site_fract_z
_atom_site_U_iso_or_equiv
_atom_site_adp_type
_atom_site_occupancy
H1     H     0.29051   0.54049   0.54121   0.00000  Uiso   1.00
H2     H     0.49526   0.85021   0.52780   0.00000  Uiso   1.00
H3     H     0.58534   0.95954   0.60891   0.00000  Uiso   1.00
H4     H     0.62172   0.07451   0.88328   0.00000  Uiso   1.00
H5     H     0.83653   0.54278   0.02033   0.00000  Uiso   1.00
H6     H    -0.54049  -0.24998   0.54121   0.00000  Uiso   1.00
H7     H    -0.85021  -0.35495   0.52780   0.00000  Uiso   1.00
H8     H    -0.95954  -0.37420   0.60890   0.00000  Uiso   1.00
H9     H    -0.07451   0.54722   0.88326   0.00000  Uiso   1.00
H10    H    -0.52724   0.24379   0.19359   0.00000  Uiso   1.00
H11    H     0.24998  -0.29051   0.54121   0.00000  Uiso   1.00
H12    H     0.35495  -0.49526   0.52780   0.00000  Uiso   1.00
H13    H     0.37420  -0.58534   0.60890   0.00000  Uiso   1.00
H14    H    -0.54721  -0.62171   0.88329   0.00000  Uiso   1.00
H15    H    -0.27996  -0.83050   0.04911   0.00000  Uiso   1.00
H16    H    -0.29051  -0.54049   0.54121   0.00000  Uiso   1.00
H17    H    -0.49526  -0.85021   0.52780   0.00000  Uiso   1.00
H18    H    -0.58534  -0.95954   0.60891   0.00000  Uiso   1.00
H19    H    -0.61943  -0.08412   0.88222   0.00000  Uiso   1.00
H20    H    -0.80441  -0.55150   0.12814   0.00000  Uiso   1.00
H21    H     0.54049   0.24998   0.54121   0.00000  Uiso   1.00
H22    H     0.85021   0.35495   0.52780   0.00000  Uiso   1.00
H23    H     0.95954   0.37420   0.60890   0.00000  Uiso   1.00
H24    H     0.08412  -0.53532   0.88220   0.00000  Uiso   1.00
H25    H     0.53151  -0.24359   0.18744   0.00000  Uiso   1.00
H26    H    -0.24998   0.29051   0.54121   0.00000  Uiso   1.00
H27    H    -0.35495   0.49526   0.52780   0.00000  Uiso   1.00
H28    H    -0.37420   0.58534   0.60890   0.00000  Uiso   1.00
H29    H     0.53533   0.61943   0.88222   0.00000  Uiso   1.00
H30    H     0.32342   0.83539  -0.01936   0.00000  Uiso   1.00
C31    C     0.26171   0.62116   0.52129   0.00000  Uiso   1.00
C32    C     0.30939   0.59778   0.52858   0.00000  Uiso   1.00
C33    C     0.38340   0.81294   0.50591   0.00000  Uiso   1.00
C34    C     0.45281   0.86310   0.55987   0.00000  Uiso   1.00
C35    C     0.47657   0.93043   0.65327   0.00000  Uiso   1.00
C36    C     0.54732   0.97679   0.66770   0.00000  Uiso   1.00
C37    C     0.57273   0.04716   0.75766   0.00000  Uiso   1.00
C38    C     0.33463   0.83701   0.40536   0.00000  Uiso   1.00
C39    C    -0.62116  -0.35945   0.52129   0.00000  Uiso   1.00
C40    C    -0.59778  -0.28839   0.52858   0.00000  Uiso   1.00
C41    C    -0.81294  -0.42954   0.50591   0.00000  Uiso   1.00
C42    C    -0.86310  -0.41029   0.55987   0.00000  Uiso   1.00
C43    C    -0.93043  -0.45386   0.65327   0.00000  Uiso   1.00
C44    C    -0.97679  -0.42947   0.66770   0.00000  Uiso   1.00
C45    C    -0.04716   0.52558   0.75766   0.00000  Uiso   1.00
C46    C    -0.83701  -0.50238   0.40536   0.00000  Uiso   1.00
C47    C     0.35945  -0.26171   0.52129   0.00000  Uiso   1.00
C48    C     0.28839  -0.30939   0.52858   0.00000  Uiso   1.00
C49    C     0.42954  -0.38340   0.50591   0.00000  Uiso   1.00
C50    C     0.41029  -0.45281   0.55987   0.00000  Uiso   1.00
C51    C     0.45386  -0.47657   0.65327   0.00000  Uiso   1.00
C52    C     0.42947  -0.54732   0.66770   0.00000  Uiso   1.00
C53    C    -0.52558  -0.57273   0.75766   0.00000  Uiso   1.00
C54    C     0.50238  -0.33463   0.40536   0.00000  Uiso   1.00
C55    C    -0.26171  -0.62116   0.52129   0.00000  Uiso   1.00
C56    C    -0.30939  -0.59778   0.52858   0.00000  Uiso   1.00
C57    C    -0.38340  -0.81294   0.50591   0.00000  Uiso   1.00
C58    C    -0.45281  -0.86310   0.55987   0.00000  Uiso   1.00
C59    C    -0.47657  -0.93043   0.65327   0.00000  Uiso   1.00
C60    C    -0.54732  -0.97679   0.66770   0.00000  Uiso   1.00
C61    C    -0.57273  -0.04716   0.75766   0.00000  Uiso   1.00
C62    C    -0.33463  -0.83701   0.40536   0.00000  Uiso   1.00
C63    C     0.62116   0.35945   0.52129   0.00000  Uiso   1.00
C64    C     0.59778   0.28839   0.52858   0.00000  Uiso   1.00
C65    C     0.81294   0.42954   0.50591   0.00000  Uiso   1.00
C66    C     0.86310   0.41029   0.55987   0.00000  Uiso   1.00
C67    C     0.93043   0.45386   0.65327   0.00000  Uiso   1.00
C68    C     0.97679   0.42947   0.66770   0.00000  Uiso   1.00
C69    C     0.04716  -0.52558   0.75766   0.00000  Uiso   1.00
C70    C     0.83701   0.50238   0.40536   0.00000  Uiso   1.00
C71    C    -0.35945   0.26171   0.52129   0.00000  Uiso   1.00
C72    C    -0.28839   0.30939   0.52858   0.00000  Uiso   1.00
C73    C    -0.42954   0.38340   0.50591   0.00000  Uiso   1.00
C74    C    -0.41029   0.45281   0.55987   0.00000  Uiso   1.00
C75    C    -0.45386   0.47657   0.65327   0.00000  Uiso   1.00
C76    C    -0.42947   0.54732   0.66770   0.00000  Uiso   1.00
C77    C     0.52558   0.57273   0.75766   0.00000  Uiso   1.00
C78    C    -0.50238   0.33463   0.40536   0.00000  Uiso   1.00
N79    N     0.80090   0.50095   0.15751   0.00000  Uiso   1.00
N80    N    -0.50095   0.29996   0.15751   0.00000  Uiso   1.00
N81    N    -0.29996  -0.80090   0.15751   0.00000  Uiso   1.00
N82    N    -0.80090  -0.50095   0.15751   0.00000  Uiso   1.00
N83    N     0.50095  -0.29996   0.15751   0.00000  Uiso   1.00
N84    N     0.29996   0.80090   0.15751   0.00000  Uiso   1.00
H85    H     0.32966   0.87795   0.52266   0.00000  Uiso   1.00
H86    H    -0.87796  -0.54830   0.52266   0.00000  Uiso   1.00
H87    H     0.54830  -0.32966   0.52267   0.00000  Uiso   1.00
H88    H    -0.32966  -0.87795   0.52266   0.00000  Uiso   1.00
H89    H     0.87796   0.54830   0.52266   0.00000  Uiso   1.00
H90    H    -0.54830   0.32966   0.52267   0.00000  Uiso   1.00
H91    H     0.25381   0.53959   0.17409   0.00000  Uiso   1.00
H92    H     0.75694   0.50822   0.20894   0.00000  Uiso   1.00
H93    H     0.24475   0.78505   0.17008   0.00000  Uiso   1.00
H94    H     0.55309   0.31865   0.09758   0.00000  Uiso   1.00
H95    H     0.44713   0.68514   0.10850   0.00000  Uiso   1.00
H96    H     0.74327   0.25070   0.20980   0.00000  Uiso   1.00
loop_
_geom_bond_atom_site_label_1
_geom_bond_atom_site_label_2
_geom_bond_distance
_geom_bond_site_symmetry_2
_ccdc_geom_bond_type
H1     C32     1.140   .     S
H2     C34     1.140   .     S
H3     C36     1.140   .     S
H4     C37     1.140   .     S
H5     N79     1.110   .     S
H6     C40     1.140   .     S
H7     C42     1.140   .     S
H8     C44     1.140   .     S
H9     C45     1.140   .     S
H10    N80     1.110   .     S
H11    C48     1.140   .     S
H12    C50     1.140   .     S
H13    C52     1.140   .     S
H14    C53     1.140   .     S
H15    N81     1.110   .     S
H16    C56     1.140   .     S
H17    C58     1.140   .     S
H18    C60     1.140   .     S
H19    C61     1.140   .     S
H20    N82     1.110   .     S
H21    C64     1.140   .     S
H22    C66     1.140   .     S
H23    C68     1.140   .     S
H24    C69     1.140   .     S
H25    N83     1.110   .     S
H26    C72     1.140   .     S
H27    C74     1.140   .     S
H28    C76     1.140   .     S
H29    C77     1.140   .     S
H30    N84     1.110   .     S
C31    C32     1.412   .     D
C31    C41     1.488   1_665 S
C31    C48     1.366   1_565 S
C32    C39     1.366   1_665 S
C33    C34     1.422   .     S
C33    C38     1.529   .     D
C33    C47     1.488   1_565 S
C34    C35     1.409   .     D
C35    C36     1.403   .     S
C35    C61     1.520   1_665 S
C36    C37     1.458   1_565 D
C37    C36     1.458   1_545 D
C37    C59     1.520   1_665 S
C38    N84     1.459   .     S
C38    H85     1.140   .     S
C39    C40     1.412   .     D
C39    C32     1.366   1_445 S
C39    C49     1.488   1_455 S
C40    C47     1.366   1_455 S
C41    C42     1.422   .     S
C41    C46     1.529   .     D
C41    C31     1.488   1_445 S
C42    C43     1.409   .     D
C43    C44     1.403   .     S
C43    C69     1.520   1_455 S
C44    C45     1.458   1_445 D
C45    C44     1.458   1_665 D
C45    C67     1.520   1_455 S
C46    N82     1.459   .     S
C46    H86     1.140   .     S
C47    C48     1.412   .     D
C47    C33     1.488   1_545 S
C47    C40     1.366   1_655 S
C48    C31     1.366   1_545 S
C49    C50     1.422   .     S
C49    C54     1.529   .     D
C49    C39     1.488   1_655 S
C50    C51     1.409   .     D
C51    C52     1.403   .     S
C51    C77     1.520   1_545 S
C52    C53     1.458   1_655 D
C53    C52     1.458   1_455 D
C53    C75     1.520   1_545 S
C54    N83     1.459   .     S
C54    H87     1.140   .     S
C55    C56     1.412   .     D
C55    C65     1.488   1_445 S
C55    C72     1.366   1_545 S
C56    C63     1.366   1_445 S
C57    C58     1.422   .     S
C57    C62     1.529   .     D
C57    C71     1.488   1_545 S
C58    C59     1.409   .     D
C59    C60     1.403   .     S
C59    C37     1.520   1_445 S
C60    C61     1.458   1_545 D
C61    C35     1.520   1_445 S
C61    C60     1.458   1_565 D
C62    N81     1.459   .     S
C62    H88     1.140   .     S
C63    C64     1.412   .     D
C63    C56     1.366   1_665 S
C63    C73     1.488   1_655 S
C64    C71     1.366   1_655 S
C65    C66     1.422   .     S
C65    C70     1.529   .     D
C65    C55     1.488   1_665 S
C66    C67     1.409   .     D
C67    C68     1.403   .     S
C67    C45     1.520   1_655 S
C68    C69     1.458   1_665 D
C69    C43     1.520   1_655 S
C69    C68     1.458   1_445 D
C70    N79     1.459   .     S
C70    H89     1.140   .     S
C71    C72     1.412   .     D
C71    C57     1.488   1_565 S
C71    C64     1.366   1_455 S
C72    C55     1.366   1_565 S
C73    C74     1.422   .     S
C73    C78     1.529   .     D
C73    C63     1.488   1_455 S
C74    C75     1.409   .     D
C75    C76     1.403   .     S
C75    C53     1.520   1_565 S
C76    C77     1.458   1_455 D
C77    C51     1.520   1_565 S
C77    C76     1.458   1_655 D
C78    N80     1.459   .     S
C78    H90     1.140   .     S
N79    H92     1.110   .     S
N80    H94     1.110   1_455 S
N81    H96     1.110   1_445 S
N82    H91     1.110   1_445 S
N83    H95     1.110   1_545 S
N84    H93     1.110   .     S
H91    N82     1.110   1_665 S
H94    N80     1.110   1_655 S
H95    N83     1.110   1_565 S
H96    N81     1.110   1_665 S
