data_1113
_audit_creation_date              2023-09-08
_audit_creation_method            'Materials Studio'
_symmetry_space_group_name_H-M    'P1'
_symmetry_Int_Tables_number       1
_symmetry_cell_setting            triclinic
loop_
_symmetry_equiv_pos_as_xyz
  x,y,z
_cell_length_a                    36.0116
_cell_length_b                    36.0116
_cell_length_c                    5.2596
_cell_angle_alpha                 90.0000
_cell_angle_beta                  90.0000
_cell_angle_gamma                 90.0000
loop_
_atom_site_label
_atom_site_type_symbol
_atom_site_fract_x
_atom_site_fract_y
_atom_site_fract_z
_atom_site_U_iso_or_equiv
_atom_site_adp_type
_atom_site_occupancy
C1     C     0.47240   0.11340  -0.11960   0.00000  Uiso   1.00
C2     C     0.46400   0.07760  -0.04300   0.00000  Uiso   1.00
N3     N     0.49530   0.05850   0.01210   0.00000  Uiso   1.00
C4     C     0.38790   0.01330   0.15400   0.00000  Uiso   1.00
C5     C     0.42090   0.02670   0.05450   0.00000  Uiso   1.00
C6     C     0.42790   0.06420  -0.00240   0.00000  Uiso   1.00
C7     C     0.39650   0.09070  -0.00850   0.00000  Uiso   1.00
C8     C     0.39290   0.11770   0.18220   0.00000  Uiso   1.00
C9     C     0.36380   0.14340   0.17330   0.00000  Uiso   1.00
C10    C     0.33800   0.14220  -0.02640   0.00000  Uiso   1.00
C11    C     0.34150   0.11530  -0.21620   0.00000  Uiso   1.00
C12    C     0.37040   0.08940  -0.20700   0.00000  Uiso   1.00
N13    N     0.30930   0.16950  -0.04660   0.00000  Uiso   1.00
C14    C     0.28350   0.17800   0.16030   0.00000  Uiso   1.00
C15    C     0.26540   0.21550   0.11590   0.00000  Uiso   1.00
C16    C     0.27260   0.24580   0.27810   0.00000  Uiso   1.00
C17    C     0.25590   0.28010   0.23030   0.00000  Uiso   1.00
C18    C     0.23350   0.28560   0.01380   0.00000  Uiso   1.00
C19    C     0.22480   0.25500  -0.14420   0.00000  Uiso   1.00
C20    C     0.24170   0.22050  -0.09420   0.00000  Uiso   1.00
P21    P     0.24810   0.14000   0.18560   0.00000  Uiso   1.00
O22    O     0.24400   0.12800   0.46880   0.00000  Uiso   1.00
O23    O     0.20340   0.15390   0.09500   0.00000  Uiso   1.00
O24    O     0.25960   0.10040   0.00580   0.00000  Uiso   1.00
O25    O     0.29580   0.24190   0.49030   0.00000  Uiso   1.00
O26    O     0.19930   0.26000  -0.34640   0.00000  Uiso   1.00
N27    N     0.00330   0.44580   0.00460   0.00000  Uiso   1.00
C28    C     0.10340   0.41150   0.05810   0.00000  Uiso   1.00
C29    C     0.10800   0.38260  -0.11800   0.00000  Uiso   1.00
C30    C     0.13700   0.35710  -0.08790   0.00000  Uiso   1.00
C31    C     0.12780   0.41450   0.26510   0.00000  Uiso   1.00
C32    C     0.16140   0.36020   0.11950   0.00000  Uiso   1.00
C33    C     0.15640   0.38880   0.29650   0.00000  Uiso   1.00
C34    C     0.21710   0.32360  -0.04010   0.00000  Uiso   1.00
N35    N     0.19050   0.33370   0.15880   0.00000  Uiso   1.00
P36    P     0.25270   0.36140  -0.07670   0.00000  Uiso   1.00
O37    O     0.23570   0.38390  -0.30150   0.00000  Uiso   1.00
O38    O     0.29690   0.35430  -0.20770   0.00000  Uiso   1.00
O39    O     0.25160   0.39680   0.15700   0.00000  Uiso   1.00
C40    C     0.11610   0.48760  -0.10830   0.00000  Uiso   1.00
C41    C     0.08160   0.47560  -0.02650   0.00000  Uiso   1.00
C42    C     0.02690   0.39130   0.16680   0.00000  Uiso   1.00
C43    C     0.03620   0.42610   0.07340   0.00000  Uiso   1.00
C44    C     0.07270   0.43840   0.02940   0.00000  Uiso   1.00
H45    H     0.45330   0.13540  -0.16960   0.00000  Uiso   1.00
H46    H     0.36390   0.02940   0.20870   0.00000  Uiso   1.00
H47    H     0.41280   0.11920   0.33660   0.00000  Uiso   1.00
H48    H     0.36210   0.16450   0.31890   0.00000  Uiso   1.00
H49    H     0.32170   0.11440  -0.37010   0.00000  Uiso   1.00
H50    H     0.37260   0.06880  -0.35650   0.00000  Uiso   1.00
H51    H     0.30700   0.18390  -0.22160   0.00000  Uiso   1.00
H52    H     0.29900   0.17810   0.34240   0.00000  Uiso   1.00
H53    H     0.26100   0.30270   0.36150   0.00000  Uiso   1.00
H54    H     0.23720   0.19720  -0.22030   0.00000  Uiso   1.00
C55    C     0.33330   0.25190   0.44150   0.00000  Uiso   1.00
C56    C     0.18190   0.22800  -0.45310   0.00000  Uiso   1.00
H57    H     0.00220   0.46800  -0.12220   0.00000  Uiso   1.00
H58    H     0.08920   0.37970  -0.27800   0.00000  Uiso   1.00
H59    H     0.13980   0.33470  -0.22340   0.00000  Uiso   1.00
H60    H     0.12430   0.43660   0.40330   0.00000  Uiso   1.00
H61    H     0.17470   0.39120   0.45810   0.00000  Uiso   1.00
H62    H     0.20240   0.32280  -0.22400   0.00000  Uiso   1.00
H63    H     0.19500   0.32410   0.34580   0.00000  Uiso   1.00
C64    C     0.31550   0.32640  -0.06990   0.00000  Uiso   1.00
C65    C     0.28680   0.41300   0.18630   0.00000  Uiso   1.00
H66    H     0.14020   0.47100  -0.15000   0.00000  Uiso   1.00
H67    H     0.04590   0.36990   0.23020   0.00000  Uiso   1.00
C68    C     0.29600   0.44010  -0.02900   0.00000  Uiso   1.00
C69    C     0.35690   0.32900  -0.12240   0.00000  Uiso   1.00
C70    C     0.17980   0.12280   0.10100   0.00000  Uiso   1.00
C71    C     0.14080   0.13520   0.02810   0.00000  Uiso   1.00
C72    C     0.26880   0.07070   0.16950   0.00000  Uiso   1.00
C73    C     0.28060   0.03730   0.00970   0.00000  Uiso   1.00
H74    H     0.17860   0.11070   0.29550   0.00000  Uiso   1.00
H75    H     0.18890   0.10140  -0.03720   0.00000  Uiso   1.00
H76    H     0.13090   0.15690   0.16190   0.00000  Uiso   1.00
H77    H     0.12160   0.11110   0.03580   0.00000  Uiso   1.00
H78    H     0.14080   0.14650  -0.16840   0.00000  Uiso   1.00
H79    H     0.24400   0.06240   0.28500   0.00000  Uiso   1.00
H80    H     0.29240   0.07830   0.29630   0.00000  Uiso   1.00
H81    H     0.28810   0.01370   0.13580   0.00000  Uiso   1.00
H82    H     0.30500   0.04450  -0.10980   0.00000  Uiso   1.00
H83    H     0.25740   0.02860  -0.11740   0.00000  Uiso   1.00
H84    H     0.27160   0.45790  -0.07270   0.00000  Uiso   1.00
H85    H     0.30410   0.42480  -0.20310   0.00000  Uiso   1.00
H86    H     0.31960   0.45800   0.02790   0.00000  Uiso   1.00
H87    H     0.30920   0.39210   0.21480   0.00000  Uiso   1.00
H88    H     0.28580   0.42940   0.36490   0.00000  Uiso   1.00
H89    H     0.36780   0.35630  -0.05450   0.00000  Uiso   1.00
H90    H     0.36230   0.32630  -0.33060   0.00000  Uiso   1.00
H91    H     0.37170   0.30620  -0.02060   0.00000  Uiso   1.00
H92    H     0.30560   0.29870  -0.13410   0.00000  Uiso   1.00
H93    H     0.31160   0.32980   0.13940   0.00000  Uiso   1.00
H94    H     0.20210   0.21090  -0.55980   0.00000  Uiso   1.00
H95    H     0.16050   0.23700  -0.59120   0.00000  Uiso   1.00
H96    H     0.16810   0.21140  -0.30260   0.00000  Uiso   1.00
H97    H     0.34510   0.23470   0.28550   0.00000  Uiso   1.00
H98    H     0.34990   0.24710   0.61720   0.00000  Uiso   1.00
H99    H     0.33540   0.28160   0.39030   0.00000  Uiso   1.00
C100   C     0.52760   0.88660  -0.11960   0.00000  Uiso   1.00
C101   C     0.53600   0.92240  -0.04300   0.00000  Uiso   1.00
N102   N     0.50470   0.94150   0.01210   0.00000  Uiso   1.00
C103   C     0.61210   0.98670   0.15400   0.00000  Uiso   1.00
C104   C     0.57910   0.97330   0.05450   0.00000  Uiso   1.00
C105   C     0.57210   0.93580  -0.00240   0.00000  Uiso   1.00
C106   C     0.60350   0.90930  -0.00850   0.00000  Uiso   1.00
C107   C     0.60710   0.88230   0.18220   0.00000  Uiso   1.00
C108   C     0.63620   0.85660   0.17330   0.00000  Uiso   1.00
C109   C     0.66200   0.85780  -0.02640   0.00000  Uiso   1.00
C110   C     0.65850   0.88470  -0.21620   0.00000  Uiso   1.00
C111   C     0.62960   0.91060  -0.20700   0.00000  Uiso   1.00
N112   N     0.69070   0.83050  -0.04660   0.00000  Uiso   1.00
C113   C     0.71650   0.82200   0.16030   0.00000  Uiso   1.00
C114   C     0.73460   0.78450   0.11590   0.00000  Uiso   1.00
C115   C     0.72740   0.75420   0.27810   0.00000  Uiso   1.00
C116   C     0.74410   0.71990   0.23030   0.00000  Uiso   1.00
C117   C     0.76650   0.71440   0.01380   0.00000  Uiso   1.00
C118   C     0.77520   0.74500  -0.14420   0.00000  Uiso   1.00
C119   C     0.75830   0.77950  -0.09420   0.00000  Uiso   1.00
P120   P     0.75190   0.86000   0.18560   0.00000  Uiso   1.00
O121   O     0.75600   0.87200   0.46880   0.00000  Uiso   1.00
O122   O     0.79660   0.84610   0.09500   0.00000  Uiso   1.00
O123   O     0.74040   0.89960   0.00580   0.00000  Uiso   1.00
O124   O     0.70420   0.75810   0.49030   0.00000  Uiso   1.00
O125   O     0.80070   0.74000  -0.34640   0.00000  Uiso   1.00
N126   N     0.99670   0.55420   0.00460   0.00000  Uiso   1.00
C127   C     0.89660   0.58850   0.05810   0.00000  Uiso   1.00
C128   C     0.89200   0.61740  -0.11800   0.00000  Uiso   1.00
C129   C     0.86300   0.64290  -0.08790   0.00000  Uiso   1.00
C130   C     0.87220   0.58550   0.26510   0.00000  Uiso   1.00
C131   C     0.83860   0.63980   0.11950   0.00000  Uiso   1.00
C132   C     0.84360   0.61120   0.29650   0.00000  Uiso   1.00
C133   C     0.78290   0.67640  -0.04010   0.00000  Uiso   1.00
N134   N     0.80950   0.66630   0.15880   0.00000  Uiso   1.00
P135   P     0.74730   0.63860  -0.07670   0.00000  Uiso   1.00
O136   O     0.76430   0.61610  -0.30150   0.00000  Uiso   1.00
O137   O     0.70310   0.64570  -0.20770   0.00000  Uiso   1.00
O138   O     0.74840   0.60320   0.15700   0.00000  Uiso   1.00
C139   C     0.88390   0.51240  -0.10830   0.00000  Uiso   1.00
C140   C     0.91840   0.52440  -0.02650   0.00000  Uiso   1.00
C141   C     0.97310   0.60870   0.16680   0.00000  Uiso   1.00
C142   C     0.96380   0.57390   0.07340   0.00000  Uiso   1.00
C143   C     0.92730   0.56160   0.02940   0.00000  Uiso   1.00
H144   H     0.54670   0.86460  -0.16960   0.00000  Uiso   1.00
H145   H     0.63610   0.97060   0.20870   0.00000  Uiso   1.00
H146   H     0.58720   0.88080   0.33660   0.00000  Uiso   1.00
H147   H     0.63790   0.83550   0.31890   0.00000  Uiso   1.00
H148   H     0.67830   0.88560  -0.37010   0.00000  Uiso   1.00
H149   H     0.62740   0.93120  -0.35650   0.00000  Uiso   1.00
H150   H     0.69300   0.81610  -0.22160   0.00000  Uiso   1.00
H151   H     0.70100   0.82190   0.34240   0.00000  Uiso   1.00
H152   H     0.73900   0.69730   0.36150   0.00000  Uiso   1.00
H153   H     0.76280   0.80280  -0.22030   0.00000  Uiso   1.00
C154   C     0.66670   0.74810   0.44150   0.00000  Uiso   1.00
C155   C     0.81810   0.77200  -0.45310   0.00000  Uiso   1.00
H156   H     0.99780   0.53200  -0.12220   0.00000  Uiso   1.00
H157   H     0.91080   0.62030  -0.27800   0.00000  Uiso   1.00
H158   H     0.86020   0.66530  -0.22340   0.00000  Uiso   1.00
H159   H     0.87570   0.56340   0.40330   0.00000  Uiso   1.00
H160   H     0.82530   0.60880   0.45810   0.00000  Uiso   1.00
H161   H     0.79760   0.67720  -0.22400   0.00000  Uiso   1.00
H162   H     0.80500   0.67590   0.34580   0.00000  Uiso   1.00
C163   C     0.68450   0.67360  -0.06990   0.00000  Uiso   1.00
C164   C     0.71320   0.58700   0.18630   0.00000  Uiso   1.00
H165   H     0.85980   0.52900  -0.15000   0.00000  Uiso   1.00
H166   H     0.95410   0.63010   0.23020   0.00000  Uiso   1.00
C167   C     0.70400   0.55990  -0.02900   0.00000  Uiso   1.00
C168   C     0.64310   0.67100  -0.12240   0.00000  Uiso   1.00
C169   C     0.82020   0.87720   0.10100   0.00000  Uiso   1.00
C170   C     0.85920   0.86480   0.02810   0.00000  Uiso   1.00
C171   C     0.73120   0.92930   0.16950   0.00000  Uiso   1.00
C172   C     0.71940   0.96270   0.00970   0.00000  Uiso   1.00
H173   H     0.82140   0.88930   0.29550   0.00000  Uiso   1.00
H174   H     0.81110   0.89860  -0.03720   0.00000  Uiso   1.00
H175   H     0.86910   0.84310   0.16190   0.00000  Uiso   1.00
H176   H     0.87840   0.88890   0.03580   0.00000  Uiso   1.00
H177   H     0.85920   0.85350  -0.16840   0.00000  Uiso   1.00
H178   H     0.75600   0.93760   0.28500   0.00000  Uiso   1.00
H179   H     0.70760   0.92170   0.29630   0.00000  Uiso   1.00
H180   H     0.71190   0.98630   0.13580   0.00000  Uiso   1.00
H181   H     0.69500   0.95550  -0.10980   0.00000  Uiso   1.00
H182   H     0.74260   0.97140  -0.11740   0.00000  Uiso   1.00
H183   H     0.72840   0.54210  -0.07270   0.00000  Uiso   1.00
H184   H     0.69590   0.57520  -0.20310   0.00000  Uiso   1.00
H185   H     0.68040   0.54200   0.02790   0.00000  Uiso   1.00
H186   H     0.69080   0.60790   0.21480   0.00000  Uiso   1.00
H187   H     0.71420   0.57060   0.36490   0.00000  Uiso   1.00
H188   H     0.63220   0.64370  -0.05450   0.00000  Uiso   1.00
H189   H     0.63770   0.67370  -0.33060   0.00000  Uiso   1.00
H190   H     0.62830   0.69380  -0.02060   0.00000  Uiso   1.00
H191   H     0.69440   0.70130  -0.13410   0.00000  Uiso   1.00
H192   H     0.68840   0.67020   0.13940   0.00000  Uiso   1.00
H193   H     0.79790   0.78910  -0.55980   0.00000  Uiso   1.00
H194   H     0.83950   0.76300  -0.59120   0.00000  Uiso   1.00
H195   H     0.83190   0.78860  -0.30260   0.00000  Uiso   1.00
H196   H     0.65490   0.76530   0.28550   0.00000  Uiso   1.00
H197   H     0.65010   0.75290   0.61720   0.00000  Uiso   1.00
H198   H     0.66460   0.71840   0.39030   0.00000  Uiso   1.00
C199   C     0.88660   0.47240  -0.11960   0.00000  Uiso   1.00
C200   C     0.92240   0.46400  -0.04300   0.00000  Uiso   1.00
N201   N     0.94150   0.49530   0.01210   0.00000  Uiso   1.00
C202   C     0.98670   0.38790   0.15400   0.00000  Uiso   1.00
C203   C     0.97330   0.42090   0.05450   0.00000  Uiso   1.00
C204   C     0.93580   0.42790  -0.00240   0.00000  Uiso   1.00
C205   C     0.90930   0.39650  -0.00850   0.00000  Uiso   1.00
C206   C     0.88230   0.39290   0.18220   0.00000  Uiso   1.00
C207   C     0.85660   0.36380   0.17330   0.00000  Uiso   1.00
C208   C     0.85780   0.33800  -0.02640   0.00000  Uiso   1.00
C209   C     0.88470   0.34150  -0.21620   0.00000  Uiso   1.00
C210   C     0.91060   0.37040  -0.20700   0.00000  Uiso   1.00
N211   N     0.83050   0.30930  -0.04660   0.00000  Uiso   1.00
C212   C     0.82200   0.28350   0.16030   0.00000  Uiso   1.00
C213   C     0.78450   0.26540   0.11590   0.00000  Uiso   1.00
C214   C     0.75420   0.27260   0.27810   0.00000  Uiso   1.00
C215   C     0.71990   0.25590   0.23030   0.00000  Uiso   1.00
C216   C     0.71440   0.23350   0.01380   0.00000  Uiso   1.00
C217   C     0.74500   0.22480  -0.14420   0.00000  Uiso   1.00
C218   C     0.77950   0.24170  -0.09420   0.00000  Uiso   1.00
P219   P     0.86000   0.24810   0.18560   0.00000  Uiso   1.00
O220   O     0.87200   0.24400   0.46880   0.00000  Uiso   1.00
O221   O     0.84610   0.20340   0.09500   0.00000  Uiso   1.00
O222   O     0.89960   0.25960   0.00580   0.00000  Uiso   1.00
O223   O     0.75810   0.29580   0.49030   0.00000  Uiso   1.00
O224   O     0.74000   0.19930  -0.34640   0.00000  Uiso   1.00
N225   N     0.55420   0.00330   0.00460   0.00000  Uiso   1.00
C226   C     0.58850   0.10340   0.05810   0.00000  Uiso   1.00
C227   C     0.61740   0.10800  -0.11800   0.00000  Uiso   1.00
C228   C     0.64290   0.13700  -0.08790   0.00000  Uiso   1.00
C229   C     0.58550   0.12780   0.26510   0.00000  Uiso   1.00
C230   C     0.63980   0.16140   0.11950   0.00000  Uiso   1.00
C231   C     0.61120   0.15640   0.29650   0.00000  Uiso   1.00
C232   C     0.67640   0.21710  -0.04010   0.00000  Uiso   1.00
N233   N     0.66630   0.19050   0.15880   0.00000  Uiso   1.00
P234   P     0.63860   0.25270  -0.07670   0.00000  Uiso   1.00
O235   O     0.61610   0.23570  -0.30150   0.00000  Uiso   1.00
O236   O     0.64570   0.29690  -0.20770   0.00000  Uiso   1.00
O237   O     0.60320   0.25160   0.15700   0.00000  Uiso   1.00
C238   C     0.51240   0.11610  -0.10830   0.00000  Uiso   1.00
C239   C     0.52440   0.08160  -0.02650   0.00000  Uiso   1.00
C240   C     0.60870   0.02690   0.16680   0.00000  Uiso   1.00
C241   C     0.57390   0.03620   0.07340   0.00000  Uiso   1.00
C242   C     0.56160   0.07270   0.02940   0.00000  Uiso   1.00
H243   H     0.86460   0.45330  -0.16960   0.00000  Uiso   1.00
H244   H     0.97060   0.36390   0.20870   0.00000  Uiso   1.00
H245   H     0.88080   0.41280   0.33660   0.00000  Uiso   1.00
H246   H     0.83550   0.36210   0.31890   0.00000  Uiso   1.00
H247   H     0.88560   0.32170  -0.37010   0.00000  Uiso   1.00
H248   H     0.93120   0.37260  -0.35650   0.00000  Uiso   1.00
H249   H     0.81610   0.30700  -0.22160   0.00000  Uiso   1.00
H250   H     0.82190   0.29900   0.34240   0.00000  Uiso   1.00
H251   H     0.69730   0.26100   0.36150   0.00000  Uiso   1.00
H252   H     0.80280   0.23720  -0.22030   0.00000  Uiso   1.00
C253   C     0.74810   0.33330   0.44150   0.00000  Uiso   1.00
C254   C     0.77200   0.18190  -0.45310   0.00000  Uiso   1.00
H255   H     0.53200   0.00220  -0.12220   0.00000  Uiso   1.00
H256   H     0.62030   0.08920  -0.27800   0.00000  Uiso   1.00
H257   H     0.66530   0.13980  -0.22340   0.00000  Uiso   1.00
H258   H     0.56340   0.12430   0.40330   0.00000  Uiso   1.00
H259   H     0.60880   0.17470   0.45810   0.00000  Uiso   1.00
H260   H     0.67720   0.20240  -0.22400   0.00000  Uiso   1.00
H261   H     0.67590   0.19500   0.34580   0.00000  Uiso   1.00
C262   C     0.67360   0.31550  -0.06990   0.00000  Uiso   1.00
C263   C     0.58700   0.28680   0.18630   0.00000  Uiso   1.00
H264   H     0.52900   0.14020  -0.15000   0.00000  Uiso   1.00
H265   H     0.63010   0.04590   0.23020   0.00000  Uiso   1.00
C266   C     0.55990   0.29600  -0.02900   0.00000  Uiso   1.00
C267   C     0.67100   0.35690  -0.12240   0.00000  Uiso   1.00
C268   C     0.87720   0.17980   0.10100   0.00000  Uiso   1.00
C269   C     0.86480   0.14080   0.02810   0.00000  Uiso   1.00
C270   C     0.92930   0.26880   0.16950   0.00000  Uiso   1.00
C271   C     0.96270   0.28060   0.00970   0.00000  Uiso   1.00
H272   H     0.88930   0.17860   0.29550   0.00000  Uiso   1.00
H273   H     0.89860   0.18890  -0.03720   0.00000  Uiso   1.00
H274   H     0.84310   0.13090   0.16190   0.00000  Uiso   1.00
H275   H     0.88890   0.12160   0.03580   0.00000  Uiso   1.00
H276   H     0.85350   0.14080  -0.16840   0.00000  Uiso   1.00
H277   H     0.93760   0.24400   0.28500   0.00000  Uiso   1.00
H278   H     0.92170   0.29240   0.29630   0.00000  Uiso   1.00
H279   H     0.98630   0.28810   0.13580   0.00000  Uiso   1.00
H280   H     0.95550   0.30500  -0.10980   0.00000  Uiso   1.00
H281   H     0.97140   0.25740  -0.11740   0.00000  Uiso   1.00
H282   H     0.54210   0.27160  -0.07270   0.00000  Uiso   1.00
H283   H     0.57520   0.30410  -0.20310   0.00000  Uiso   1.00
H284   H     0.54200   0.31960   0.02790   0.00000  Uiso   1.00
H285   H     0.60790   0.30920   0.21480   0.00000  Uiso   1.00
H286   H     0.57060   0.28580   0.36490   0.00000  Uiso   1.00
H287   H     0.64370   0.36780  -0.05450   0.00000  Uiso   1.00
H288   H     0.67370   0.36230  -0.33060   0.00000  Uiso   1.00
H289   H     0.69380   0.37170  -0.02060   0.00000  Uiso   1.00
H290   H     0.70130   0.30560  -0.13410   0.00000  Uiso   1.00
H291   H     0.67020   0.31160   0.13940   0.00000  Uiso   1.00
H292   H     0.78910   0.20210  -0.55980   0.00000  Uiso   1.00
H293   H     0.76300   0.16050  -0.59120   0.00000  Uiso   1.00
H294   H     0.78860   0.16810  -0.30260   0.00000  Uiso   1.00
H295   H     0.76530   0.34510   0.28550   0.00000  Uiso   1.00
H296   H     0.75290   0.34990   0.61720   0.00000  Uiso   1.00
H297   H     0.71840   0.33540   0.39030   0.00000  Uiso   1.00
C298   C     0.11340   0.52760  -0.11960   0.00000  Uiso   1.00
C299   C     0.07760   0.53600  -0.04300   0.00000  Uiso   1.00
N300   N     0.05850   0.50470   0.01210   0.00000  Uiso   1.00
C301   C     0.01330   0.61210   0.15400   0.00000  Uiso   1.00
C302   C     0.02670   0.57910   0.05450   0.00000  Uiso   1.00
C303   C     0.06420   0.57210  -0.00240   0.00000  Uiso   1.00
C304   C     0.09070   0.60350  -0.00850   0.00000  Uiso   1.00
C305   C     0.11770   0.60710   0.18220   0.00000  Uiso   1.00
C306   C     0.14340   0.63620   0.17330   0.00000  Uiso   1.00
C307   C     0.14220   0.66200  -0.02640   0.00000  Uiso   1.00
C308   C     0.11530   0.65850  -0.21620   0.00000  Uiso   1.00
C309   C     0.08940   0.62960  -0.20700   0.00000  Uiso   1.00
N310   N     0.16950   0.69070  -0.04660   0.00000  Uiso   1.00
C311   C     0.17800   0.71650   0.16030   0.00000  Uiso   1.00
C312   C     0.21550   0.73460   0.11590   0.00000  Uiso   1.00
C313   C     0.24580   0.72740   0.27810   0.00000  Uiso   1.00
C314   C     0.28010   0.74410   0.23030   0.00000  Uiso   1.00
C315   C     0.28560   0.76650   0.01380   0.00000  Uiso   1.00
C316   C     0.25500   0.77520  -0.14420   0.00000  Uiso   1.00
C317   C     0.22050   0.75830  -0.09420   0.00000  Uiso   1.00
P318   P     0.14000   0.75190   0.18560   0.00000  Uiso   1.00
O319   O     0.12800   0.75600   0.46880   0.00000  Uiso   1.00
O320   O     0.15390   0.79660   0.09500   0.00000  Uiso   1.00
O321   O     0.10040   0.74040   0.00580   0.00000  Uiso   1.00
O322   O     0.24190   0.70420   0.49030   0.00000  Uiso   1.00
O323   O     0.26000   0.80070  -0.34640   0.00000  Uiso   1.00
N324   N     0.44580   0.99670   0.00460   0.00000  Uiso   1.00
C325   C     0.41150   0.89660   0.05810   0.00000  Uiso   1.00
C326   C     0.38260   0.89200  -0.11800   0.00000  Uiso   1.00
C327   C     0.35710   0.86300  -0.08790   0.00000  Uiso   1.00
C328   C     0.41450   0.87220   0.26510   0.00000  Uiso   1.00
C329   C     0.36020   0.83860   0.11950   0.00000  Uiso   1.00
C330   C     0.38880   0.84360   0.29650   0.00000  Uiso   1.00
C331   C     0.32360   0.78290  -0.04010   0.00000  Uiso   1.00
N332   N     0.33370   0.80950   0.15880   0.00000  Uiso   1.00
P333   P     0.36140   0.74730  -0.07670   0.00000  Uiso   1.00
O334   O     0.38390   0.76430  -0.30150   0.00000  Uiso   1.00
O335   O     0.35430   0.70310  -0.20770   0.00000  Uiso   1.00
O336   O     0.39680   0.74840   0.15700   0.00000  Uiso   1.00
C337   C     0.48760   0.88390  -0.10830   0.00000  Uiso   1.00
C338   C     0.47560   0.91840  -0.02650   0.00000  Uiso   1.00
C339   C     0.39130   0.97310   0.16680   0.00000  Uiso   1.00
C340   C     0.42610   0.96380   0.07340   0.00000  Uiso   1.00
C341   C     0.43840   0.92730   0.02940   0.00000  Uiso   1.00
H342   H     0.13540   0.54670  -0.16960   0.00000  Uiso   1.00
H343   H     0.02940   0.63610   0.20870   0.00000  Uiso   1.00
H344   H     0.11920   0.58720   0.33660   0.00000  Uiso   1.00
H345   H     0.16450   0.63790   0.31890   0.00000  Uiso   1.00
H346   H     0.11440   0.67830  -0.37010   0.00000  Uiso   1.00
H347   H     0.06880   0.62740  -0.35650   0.00000  Uiso   1.00
H348   H     0.18390   0.69300  -0.22160   0.00000  Uiso   1.00
H349   H     0.17810   0.70100   0.34240   0.00000  Uiso   1.00
H350   H     0.30270   0.73900   0.36150   0.00000  Uiso   1.00
H351   H     0.19720   0.76280  -0.22030   0.00000  Uiso   1.00
C352   C     0.25190   0.66670   0.44150   0.00000  Uiso   1.00
C353   C     0.22800   0.81810  -0.45310   0.00000  Uiso   1.00
H354   H     0.46800   0.99780  -0.12220   0.00000  Uiso   1.00
H355   H     0.37970   0.91080  -0.27800   0.00000  Uiso   1.00
H356   H     0.33470   0.86020  -0.22340   0.00000  Uiso   1.00
H357   H     0.43660   0.87570   0.40330   0.00000  Uiso   1.00
H358   H     0.39120   0.82530   0.45810   0.00000  Uiso   1.00
H359   H     0.32280   0.79760  -0.22400   0.00000  Uiso   1.00
H360   H     0.32410   0.80500   0.34580   0.00000  Uiso   1.00
C361   C     0.32640   0.68450  -0.06990   0.00000  Uiso   1.00
C362   C     0.41300   0.71320   0.18630   0.00000  Uiso   1.00
H363   H     0.47100   0.85980  -0.15000   0.00000  Uiso   1.00
H364   H     0.36990   0.95410   0.23020   0.00000  Uiso   1.00
C365   C     0.44010   0.70400  -0.02900   0.00000  Uiso   1.00
C366   C     0.32900   0.64310  -0.12240   0.00000  Uiso   1.00
C367   C     0.12280   0.82020   0.10100   0.00000  Uiso   1.00
C368   C     0.13520   0.85920   0.02810   0.00000  Uiso   1.00
C369   C     0.07070   0.73120   0.16950   0.00000  Uiso   1.00
C370   C     0.03730   0.71940   0.00970   0.00000  Uiso   1.00
H371   H     0.11070   0.82140   0.29550   0.00000  Uiso   1.00
H372   H     0.10140   0.81110  -0.03720   0.00000  Uiso   1.00
H373   H     0.15690   0.86910   0.16190   0.00000  Uiso   1.00
H374   H     0.11110   0.87840   0.03580   0.00000  Uiso   1.00
H375   H     0.14650   0.85920  -0.16840   0.00000  Uiso   1.00
H376   H     0.06240   0.75600   0.28500   0.00000  Uiso   1.00
H377   H     0.07830   0.70760   0.29630   0.00000  Uiso   1.00
H378   H     0.01370   0.71190   0.13580   0.00000  Uiso   1.00
H379   H     0.04450   0.69500  -0.10980   0.00000  Uiso   1.00
H380   H     0.02860   0.74260  -0.11740   0.00000  Uiso   1.00
H381   H     0.45790   0.72840  -0.07270   0.00000  Uiso   1.00
H382   H     0.42480   0.69590  -0.20310   0.00000  Uiso   1.00
H383   H     0.45800   0.68040   0.02790   0.00000  Uiso   1.00
H384   H     0.39210   0.69080   0.21480   0.00000  Uiso   1.00
H385   H     0.42940   0.71420   0.36490   0.00000  Uiso   1.00
H386   H     0.35630   0.63220  -0.05450   0.00000  Uiso   1.00
H387   H     0.32630   0.63770  -0.33060   0.00000  Uiso   1.00
H388   H     0.30620   0.62830  -0.02060   0.00000  Uiso   1.00
H389   H     0.29870   0.69440  -0.13410   0.00000  Uiso   1.00
H390   H     0.32980   0.68840   0.13940   0.00000  Uiso   1.00
H391   H     0.21090   0.79790  -0.55980   0.00000  Uiso   1.00
H392   H     0.23700   0.83950  -0.59120   0.00000  Uiso   1.00
H393   H     0.21140   0.83190  -0.30260   0.00000  Uiso   1.00
H394   H     0.23470   0.65490   0.28550   0.00000  Uiso   1.00
H395   H     0.24710   0.65010   0.61720   0.00000  Uiso   1.00
H396   H     0.28160   0.66460   0.39030   0.00000  Uiso   1.00
loop_
_geom_bond_atom_site_label_1
_geom_bond_atom_site_label_2
_geom_bond_distance
_geom_bond_site_symmetry_2
_ccdc_geom_bond_type
C1     C2      1.384   .     S
C1     H45     1.082   .     S
C1     C238    1.445   .     D
C2     N3      1.352   .     D
C2     C6      1.403   .     S
N3     C239    1.353   .     S
C4     C5      1.385   .     S
C4     H46     1.080   .     S
C4     C339    1.454   1_545 D
C5     C6      1.406   .     D
C5     N324    1.428   1_545 S
C6     C7      1.480   .     S
C7     C8      1.403   .     D
C7     C12     1.406   .     S
C8     C9      1.399   .     S
C8     H47     1.084   .     S
C9     C10     1.403   .     D
C9     H48     1.081   .     S
C10    C11     1.397   .     S
C10    N13     1.430   .     S
C11    C12     1.398   .     D
C11    H49     1.079   .     S
C12    H50     1.084   .     S
N13    C14     1.463   .     S
N13    H51     1.060   .     S
C14    C15     1.518   .     S
C14    P21     1.875   .     S
C14    H52     1.109   .     S
C15    C16     1.409   .     S
C15    C20     1.408   .     D
C16    C17     1.397   .     D
C16    O25     1.401   .     S
C17    C18     1.409   .     S
C17    H53     1.083   .     S
C18    C19     1.415   .     D
C18    C34     1.517   .     S
C19    C20     1.408   .     S
C19    O26     1.417   .     S
C20    H54     1.082   .     S
P21    O22     1.558   .     D
P21    O23     1.752   .     S
P21    O24     1.761   .     S
O23    C70     1.406   .     S
O24    C72     1.412   .     S
O25    C55     1.421   .     S
O26    C56     1.427   .     S
N27    C43     1.428   .     S
N27    H57     1.042   .     S
N27    C203    1.428   1_455 S
C28    C29     1.403   .     S
C28    C31     1.403   .     D
C28    C44     1.478   .     S
C29    C30     1.400   .     D
C29    H58     1.085   .     S
C30    C32     1.405   .     S
C30    H59     1.081   .     S
C31    C33     1.394   .     S
C31    H60     1.085   .     S
C32    C33     1.400   .     D
C32    N35     1.432   .     S
C33    H61     1.079   .     S
C34    N35     1.464   .     S
C34    P36     1.880   .     S
C34    H62     1.103   .     S
N35    H63     1.055   .     S
P36    O37     1.559   .     D
P36    O38     1.753   .     S
P36    O39     1.771   .     S
O38    C64     1.408   .     S
O39    C65     1.404   .     S
C40    C41     1.384   .     S
C40    H66     1.076   .     S
C40    C298    1.445   .     D
C41    C44     1.408   .     S
C41    N300    1.353   .     D
C42    C43     1.387   .     S
C42    H67     1.083   .     S
C42    C202    1.454   1_455 D
C43    C44     1.406   .     D
C55    H97     1.112   .     S
C55    H98     1.114   .     S
C55    H99     1.106   .     S
C56    H94     1.106   .     S
C56    H95     1.107   .     S
C56    H96     1.109   .     S
C64    C69     1.519   .     S
C64    H92     1.112   .     S
C64    H93     1.116   .     S
C65    C68     1.531   .     S
C65    H87     1.113   .     S
C65    H88     1.110   .     S
C68    H84     1.112   .     S
C68    H85     1.108   .     S
C68    H86     1.108   .     S
C69    H89     1.117   .     S
C69    H90     1.116   .     S
C69    H91     1.116   .     S
C70    C71     1.523   .     S
C70    H74     1.113   .     S
C70    H75     1.109   .     S
C71    H76     1.110   .     S
C71    H77     1.110   .     S
C71    H78     1.111   .     S
C72    C73     1.528   .     S
C72    H79     1.121   .     S
C72    H80     1.114   .     S
C73    H81     1.111   .     S
C73    H82     1.111   .     S
C73    H83     1.115   .     S
C100   C101    1.384   .     S
C100   H144    1.082   .     S
C100   C337    1.445   .     D
C101   N102    1.352   .     S
C101   C105    1.403   .     D
N102   C338    1.353   .     D
C103   C104    1.385   .     D
C103   H145    1.080   .     S
C103   C240    1.454   1_565 S
C104   C105    1.406   .     S
C104   N225    1.428   1_565 S
C105   C106    1.480   .     S
C106   C107    1.403   .     D
C106   C111    1.406   .     S
C107   C108    1.399   .     S
C107   H146    1.084   .     S
C108   C109    1.403   .     D
C108   H147    1.081   .     S
C109   C110    1.397   .     S
C109   N112    1.430   .     S
C110   C111    1.398   .     D
C110   H148    1.079   .     S
C111   H149    1.084   .     S
N112   C113    1.463   .     S
N112   H150    1.060   .     S
C113   C114    1.518   .     S
C113   P120    1.875   .     S
C113   H151    1.109   .     S
C114   C115    1.409   .     S
C114   C119    1.408   .     D
C115   C116    1.397   .     D
C115   O124    1.401   .     S
C116   C117    1.409   .     S
C116   H152    1.083   .     S
C117   C118    1.415   .     D
C117   C133    1.517   .     S
C118   C119    1.408   .     S
C118   O125    1.417   .     S
C119   H153    1.082   .     S
P120   O121    1.558   .     D
P120   O122    1.752   .     S
P120   O123    1.761   .     S
O122   C169    1.406   .     S
O123   C171    1.412   .     S
O124   C154    1.421   .     S
O125   C155    1.427   .     S
N126   C142    1.428   .     S
N126   H156    1.042   .     S
N126   C302    1.428   1_655 S
C127   C128    1.403   .     S
C127   C130    1.403   .     D
C127   C143    1.478   .     S
C128   C129    1.400   .     D
C128   H157    1.085   .     S
C129   C131    1.405   .     S
C129   H158    1.081   .     S
C130   C132    1.394   .     S
C130   H159    1.085   .     S
C131   C132    1.400   .     D
C131   N134    1.432   .     S
C132   H160    1.079   .     S
C133   N134    1.464   .     S
C133   P135    1.880   .     S
C133   H161    1.103   .     S
N134   H162    1.055   .     S
P135   O136    1.559   .     D
P135   O137    1.753   .     S
P135   O138    1.771   .     S
O137   C163    1.408   .     S
O138   C164    1.404   .     S
C139   C140    1.384   .     S
C139   H165    1.076   .     S
C139   C199    1.445   .     D
C140   C143    1.408   .     D
C140   N201    1.353   .     S
C141   C142    1.387   .     D
C141   H166    1.083   .     S
C141   C301    1.454   1_655 S
C142   C143    1.406   .     S
C154   H196    1.112   .     S
C154   H197    1.114   .     S
C154   H198    1.106   .     S
C155   H193    1.106   .     S
C155   H194    1.107   .     S
C155   H195    1.109   .     S
C163   C168    1.519   .     S
C163   H191    1.112   .     S
C163   H192    1.116   .     S
C164   C167    1.531   .     S
C164   H186    1.113   .     S
C164   H187    1.110   .     S
C167   H183    1.112   .     S
C167   H184    1.108   .     S
C167   H185    1.108   .     S
C168   H188    1.117   .     S
C168   H189    1.116   .     S
C168   H190    1.116   .     S
C169   C170    1.523   .     S
C169   H173    1.113   .     S
C169   H174    1.109   .     S
C170   H175    1.110   .     S
C170   H176    1.110   .     S
C170   H177    1.111   .     S
C171   C172    1.528   .     S
C171   H178    1.121   .     S
C171   H179    1.114   .     S
C172   H180    1.111   .     S
C172   H181    1.111   .     S
C172   H182    1.115   .     S
C199   C200    1.384   .     S
C199   H243    1.082   .     S
C200   N201    1.352   .     D
C200   C204    1.403   .     S
C202   C203    1.385   .     S
C202   H244    1.080   .     S
C202   C42     1.454   1_655 D
C203   C204    1.406   .     D
C203   N27     1.428   1_655 S
C204   C205    1.480   .     S
C205   C206    1.403   .     S
C205   C210    1.406   .     D
C206   C207    1.399   .     D
C206   H245    1.084   .     S
C207   C208    1.403   .     S
C207   H246    1.081   .     S
C208   C209    1.397   .     D
C208   N211    1.430   .     S
C209   C210    1.398   .     S
C209   H247    1.079   .     S
C210   H248    1.084   .     S
N211   C212    1.463   .     S
N211   H249    1.060   .     S
C212   C213    1.518   .     S
C212   P219    1.875   .     S
C212   H250    1.109   .     S
C213   C214    1.409   .     S
C213   C218    1.408   .     D
C214   C215    1.397   .     D
C214   O223    1.401   .     S
C215   C216    1.409   .     S
C215   H251    1.083   .     S
C216   C217    1.415   .     D
C216   C232    1.517   .     S
C217   C218    1.408   .     S
C217   O224    1.417   .     S
C218   H252    1.082   .     S
P219   O220    1.558   .     D
P219   O221    1.752   .     S
P219   O222    1.761   .     S
O221   C268    1.406   .     S
O222   C270    1.412   .     S
O223   C253    1.421   .     S
O224   C254    1.427   .     S
N225   C241    1.428   .     S
N225   H255    1.042   .     S
N225   C104    1.428   1_545 S
C226   C227    1.403   .     S
C226   C229    1.403   .     D
C226   C242    1.478   .     S
C227   C228    1.400   .     D
C227   H256    1.085   .     S
C228   C230    1.405   .     S
C228   H257    1.081   .     S
C229   C231    1.394   .     S
C229   H258    1.085   .     S
C230   C231    1.400   .     D
C230   N233    1.432   .     S
C231   H259    1.079   .     S
C232   N233    1.464   .     S
C232   P234    1.880   .     S
C232   H260    1.103   .     S
N233   H261    1.055   .     S
P234   O235    1.559   .     D
P234   O236    1.753   .     S
P234   O237    1.771   .     S
O236   C262    1.408   .     S
O237   C263    1.404   .     S
C238   C239    1.384   .     S
C238   H264    1.076   .     S
C239   C242    1.408   .     D
C240   C241    1.387   .     D
C240   H265    1.083   .     S
C240   C103    1.454   1_545 S
C241   C242    1.406   .     S
C253   H295    1.112   .     S
C253   H296    1.114   .     S
C253   H297    1.106   .     S
C254   H292    1.106   .     S
C254   H293    1.107   .     S
C254   H294    1.109   .     S
C262   C267    1.519   .     S
C262   H290    1.112   .     S
C262   H291    1.116   .     S
C263   C266    1.531   .     S
C263   H285    1.113   .     S
C263   H286    1.110   .     S
C266   H282    1.112   .     S
C266   H283    1.108   .     S
C266   H284    1.108   .     S
C267   H287    1.117   .     S
C267   H288    1.116   .     S
C267   H289    1.116   .     S
C268   C269    1.523   .     S
C268   H272    1.113   .     S
C268   H273    1.109   .     S
C269   H274    1.110   .     S
C269   H275    1.110   .     S
C269   H276    1.111   .     S
C270   C271    1.528   .     S
C270   H277    1.121   .     S
C270   H278    1.114   .     S
C271   H279    1.111   .     S
C271   H280    1.111   .     S
C271   H281    1.115   .     S
C298   C299    1.384   .     S
C298   H342    1.082   .     S
C299   N300    1.352   .     S
C299   C303    1.403   .     D
C301   C302    1.385   .     D
C301   H343    1.080   .     S
C301   C141    1.454   1_455 S
C302   C303    1.406   .     S
C302   N126    1.428   1_455 S
C303   C304    1.480   .     S
C304   C305    1.403   .     D
C304   C309    1.406   .     S
C305   C306    1.399   .     S
C305   H344    1.084   .     S
C306   C307    1.403   .     D
C306   H345    1.081   .     S
C307   C308    1.397   .     S
C307   N310    1.430   .     S
C308   C309    1.398   .     D
C308   H346    1.079   .     S
C309   H347    1.084   .     S
N310   C311    1.463   .     S
N310   H348    1.060   .     S
C311   C312    1.518   .     S
C311   P318    1.875   .     S
C311   H349    1.109   .     S
C312   C313    1.409   .     S
C312   C317    1.408   .     D
C313   C314    1.397   .     D
C313   O322    1.401   .     S
C314   C315    1.409   .     S
C314   H350    1.083   .     S
C315   C316    1.415   .     D
C315   C331    1.517   .     S
C316   C317    1.408   .     S
C316   O323    1.417   .     S
C317   H351    1.082   .     S
P318   O319    1.558   .     D
P318   O320    1.752   .     S
P318   O321    1.761   .     S
O320   C367    1.406   .     S
O321   C369    1.412   .     S
O322   C352    1.421   .     S
O323   C353    1.427   .     S
N324   C340    1.428   .     S
N324   H354    1.042   .     S
N324   C5      1.428   1_565 S
C325   C326    1.403   .     S
C325   C328    1.403   .     D
C325   C341    1.478   .     S
C326   C327    1.400   .     D
C326   H355    1.085   .     S
C327   C329    1.405   .     S
C327   H356    1.081   .     S
C328   C330    1.394   .     S
C328   H357    1.085   .     S
C329   C330    1.400   .     D
C329   N332    1.432   .     S
C330   H358    1.079   .     S
C331   N332    1.464   .     S
C331   P333    1.880   .     S
C331   H359    1.103   .     S
N332   H360    1.055   .     S
P333   O334    1.559   .     D
P333   O335    1.753   .     S
P333   O336    1.771   .     S
O335   C361    1.408   .     S
O336   C362    1.404   .     S
C337   C338    1.384   .     S
C337   H363    1.076   .     S
C338   C341    1.408   .     S
C339   C340    1.387   .     S
C339   H364    1.083   .     S
C339   C4      1.454   1_565 D
C340   C341    1.406   .     D
C352   H394    1.112   .     S
C352   H395    1.114   .     S
C352   H396    1.106   .     S
C353   H391    1.106   .     S
C353   H392    1.107   .     S
C353   H393    1.109   .     S
C361   C366    1.519   .     S
C361   H389    1.112   .     S
C361   H390    1.116   .     S
C362   C365    1.531   .     S
C362   H384    1.113   .     S
C362   H385    1.110   .     S
C365   H381    1.112   .     S
C365   H382    1.108   .     S
C365   H383    1.108   .     S
C366   H386    1.117   .     S
C366   H387    1.116   .     S
C366   H388    1.116   .     S
C367   C368    1.523   .     S
C367   H371    1.113   .     S
C367   H372    1.109   .     S
C368   H373    1.110   .     S
C368   H374    1.110   .     S
C368   H375    1.111   .     S
C369   C370    1.528   .     S
C369   H376    1.121   .     S
C369   H377    1.114   .     S
C370   H378    1.111   .     S
C370   H379    1.111   .     S
C370   H380    1.115   .     S
