data_1114
_audit_creation_date              2023-09-08
_audit_creation_method            'Materials Studio'
_symmetry_space_group_name_H-M    'P1'
_symmetry_Int_Tables_number       1
_symmetry_cell_setting            triclinic
loop_
_symmetry_equiv_pos_as_xyz
  x,y,z
_cell_length_a                    36.2909
_cell_length_b                    36.2909
_cell_length_c                    3.7994
_cell_angle_alpha                 90.0000
_cell_angle_beta                  90.0000
_cell_angle_gamma                 120.0000
loop_
_atom_site_label
_atom_site_type_symbol
_atom_site_fract_x
_atom_site_fract_y
_atom_site_fract_z
_atom_site_U_iso_or_equiv
_atom_site_adp_type
_atom_site_occupancy
C1     C     0.52004   0.54688   0.05170   0.00000  Uiso   1.00
C2     C     0.47695   0.52011   0.06064   0.00000  Uiso   1.00
C3     C     0.44720   0.53526   0.06703   0.00000  Uiso   1.00
N4     N     0.45911   0.57397   0.01873   0.00000  Uiso   1.00
C5     C     0.43324   0.59215   0.02082   0.00000  Uiso   1.00
C6     C     0.39361   0.57251   0.17478   0.00000  Uiso   1.00
C7     C     0.37011   0.59202   0.17720   0.00000  Uiso   1.00
C8     C     0.38523   0.63133   0.02074   0.00000  Uiso   1.00
C9     C     0.42503   0.65066  -0.13278   0.00000  Uiso   1.00
C10    C     0.44883   0.63151  -0.12690   0.00000  Uiso   1.00
O11    O     0.53598   0.58982   0.06165   0.00000  Uiso   1.00
C12    C     0.57366   0.61546  -0.12727   0.00000  Uiso   1.00
C13    C     0.35983   0.65202   0.01969   0.00000  Uiso   1.00
C14    C     0.31652   0.62863   0.01956   0.00000  Uiso   1.00
H15    H     0.41484   0.51292   0.09968   0.00000  Uiso   1.00
H16    H     0.38111   0.54287   0.30590   0.00000  Uiso   1.00
H17    H     0.34063   0.57658   0.31335   0.00000  Uiso   1.00
H18    H     0.43770   0.68017  -0.26695   0.00000  Uiso   1.00
H19    H     0.47930   0.64702  -0.24661   0.00000  Uiso   1.00
H20    H     0.59925   0.63115   0.06945   0.00000  Uiso   1.00
H21    H     0.57049   0.63933  -0.27790   0.00000  Uiso   1.00
H22    H     0.58143   0.59822  -0.32668   0.00000  Uiso   1.00
H23    H     0.30165   0.59546   0.01975   0.00000  Uiso   1.00
C24    C     0.46117   0.47738   0.06161   0.00000  Uiso   1.00
H25    H     0.42814   0.45707   0.07864   0.00000  Uiso   1.00
C26    C     0.45312   0.97316   0.05170   0.00000  Uiso   1.00
C27    C     0.47989   0.95684   0.06064   0.00000  Uiso   1.00
C28    C     0.46474   0.91194   0.06703   0.00000  Uiso   1.00
N29    N     0.42603   0.88514   0.01873   0.00000  Uiso   1.00
C30    C     0.40785   0.84109   0.02082   0.00000  Uiso   1.00
C31    C     0.42749   0.82110   0.17478   0.00000  Uiso   1.00
C32    C     0.40798   0.77809   0.17720   0.00000  Uiso   1.00
C33    C     0.36867   0.75390   0.02074   0.00000  Uiso   1.00
C34    C     0.34934   0.77437  -0.13278   0.00000  Uiso   1.00
C35    C     0.36849   0.81732  -0.12690   0.00000  Uiso   1.00
O36    O     0.41018   0.94616   0.06165   0.00000  Uiso   1.00
C37    C     0.38454   0.95820  -0.12727   0.00000  Uiso   1.00
C38    C     0.34798   0.70781   0.01969   0.00000  Uiso   1.00
C39    C     0.37137   0.68789   0.01956   0.00000  Uiso   1.00
H40    H     0.48708   0.90192   0.09968   0.00000  Uiso   1.00
H41    H     0.45713   0.83824   0.30590   0.00000  Uiso   1.00
H42    H     0.42342   0.76405   0.31335   0.00000  Uiso   1.00
H43    H     0.31983   0.75753  -0.26695   0.00000  Uiso   1.00
H44    H     0.35298   0.83228  -0.24661   0.00000  Uiso   1.00
H45    H     0.36885   0.96810   0.06945   0.00000  Uiso   1.00
H46    H     0.36067   0.93116  -0.27790   0.00000  Uiso   1.00
H47    H     0.40178   0.98321  -0.32668   0.00000  Uiso   1.00
H48    H     0.40454   0.70619   0.01975   0.00000  Uiso   1.00
C49    C     0.52262   0.98379   0.06161   0.00000  Uiso   1.00
H50    H     0.54293   0.97107   0.07864   0.00000  Uiso   1.00
C51    C     0.02684   0.47996   0.05170   0.00000  Uiso   1.00
C52    C     0.04316   0.52305   0.06064   0.00000  Uiso   1.00
C53    C     0.08806   0.55280   0.06703   0.00000  Uiso   1.00
N54    N     0.11486   0.54089   0.01873   0.00000  Uiso   1.00
C55    C     0.15891   0.56676   0.02082   0.00000  Uiso   1.00
C56    C     0.17890   0.60639   0.17478   0.00000  Uiso   1.00
C57    C     0.22191   0.62989   0.17720   0.00000  Uiso   1.00
C58    C     0.24610   0.61477   0.02074   0.00000  Uiso   1.00
C59    C     0.22563   0.57497  -0.13278   0.00000  Uiso   1.00
C60    C     0.18268   0.55117  -0.12690   0.00000  Uiso   1.00
O61    O     0.05384   0.46402   0.06165   0.00000  Uiso   1.00
C62    C     0.04180   0.42634  -0.12727   0.00000  Uiso   1.00
C63    C     0.29219   0.64017   0.01969   0.00000  Uiso   1.00
C64    C     0.31211   0.68348   0.01956   0.00000  Uiso   1.00
H65    H     0.09808   0.58516   0.09968   0.00000  Uiso   1.00
H66    H     0.16176   0.61889   0.30590   0.00000  Uiso   1.00
H67    H     0.23595   0.65937   0.31335   0.00000  Uiso   1.00
H68    H     0.24247   0.56230  -0.26695   0.00000  Uiso   1.00
H69    H     0.16772   0.52070  -0.24661   0.00000  Uiso   1.00
H70    H     0.03190   0.40075   0.06945   0.00000  Uiso   1.00
H71    H     0.06884   0.42951  -0.27790   0.00000  Uiso   1.00
H72    H     0.01679   0.41857  -0.32668   0.00000  Uiso   1.00
H73    H     0.29381   0.69835   0.01975   0.00000  Uiso   1.00
C74    C     0.01621   0.53883   0.06161   0.00000  Uiso   1.00
H75    H     0.02893   0.57186   0.07864   0.00000  Uiso   1.00
C76    C     0.47996   0.45312   0.05170   0.00000  Uiso   1.00
C77    C     0.52305   0.47989   0.06064   0.00000  Uiso   1.00
C78    C     0.55280   0.46474   0.06703   0.00000  Uiso   1.00
N79    N     0.54089   0.42603   0.01873   0.00000  Uiso   1.00
C80    C     0.56676   0.40785   0.02082   0.00000  Uiso   1.00
C81    C     0.60639   0.42749   0.17478   0.00000  Uiso   1.00
C82    C     0.62989   0.40798   0.17720   0.00000  Uiso   1.00
C83    C     0.61477   0.36867   0.02074   0.00000  Uiso   1.00
C84    C     0.57497   0.34934  -0.13278   0.00000  Uiso   1.00
C85    C     0.55117   0.36849  -0.12690   0.00000  Uiso   1.00
O86    O     0.46402   0.41018   0.06165   0.00000  Uiso   1.00
C87    C     0.42634   0.38454  -0.12727   0.00000  Uiso   1.00
C88    C     0.64017   0.34798   0.01969   0.00000  Uiso   1.00
C89    C     0.68348   0.37137   0.01956   0.00000  Uiso   1.00
H90    H     0.58516   0.48708   0.09968   0.00000  Uiso   1.00
H91    H     0.61889   0.45713   0.30590   0.00000  Uiso   1.00
H92    H     0.65937   0.42342   0.31335   0.00000  Uiso   1.00
H93    H     0.56230   0.31983  -0.26695   0.00000  Uiso   1.00
H94    H     0.52070   0.35298  -0.24661   0.00000  Uiso   1.00
H95    H     0.40075   0.36885   0.06945   0.00000  Uiso   1.00
H96    H     0.42951   0.36067  -0.27790   0.00000  Uiso   1.00
H97    H     0.41857   0.40178  -0.32668   0.00000  Uiso   1.00
H98    H     0.69835   0.40454   0.01975   0.00000  Uiso   1.00
C99    C     0.53883   0.52262   0.06161   0.00000  Uiso   1.00
H100   H     0.57186   0.54293   0.07864   0.00000  Uiso   1.00
C101   C     0.54688   0.02684   0.05170   0.00000  Uiso   1.00
C102   C     0.52011   0.04316   0.06064   0.00000  Uiso   1.00
C103   C     0.53526   0.08806   0.06703   0.00000  Uiso   1.00
N104   N     0.57397   0.11486   0.01873   0.00000  Uiso   1.00
C105   C     0.59215   0.15891   0.02082   0.00000  Uiso   1.00
C106   C     0.57251   0.17890   0.17478   0.00000  Uiso   1.00
C107   C     0.59202   0.22191   0.17720   0.00000  Uiso   1.00
C108   C     0.63133   0.24610   0.02074   0.00000  Uiso   1.00
C109   C     0.65066   0.22563  -0.13278   0.00000  Uiso   1.00
C110   C     0.63151   0.18268  -0.12690   0.00000  Uiso   1.00
O111   O     0.58982   0.05384   0.06165   0.00000  Uiso   1.00
C112   C     0.61546   0.04180  -0.12727   0.00000  Uiso   1.00
C113   C     0.65202   0.29219   0.01969   0.00000  Uiso   1.00
C114   C     0.62863   0.31211   0.01956   0.00000  Uiso   1.00
H115   H     0.51292   0.09808   0.09968   0.00000  Uiso   1.00
H116   H     0.54287   0.16176   0.30590   0.00000  Uiso   1.00
H117   H     0.57658   0.23595   0.31335   0.00000  Uiso   1.00
H118   H     0.68017   0.24247  -0.26695   0.00000  Uiso   1.00
H119   H     0.64702   0.16772  -0.24661   0.00000  Uiso   1.00
H120   H     0.63115   0.03190   0.06945   0.00000  Uiso   1.00
H121   H     0.63933   0.06884  -0.27790   0.00000  Uiso   1.00
H122   H     0.59822   0.01679  -0.32668   0.00000  Uiso   1.00
H123   H     0.59546   0.29381   0.01975   0.00000  Uiso   1.00
C124   C     0.47738   0.01621   0.06161   0.00000  Uiso   1.00
H125   H     0.45707   0.02893   0.07864   0.00000  Uiso   1.00
C126   C     0.97316   0.52004   0.05170   0.00000  Uiso   1.00
C127   C     0.95684   0.47695   0.06064   0.00000  Uiso   1.00
C128   C     0.91194   0.44720   0.06703   0.00000  Uiso   1.00
N129   N     0.88514   0.45911   0.01873   0.00000  Uiso   1.00
C130   C     0.84109   0.43324   0.02082   0.00000  Uiso   1.00
C131   C     0.82110   0.39361   0.17478   0.00000  Uiso   1.00
C132   C     0.77809   0.37011   0.17720   0.00000  Uiso   1.00
C133   C     0.75390   0.38523   0.02074   0.00000  Uiso   1.00
C134   C     0.77437   0.42503  -0.13278   0.00000  Uiso   1.00
C135   C     0.81732   0.44883  -0.12690   0.00000  Uiso   1.00
O136   O     0.94616   0.53598   0.06165   0.00000  Uiso   1.00
C137   C     0.95820   0.57366  -0.12727   0.00000  Uiso   1.00
C138   C     0.70781   0.35983   0.01969   0.00000  Uiso   1.00
C139   C     0.68789   0.31652   0.01956   0.00000  Uiso   1.00
H140   H     0.90192   0.41484   0.09968   0.00000  Uiso   1.00
H141   H     0.83824   0.38111   0.30590   0.00000  Uiso   1.00
H142   H     0.76405   0.34063   0.31335   0.00000  Uiso   1.00
H143   H     0.75753   0.43770  -0.26695   0.00000  Uiso   1.00
H144   H     0.83228   0.47930  -0.24661   0.00000  Uiso   1.00
H145   H     0.96810   0.59925   0.06945   0.00000  Uiso   1.00
H146   H     0.93116   0.57049  -0.27790   0.00000  Uiso   1.00
H147   H     0.98321   0.58143  -0.32668   0.00000  Uiso   1.00
H148   H     0.70619   0.30165   0.01975   0.00000  Uiso   1.00
C149   C     0.98379   0.46117   0.06161   0.00000  Uiso   1.00
H150   H     0.97107   0.42814   0.07864   0.00000  Uiso   1.00
loop_
_geom_bond_atom_site_label_1
_geom_bond_atom_site_label_2
_geom_bond_distance
_geom_bond_site_symmetry_2
_ccdc_geom_bond_type
C1     C2      1.368   .     D
C1     O11     1.365   .     S
C1     C99     1.357   .     S
C2     C3      1.436   .     S
C2     C24     1.358   .     S
C3     N4      1.260   .     D
C3     H15     1.049   .     S
N4     C5      1.391   .     S
C5     C6      1.376   .     S
C5     C10     1.366   .     D
C6     C7      1.354   .     D
C6     H16     1.060   .     S
C7     C8      1.381   .     S
C7     H17     1.061   .     S
C8     C9      1.380   .     D
C8     C13     1.451   .     S
C9     C10     1.353   .     S
C9     H18     1.061   .     S
C10    H19     1.060   .     S
O11    C12     1.407   .     S
C12    H20     1.103   .     S
C12    H21     1.091   .     S
C12    H22     1.105   .     S
C13    C14     1.363   .     S
C13    C39     1.151   .     D
C14    H23     1.044   .     S
C14    C63     1.151   .     D
C24    H25     1.049   .     S
C24    C76     1.357   .     D
C26    C27     1.368   .     S
C26    O36     1.365   .     S
C26    C124    1.357   1_565 D
C27    C28     1.436   .     S
C27    C49     1.358   .     D
C28    N29     1.260   .     D
C28    H40     1.049   .     S
N29    C30     1.391   .     S
C30    C31     1.376   .     D
C30    C35     1.366   .     S
C31    C32     1.354   .     S
C31    H41     1.060   .     S
C32    C33     1.381   .     D
C32    H42     1.061   .     S
C33    C34     1.380   .     S
C33    C38     1.451   .     S
C34    C35     1.353   .     D
C34    H43     1.061   .     S
C35    H44     1.060   .     S
O36    C37     1.407   .     S
C37    H45     1.103   .     S
C37    H46     1.091   .     S
C37    H47     1.105   .     S
C38    C39     1.363   .     S
C38    C64     1.151   .     D
C39    H48     1.044   .     S
C49    H50     1.049   .     S
C49    C101    1.357   1_565 S
C51    C52     1.368   .     S
C51    O61     1.365   .     S
C51    C149    1.357   1_455 D
C52    C53     1.436   .     S
C52    C74     1.358   .     D
C53    N54     1.260   .     D
C53    H65     1.049   .     S
N54    C55     1.391   .     S
C55    C56     1.376   .     D
C55    C60     1.366   .     S
C56    C57     1.354   .     S
C56    H66     1.060   .     S
C57    C58     1.381   .     D
C57    H67     1.061   .     S
C58    C59     1.380   .     S
C58    C63     1.451   .     S
C59    C60     1.353   .     D
C59    H68     1.061   .     S
C60    H69     1.060   .     S
O61    C62     1.407   .     S
C62    H70     1.103   .     S
C62    H71     1.091   .     S
C62    H72     1.105   .     S
C63    C64     1.363   .     S
C64    H73     1.044   .     S
C74    H75     1.049   .     S
C74    C126    1.357   1_455 S
C76    C77     1.368   .     S
C76    O86     1.365   .     S
C77    C78     1.436   .     S
C77    C99     1.358   .     D
C78    N79     1.260   .     D
C78    H90     1.049   .     S
N79    C80     1.391   .     S
C80    C81     1.376   .     S
C80    C85     1.366   .     D
C81    C82     1.354   .     D
C81    H91     1.060   .     S
C82    C83     1.381   .     S
C82    H92     1.061   .     S
C83    C84     1.380   .     D
C83    C88     1.451   .     S
C84    C85     1.353   .     S
C84    H93     1.061   .     S
C85    H94     1.060   .     S
O86    C87     1.407   .     S
C87    H95     1.103   .     S
C87    H96     1.091   .     S
C87    H97     1.105   .     S
C88    C89     1.363   .     D
C88    C114    1.151   .     S
C89    H98     1.044   .     S
C89    C138    1.151   .     S
C99    H100    1.049   .     S
C101   C102    1.368   .     D
C101   O111    1.365   .     S
C101   C49     1.357   1_545 S
C102   C103    1.436   .     S
C102   C124    1.358   .     S
C103   N104    1.260   .     D
C103   H115    1.049   .     S
N104   C105    1.391   .     S
C105   C106    1.376   .     D
C105   C110    1.366   .     S
C106   C107    1.354   .     S
C106   H116    1.060   .     S
C107   C108    1.381   .     D
C107   H117    1.061   .     S
C108   C109    1.380   .     S
C108   C113    1.451   .     S
C109   C110    1.353   .     D
C109   H118    1.061   .     S
C110   H119    1.060   .     S
O111   C112    1.407   .     S
C112   H120    1.103   .     S
C112   H121    1.091   .     S
C112   H122    1.105   .     S
C113   C114    1.363   .     D
C113   C139    1.151   .     S
C114   H123    1.044   .     S
C124   H125    1.049   .     S
C124   C26     1.357   1_545 D
C126   C127    1.368   .     D
C126   O136    1.365   .     S
C126   C74     1.357   1_655 S
C127   C128    1.436   .     S
C127   C149    1.358   .     S
C128   N129    1.260   .     D
C128   H140    1.049   .     S
N129   C130    1.391   .     S
C130   C131    1.376   .     S
C130   C135    1.366   .     D
C131   C132    1.354   .     D
C131   H141    1.060   .     S
C132   C133    1.381   .     S
C132   H142    1.061   .     S
C133   C134    1.380   .     D
C133   C138    1.451   .     S
C134   C135    1.353   .     S
C134   H143    1.061   .     S
C135   H144    1.060   .     S
O136   C137    1.407   .     S
C137   H145    1.103   .     S
C137   H146    1.091   .     S
C137   H147    1.105   .     S
C138   C139    1.363   .     D
C139   H148    1.044   .     S
C149   H150    1.049   .     S
C149   C51     1.357   1_655 D
