data_1115
_audit_creation_date              2023-09-08
_audit_creation_method            'Materials Studio'
_symmetry_space_group_name_H-M    'P1'
_symmetry_Int_Tables_number       1
_symmetry_cell_setting            triclinic
loop_
_symmetry_equiv_pos_as_xyz
  x,y,z
_cell_length_a                    38.8021
_cell_length_b                    38.8021
_cell_length_c                    7.2400
_cell_angle_alpha                 90.0000
_cell_angle_beta                  90.0000
_cell_angle_gamma                 120.0000
loop_
_atom_site_label
_atom_site_type_symbol
_atom_site_fract_x
_atom_site_fract_y
_atom_site_fract_z
_atom_site_U_iso_or_equiv
_atom_site_adp_type
_atom_site_occupancy
C1     C     0.16841   0.85703   0.18451   0.00000  Uiso   1.00
C2     C     0.13690   0.84483   0.02845   0.00000  Uiso   1.00
C3     C     0.10901   0.86198   0.02439   0.00000  Uiso   1.00
N4     N     0.11989   0.89768   0.10857   0.00000  Uiso   1.00
C5     C     0.09518   0.91693   0.11190   0.00000  Uiso   1.00
C6     C     0.05220   0.89428   0.10789   0.00000  Uiso   1.00
C7     C     0.02925   0.91416   0.11417   0.00000  Uiso   1.00
C8     C     0.04836   0.95763   0.12360   0.00000  Uiso   1.00
C9     C     0.09194   0.97965   0.13137   0.00000  Uiso   1.00
C10    C     0.11466   0.95953   0.12763   0.00000  Uiso   1.00
O11    O     0.17218   0.88536   0.34686   0.00000  Uiso   1.00
C12    C     0.20468   0.89896   0.50189   0.00000  Uiso   1.00
C13    C     0.02340   0.97948   0.12535   0.00000  Uiso   1.00
C14    C     0.98007   0.95734   0.12524   0.00000  Uiso   1.00
H15    H     0.08025   0.84533  -0.06317   0.00000  Uiso   1.00
H16    H     0.03605   0.86107   0.10373   0.00000  Uiso   1.00
H17    H     0.99653   0.89413   0.11053   0.00000  Uiso   1.00
H18    H     0.10989   0.01255   0.14187   0.00000  Uiso   1.00
H19    H     0.14788   0.97743   0.13460   0.00000  Uiso   1.00
H20    H     0.20154   0.87279   0.60023   0.00000  Uiso   1.00
H21    H     0.20283   0.92107   0.61426   0.00000  Uiso   1.00
H22    H     0.23498   0.91494   0.41897   0.00000  Uiso   1.00
H23    H     0.96487   0.92483   0.12402   0.00000  Uiso   1.00
C24    C     0.13107   0.81533  -0.12845   0.00000  Uiso   1.00
H25    H     0.10656   0.80665  -0.24508   0.00000  Uiso   1.00
C26    C     0.15671   0.79789  -0.13783   0.00000  Uiso   1.00
C27    C     0.18847   0.81027   0.01770   0.00000  Uiso   1.00
C28    C     0.21656   0.79320   0.02436   0.00000  Uiso   1.00
N29    N     0.21531   0.76780  -0.12289   0.00000  Uiso   1.00
C30    C     0.24063   0.74915  -0.13318   0.00000  Uiso   1.00
C31    C     0.27559   0.76173  -0.00125   0.00000  Uiso   1.00
C32    C     0.29857   0.74193  -0.01611   0.00000  Uiso   1.00
C33    C     0.28727   0.70934  -0.16266   0.00000  Uiso   1.00
C34    C     0.25284   0.69730  -0.29660   0.00000  Uiso   1.00
C35    C     0.22995   0.71723  -0.28242   0.00000  Uiso   1.00
O36    O     0.15202   0.76871  -0.29705   0.00000  Uiso   1.00
C37    C     0.11972   0.75560  -0.45303   0.00000  Uiso   1.00
C38    C     0.31090   0.68751  -0.17226   0.00000  Uiso   1.00
C39    C     0.35403   0.70962  -0.17284   0.00000  Uiso   1.00
H40    H     0.23785   0.80204   0.15876   0.00000  Uiso   1.00
H41    H     0.28565   0.78678   0.11280   0.00000  Uiso   1.00
H42    H     0.32486   0.75165   0.08987   0.00000  Uiso   1.00
H43    H     0.24377   0.67261  -0.41295   0.00000  Uiso   1.00
H44    H     0.20346   0.70748  -0.38680   0.00000  Uiso   1.00
H45    H     0.08933   0.74023  -0.37086   0.00000  Uiso   1.00
H46    H     0.12109   0.73306  -0.56413   0.00000  Uiso   1.00
H47    H     0.12355   0.78192  -0.55250   0.00000  Uiso   1.00
H48    H     0.37005   0.74289  -0.17044   0.00000  Uiso   1.00
C49    C     0.19392   0.83947   0.17616   0.00000  Uiso   1.00
H50    H     0.21822   0.84809   0.29401   0.00000  Uiso   1.00
C51    C     0.14297   0.31138   0.18451   0.00000  Uiso   1.00
C52    C     0.15517   0.29207   0.02845   0.00000  Uiso   1.00
C53    C     0.13802   0.24703   0.02439   0.00000  Uiso   1.00
N54    N     0.10232   0.22221   0.10857   0.00000  Uiso   1.00
C55    C     0.08307   0.17825   0.11190   0.00000  Uiso   1.00
C56    C     0.10572   0.15792   0.10789   0.00000  Uiso   1.00
C57    C     0.08584   0.11509   0.11417   0.00000  Uiso   1.00
C58    C     0.04237   0.09073   0.12360   0.00000  Uiso   1.00
C59    C     0.02035   0.11229   0.13137   0.00000  Uiso   1.00
C60    C     0.04047   0.15513   0.12763   0.00000  Uiso   1.00
O61    O     0.11464   0.28682   0.34686   0.00000  Uiso   1.00
C62    C     0.10104   0.30572   0.50189   0.00000  Uiso   1.00
C63    C     0.02052   0.04392   0.12535   0.00000  Uiso   1.00
C64    C     0.04266   0.02273   0.12524   0.00000  Uiso   1.00
H65    H     0.15467   0.23492  -0.06317   0.00000  Uiso   1.00
H66    H     0.13893   0.17498   0.10373   0.00000  Uiso   1.00
H67    H     0.10587   0.10240   0.11053   0.00000  Uiso   1.00
H68    H     0.98745   0.09734   0.14187   0.00000  Uiso   1.00
H69    H     0.02257   0.17045   0.13460   0.00000  Uiso   1.00
H70    H     0.12721   0.32875   0.60023   0.00000  Uiso   1.00
H71    H     0.07893   0.28176   0.61426   0.00000  Uiso   1.00
H72    H     0.08506   0.32004   0.41897   0.00000  Uiso   1.00
H73    H     0.07517   0.04004   0.12402   0.00000  Uiso   1.00
C74    C     0.18467   0.31574  -0.12845   0.00000  Uiso   1.00
H75    H     0.19335   0.29991  -0.24508   0.00000  Uiso   1.00
C76    C     0.20211   0.35882  -0.13783   0.00000  Uiso   1.00
C77    C     0.18973   0.37820   0.01770   0.00000  Uiso   1.00
C78    C     0.20680   0.42336   0.02436   0.00000  Uiso   1.00
N79    N     0.23220   0.44751  -0.12289   0.00000  Uiso   1.00
C80    C     0.25085   0.49148  -0.13318   0.00000  Uiso   1.00
C81    C     0.23827   0.51386  -0.00125   0.00000  Uiso   1.00
C82    C     0.25807   0.55664  -0.01611   0.00000  Uiso   1.00
C83    C     0.29066   0.57793  -0.16266   0.00000  Uiso   1.00
C84    C     0.30270   0.55554  -0.29660   0.00000  Uiso   1.00
C85    C     0.28277   0.51272  -0.28242   0.00000  Uiso   1.00
O86    O     0.23129   0.38331  -0.29705   0.00000  Uiso   1.00
C87    C     0.24440   0.36412  -0.45303   0.00000  Uiso   1.00
C88    C     0.31249   0.62339  -0.17226   0.00000  Uiso   1.00
C89    C     0.29038   0.64441  -0.17284   0.00000  Uiso   1.00
H90    H     0.19796   0.43581   0.15876   0.00000  Uiso   1.00
H91    H     0.21322   0.49887   0.11280   0.00000  Uiso   1.00
H92    H     0.24835   0.57321   0.08987   0.00000  Uiso   1.00
H93    H     0.32739   0.57116  -0.41295   0.00000  Uiso   1.00
H94    H     0.29252   0.49598  -0.38680   0.00000  Uiso   1.00
H95    H     0.25977   0.34910  -0.37086   0.00000  Uiso   1.00
H96    H     0.26694   0.38803  -0.56413   0.00000  Uiso   1.00
H97    H     0.21808   0.34163  -0.55250   0.00000  Uiso   1.00
H98    H     0.25711   0.62716  -0.17044   0.00000  Uiso   1.00
C99    C     0.16053   0.35445   0.17616   0.00000  Uiso   1.00
H100   H     0.15191   0.37013   0.29401   0.00000  Uiso   1.00
C101   C     0.68862   0.83159   0.18451   0.00000  Uiso   1.00
C102   C     0.70793   0.86310   0.02845   0.00000  Uiso   1.00
C103   C     0.75297   0.89099   0.02439   0.00000  Uiso   1.00
N104   N     0.77779   0.88011   0.10857   0.00000  Uiso   1.00
C105   C     0.82175   0.90482   0.11190   0.00000  Uiso   1.00
C106   C     0.84208   0.94780   0.10789   0.00000  Uiso   1.00
C107   C     0.88491   0.97075   0.11417   0.00000  Uiso   1.00
C108   C     0.90927   0.95164   0.12360   0.00000  Uiso   1.00
C109   C     0.88771   0.90806   0.13137   0.00000  Uiso   1.00
C110   C     0.84487   0.88534   0.12763   0.00000  Uiso   1.00
O111   O     0.71318   0.82782   0.34686   0.00000  Uiso   1.00
C112   C     0.69428   0.79532   0.50189   0.00000  Uiso   1.00
C113   C     0.95608   0.97660   0.12535   0.00000  Uiso   1.00
C114   C     0.97727   0.01993   0.12524   0.00000  Uiso   1.00
H115   H     0.76508   0.91975  -0.06317   0.00000  Uiso   1.00
H116   H     0.82502   0.96395   0.10373   0.00000  Uiso   1.00
H117   H     0.89760   0.00347   0.11053   0.00000  Uiso   1.00
H118   H     0.90266   0.89011   0.14187   0.00000  Uiso   1.00
H119   H     0.82955   0.85212   0.13460   0.00000  Uiso   1.00
H120   H     0.67125   0.79846   0.60023   0.00000  Uiso   1.00
H121   H     0.71824   0.79717   0.61426   0.00000  Uiso   1.00
H122   H     0.67996   0.76502   0.41897   0.00000  Uiso   1.00
H123   H     0.95996   0.03513   0.12402   0.00000  Uiso   1.00
C124   C     0.68426   0.86893  -0.12845   0.00000  Uiso   1.00
H125   H     0.70009   0.89344  -0.24508   0.00000  Uiso   1.00
C126   C     0.64118   0.84329  -0.13783   0.00000  Uiso   1.00
C127   C     0.62180   0.81153   0.01770   0.00000  Uiso   1.00
C128   C     0.57664   0.78344   0.02436   0.00000  Uiso   1.00
N129   N     0.55249   0.78469  -0.12289   0.00000  Uiso   1.00
C130   C     0.50852   0.75937  -0.13318   0.00000  Uiso   1.00
C131   C     0.48614   0.72441  -0.00125   0.00000  Uiso   1.00
C132   C     0.44336   0.70143  -0.01611   0.00000  Uiso   1.00
C133   C     0.42207   0.71273  -0.16266   0.00000  Uiso   1.00
C134   C     0.44446   0.74716  -0.29660   0.00000  Uiso   1.00
C135   C     0.48728   0.77005  -0.28242   0.00000  Uiso   1.00
O136   O     0.61669   0.84798  -0.29705   0.00000  Uiso   1.00
C137   C     0.63588   0.88028  -0.45303   0.00000  Uiso   1.00
C138   C     0.37661   0.68910  -0.17226   0.00000  Uiso   1.00
C139   C     0.35559   0.64597  -0.17284   0.00000  Uiso   1.00
H140   H     0.56419   0.76215   0.15876   0.00000  Uiso   1.00
H141   H     0.50113   0.71435   0.11280   0.00000  Uiso   1.00
H142   H     0.42679   0.67514   0.08987   0.00000  Uiso   1.00
H143   H     0.42884   0.75623  -0.41295   0.00000  Uiso   1.00
H144   H     0.50402   0.79654  -0.38680   0.00000  Uiso   1.00
H145   H     0.65090   0.91067  -0.37086   0.00000  Uiso   1.00
H146   H     0.61197   0.87891  -0.56413   0.00000  Uiso   1.00
H147   H     0.65837   0.87645  -0.55250   0.00000  Uiso   1.00
H148   H     0.37284   0.62995  -0.17044   0.00000  Uiso   1.00
C149   C     0.64555   0.80608   0.17616   0.00000  Uiso   1.00
H150   H     0.62987   0.78178   0.29401   0.00000  Uiso   1.00
C151   C     0.83159   0.14297   0.68451   0.00000  Uiso   1.00
C152   C     0.86310   0.15517   0.52845   0.00000  Uiso   1.00
C153   C     0.89099   0.13802   0.52439   0.00000  Uiso   1.00
N154   N     0.88011   0.10232   0.60857   0.00000  Uiso   1.00
C155   C     0.90482   0.08307   0.61190   0.00000  Uiso   1.00
C156   C     0.94780   0.10572   0.60789   0.00000  Uiso   1.00
C157   C     0.97075   0.08584   0.61417   0.00000  Uiso   1.00
C158   C     0.95164   0.04237   0.62360   0.00000  Uiso   1.00
C159   C     0.90806   0.02035   0.63137   0.00000  Uiso   1.00
C160   C     0.88534   0.04047   0.62763   0.00000  Uiso   1.00
O161   O     0.82782   0.11464   0.84686   0.00000  Uiso   1.00
C162   C     0.79532   0.10104   1.00189   0.00000  Uiso   1.00
C163   C     0.97660   0.02052   0.62535   0.00000  Uiso   1.00
C164   C     0.01993   0.04266   0.62524   0.00000  Uiso   1.00
H165   H     0.91975   0.15467   0.43683   0.00000  Uiso   1.00
H166   H     0.96395   0.13893   0.60373   0.00000  Uiso   1.00
H167   H     0.00347   0.10587   0.61053   0.00000  Uiso   1.00
H168   H     0.89011   0.98745   0.64187   0.00000  Uiso   1.00
H169   H     0.85212   0.02257   0.63460   0.00000  Uiso   1.00
H170   H     0.79846   0.12721   1.10023   0.00000  Uiso   1.00
H171   H     0.79717   0.07893   1.11426   0.00000  Uiso   1.00
H172   H     0.76502   0.08506   0.91897   0.00000  Uiso   1.00
H173   H     0.03513   0.07517   0.62402   0.00000  Uiso   1.00
C174   C     0.86893   0.18467   0.37155   0.00000  Uiso   1.00
H175   H     0.89344   0.19335   0.25492   0.00000  Uiso   1.00
C176   C     0.84329   0.20211   0.36217   0.00000  Uiso   1.00
C177   C     0.81153   0.18973   0.51770   0.00000  Uiso   1.00
C178   C     0.78344   0.20680   0.52436   0.00000  Uiso   1.00
N179   N     0.78469   0.23220   0.37711   0.00000  Uiso   1.00
C180   C     0.75937   0.25085   0.36682   0.00000  Uiso   1.00
C181   C     0.72441   0.23827   0.49875   0.00000  Uiso   1.00
C182   C     0.70143   0.25807   0.48389   0.00000  Uiso   1.00
C183   C     0.71273   0.29066   0.33734   0.00000  Uiso   1.00
C184   C     0.74716   0.30270   0.20340   0.00000  Uiso   1.00
C185   C     0.77005   0.28277   0.21758   0.00000  Uiso   1.00
O186   O     0.84798   0.23129   0.20295   0.00000  Uiso   1.00
C187   C     0.88028   0.24440   0.04697   0.00000  Uiso   1.00
C188   C     0.68910   0.31249   0.32774   0.00000  Uiso   1.00
C189   C     0.64597   0.29038   0.32716   0.00000  Uiso   1.00
H190   H     0.76215   0.19796   0.65876   0.00000  Uiso   1.00
H191   H     0.71435   0.21322   0.61280   0.00000  Uiso   1.00
H192   H     0.67514   0.24835   0.58987   0.00000  Uiso   1.00
H193   H     0.75623   0.32739   0.08705   0.00000  Uiso   1.00
H194   H     0.79654   0.29252   0.11320   0.00000  Uiso   1.00
H195   H     0.91067   0.25977   0.12914   0.00000  Uiso   1.00
H196   H     0.87891   0.26694  -0.06413   0.00000  Uiso   1.00
H197   H     0.87645   0.21808  -0.05250   0.00000  Uiso   1.00
H198   H     0.62995   0.25711   0.32956   0.00000  Uiso   1.00
C199   C     0.80608   0.16053   0.67616   0.00000  Uiso   1.00
H200   H     0.78178   0.15191   0.79401   0.00000  Uiso   1.00
C201   C     0.85703   0.68862   0.68451   0.00000  Uiso   1.00
C202   C     0.84483   0.70793   0.52845   0.00000  Uiso   1.00
C203   C     0.86198   0.75297   0.52439   0.00000  Uiso   1.00
N204   N     0.89768   0.77779   0.60857   0.00000  Uiso   1.00
C205   C     0.91693   0.82175   0.61190   0.00000  Uiso   1.00
C206   C     0.89428   0.84208   0.60789   0.00000  Uiso   1.00
C207   C     0.91416   0.88491   0.61417   0.00000  Uiso   1.00
C208   C     0.95763   0.90927   0.62360   0.00000  Uiso   1.00
C209   C     0.97965   0.88771   0.63137   0.00000  Uiso   1.00
C210   C     0.95953   0.84487   0.62763   0.00000  Uiso   1.00
O211   O     0.88536   0.71318   0.84686   0.00000  Uiso   1.00
C212   C     0.89896   0.69428   1.00189   0.00000  Uiso   1.00
C213   C     0.97948   0.95608   0.62535   0.00000  Uiso   1.00
C214   C     0.95734   0.97727   0.62524   0.00000  Uiso   1.00
H215   H     0.84533   0.76508   0.43683   0.00000  Uiso   1.00
H216   H     0.86107   0.82502   0.60373   0.00000  Uiso   1.00
H217   H     0.89413   0.89760   0.61053   0.00000  Uiso   1.00
H218   H     0.01255   0.90266   0.64187   0.00000  Uiso   1.00
H219   H     0.97743   0.82955   0.63460   0.00000  Uiso   1.00
H220   H     0.87279   0.67125   1.10023   0.00000  Uiso   1.00
H221   H     0.92107   0.71824   1.11426   0.00000  Uiso   1.00
H222   H     0.91494   0.67996   0.91897   0.00000  Uiso   1.00
H223   H     0.92483   0.95996   0.62402   0.00000  Uiso   1.00
C224   C     0.81533   0.68426   0.37155   0.00000  Uiso   1.00
H225   H     0.80665   0.70009   0.25492   0.00000  Uiso   1.00
C226   C     0.79789   0.64118   0.36217   0.00000  Uiso   1.00
C227   C     0.81027   0.62180   0.51770   0.00000  Uiso   1.00
C228   C     0.79320   0.57664   0.52436   0.00000  Uiso   1.00
N229   N     0.76780   0.55249   0.37711   0.00000  Uiso   1.00
C230   C     0.74915   0.50852   0.36682   0.00000  Uiso   1.00
C231   C     0.76173   0.48614   0.49875   0.00000  Uiso   1.00
C232   C     0.74193   0.44336   0.48389   0.00000  Uiso   1.00
C233   C     0.70934   0.42207   0.33734   0.00000  Uiso   1.00
C234   C     0.69730   0.44446   0.20340   0.00000  Uiso   1.00
C235   C     0.71723   0.48728   0.21758   0.00000  Uiso   1.00
O236   O     0.76871   0.61669   0.20295   0.00000  Uiso   1.00
C237   C     0.75560   0.63588   0.04697   0.00000  Uiso   1.00
C238   C     0.68751   0.37661   0.32774   0.00000  Uiso   1.00
C239   C     0.70962   0.35559   0.32716   0.00000  Uiso   1.00
H240   H     0.80204   0.56419   0.65876   0.00000  Uiso   1.00
H241   H     0.78678   0.50113   0.61280   0.00000  Uiso   1.00
H242   H     0.75165   0.42679   0.58987   0.00000  Uiso   1.00
H243   H     0.67261   0.42884   0.08705   0.00000  Uiso   1.00
H244   H     0.70748   0.50402   0.11320   0.00000  Uiso   1.00
H245   H     0.74023   0.65090   0.12914   0.00000  Uiso   1.00
H246   H     0.73306   0.61197  -0.06413   0.00000  Uiso   1.00
H247   H     0.78192   0.65837  -0.05250   0.00000  Uiso   1.00
H248   H     0.74289   0.37284   0.32956   0.00000  Uiso   1.00
C249   C     0.83947   0.64555   0.67616   0.00000  Uiso   1.00
H250   H     0.84809   0.62987   0.79401   0.00000  Uiso   1.00
C251   C     0.31138   0.16841   0.68451   0.00000  Uiso   1.00
C252   C     0.29207   0.13690   0.52845   0.00000  Uiso   1.00
C253   C     0.24703   0.10901   0.52439   0.00000  Uiso   1.00
N254   N     0.22221   0.11989   0.60857   0.00000  Uiso   1.00
C255   C     0.17825   0.09518   0.61190   0.00000  Uiso   1.00
C256   C     0.15792   0.05220   0.60789   0.00000  Uiso   1.00
C257   C     0.11509   0.02925   0.61417   0.00000  Uiso   1.00
C258   C     0.09073   0.04836   0.62360   0.00000  Uiso   1.00
C259   C     0.11229   0.09194   0.63137   0.00000  Uiso   1.00
C260   C     0.15513   0.11466   0.62763   0.00000  Uiso   1.00
O261   O     0.28682   0.17218   0.84686   0.00000  Uiso   1.00
C262   C     0.30572   0.20468   1.00189   0.00000  Uiso   1.00
C263   C     0.04392   0.02340   0.62535   0.00000  Uiso   1.00
C264   C     0.02273   0.98007   0.62524   0.00000  Uiso   1.00
H265   H     0.23492   0.08025   0.43683   0.00000  Uiso   1.00
H266   H     0.17498   0.03605   0.60373   0.00000  Uiso   1.00
H267   H     0.10240   0.99653   0.61053   0.00000  Uiso   1.00
H268   H     0.09734   0.10989   0.64187   0.00000  Uiso   1.00
H269   H     0.17045   0.14788   0.63460   0.00000  Uiso   1.00
H270   H     0.32875   0.20154   1.10023   0.00000  Uiso   1.00
H271   H     0.28176   0.20283   1.11426   0.00000  Uiso   1.00
H272   H     0.32004   0.23498   0.91897   0.00000  Uiso   1.00
H273   H     0.04004   0.96487   0.62402   0.00000  Uiso   1.00
C274   C     0.31574   0.13107   0.37155   0.00000  Uiso   1.00
H275   H     0.29991   0.10656   0.25492   0.00000  Uiso   1.00
C276   C     0.35882   0.15671   0.36217   0.00000  Uiso   1.00
C277   C     0.37820   0.18847   0.51770   0.00000  Uiso   1.00
C278   C     0.42336   0.21656   0.52436   0.00000  Uiso   1.00
N279   N     0.44751   0.21531   0.37711   0.00000  Uiso   1.00
C280   C     0.49148   0.24063   0.36682   0.00000  Uiso   1.00
C281   C     0.51386   0.27559   0.49875   0.00000  Uiso   1.00
C282   C     0.55664   0.29857   0.48389   0.00000  Uiso   1.00
C283   C     0.57793   0.28727   0.33734   0.00000  Uiso   1.00
C284   C     0.55554   0.25284   0.20340   0.00000  Uiso   1.00
C285   C     0.51272   0.22995   0.21758   0.00000  Uiso   1.00
O286   O     0.38331   0.15202   0.20295   0.00000  Uiso   1.00
C287   C     0.36412   0.11972   0.04697   0.00000  Uiso   1.00
C288   C     0.62339   0.31090   0.32774   0.00000  Uiso   1.00
C289   C     0.64441   0.35403   0.32716   0.00000  Uiso   1.00
H290   H     0.43581   0.23785   0.65876   0.00000  Uiso   1.00
H291   H     0.49887   0.28565   0.61280   0.00000  Uiso   1.00
H292   H     0.57321   0.32486   0.58987   0.00000  Uiso   1.00
H293   H     0.57116   0.24377   0.08705   0.00000  Uiso   1.00
H294   H     0.49598   0.20346   0.11320   0.00000  Uiso   1.00
H295   H     0.34910   0.08933   0.12914   0.00000  Uiso   1.00
H296   H     0.38803   0.12109  -0.06413   0.00000  Uiso   1.00
H297   H     0.34163   0.12355  -0.05250   0.00000  Uiso   1.00
H298   H     0.62716   0.37005   0.32956   0.00000  Uiso   1.00
C299   C     0.35445   0.19392   0.67616   0.00000  Uiso   1.00
H300   H     0.37013   0.21822   0.79401   0.00000  Uiso   1.00
loop_
_geom_bond_atom_site_label_1
_geom_bond_atom_site_label_2
_geom_bond_distance
_geom_bond_site_symmetry_2
_ccdc_geom_bond_type
C1     C2      1.555   .     D
C1     O11     1.565   .     S
C1     C49     1.457   .     S
C2     C3      1.528   .     S
C2     C24     1.547   .     S
C3     N4      1.372   .     D
C3     H15     1.159   .     S
N4     C5      1.481   .     S
C5     C6      1.445   .     S
C5     C10     1.438   .     D
C6     C7      1.441   .     D
C6     H16     1.117   .     S
C7     C8      1.466   .     S
C7     H17     1.109   1_455 S
C8     C9      1.466   .     D
C8     C13     1.574   .     S
C9     C10     1.441   .     S
C9     H18     1.110   1_565 S
C10    H19     1.119   .     S
O11    C12     1.569   .     S
C12    H20     1.195   .     S
C12    H21     1.210   .     S
C12    H22     1.182   .     S
C13    C14     1.456   1_455 S
C13    C64     1.456   1_565 D
C14    H23     1.093   .     S
C14    C113    1.456   .     D
C14    C13     1.456   1_655 S
H17    C7      1.109   1_655 S
H18    C9      1.110   1_545 S
C24    H25     1.188   .     S
C24    C26     1.458   .     D
C26    C27     1.557   .     S
C26    O36     1.561   .     S
C27    C28     1.533   .     S
C27    C49     1.551   .     D
C28    N29     1.436   .     D
C28    H40     1.210   .     S
N29    C30     1.485   .     S
C30    C31     1.526   .     S
C30    C35     1.536   .     D
C31    C32     1.443   .     D
C31    H41     1.183   .     S
C32    C33     1.537   .     S
C32    H42     1.178   .     S
C33    C34     1.523   .     D
C33    C38     1.530   .     S
C34    C35     1.444   .     S
C34    H43     1.189   .     S
C35    H44     1.176   .     S
O36    C37     1.571   .     S
C37    H45     1.182   .     S
C37    H46     1.209   .     S
C37    H47     1.197   .     S
C38    C39     1.449   .     D
C38    C89     1.449   .     S
C39    H48     1.118   .     S
C39    C138    1.449   .     S
C49    H50     1.189   .     S
C51    C52     1.555   .     S
C51    O61     1.565   .     S
C51    C99     1.457   .     D
C52    C53     1.528   .     S
C52    C74     1.547   .     D
C53    N54     1.372   .     D
C53    H65     1.159   .     S
N54    C55     1.481   .     S
C55    C56     1.445   .     D
C55    C60     1.438   .     S
C56    C57     1.441   .     S
C56    H66     1.117   .     S
C57    C58     1.466   .     D
C57    H67     1.109   .     S
C58    C59     1.466   .     S
C58    C63     1.574   .     S
C59    C60     1.441   .     D
C59    H68     1.110   1_455 S
C60    H69     1.119   .     S
O61    C62     1.569   .     S
C62    H70     1.195   .     S
C62    H71     1.210   .     S
C62    H72     1.182   .     S
C63    C64     1.456   .     S
C63    C114    1.456   1_455 D
C64    H73     1.093   .     S
C64    C13     1.456   1_545 D
H68    C59     1.110   1_655 S
C74    H75     1.188   .     S
C74    C76     1.458   .     S
C76    C77     1.557   .     D
C76    O86     1.561   .     S
C77    C78     1.533   .     S
C77    C99     1.551   .     S
C78    N79     1.436   .     D
C78    H90     1.210   .     S
N79    C80     1.485   .     S
C80    C81     1.526   .     D
C80    C85     1.536   .     S
C81    C82     1.443   .     S
C81    H91     1.183   .     S
C82    C83     1.537   .     D
C82    H92     1.178   .     S
C83    C84     1.523   .     S
C83    C88     1.530   .     S
C84    C85     1.444   .     D
C84    H93     1.189   .     S
C85    H94     1.176   .     S
O86    C87     1.571   .     S
C87    H95     1.182   .     S
C87    H96     1.209   .     S
C87    H97     1.197   .     S
C88    C89     1.449   .     D
C88    C139    1.449   .     S
C89    H98     1.118   .     S
C99    H100    1.189   .     S
C101   C102    1.555   .     S
C101   O111    1.565   .     S
C101   C149    1.457   .     D
C102   C103    1.528   .     S
C102   C124    1.547   .     D
C103   N104    1.372   .     D
C103   H115    1.159   .     S
N104   C105    1.481   .     S
C105   C106    1.445   .     D
C105   C110    1.438   .     S
C106   C107    1.441   .     S
C106   H116    1.117   .     S
C107   C108    1.466   .     D
C107   H117    1.109   1_565 S
C108   C109    1.466   .     S
C108   C113    1.574   .     S
C109   C110    1.441   .     D
C109   H118    1.110   .     S
C110   H119    1.119   .     S
O111   C112    1.569   .     S
C112   H120    1.195   .     S
C112   H121    1.210   .     S
C112   H122    1.182   .     S
C113   C114    1.456   1_565 S
C114   H123    1.093   .     S
C114   C63     1.456   1_655 D
C114   C113    1.456   1_545 S
H117   C107    1.109   1_545 S
C124   H125    1.188   .     S
C124   C126    1.458   .     S
C126   C127    1.557   .     D
C126   O136    1.561   .     S
C127   C128    1.533   .     S
C127   C149    1.551   .     S
C128   N129    1.436   .     D
C128   H140    1.210   .     S
N129   C130    1.485   .     S
C130   C131    1.526   .     S
C130   C135    1.536   .     D
C131   C132    1.443   .     D
C131   H141    1.183   .     S
C132   C133    1.537   .     S
C132   H142    1.178   .     S
C133   C134    1.523   .     D
C133   C138    1.530   .     S
C134   C135    1.444   .     S
C134   H143    1.189   .     S
C135   H144    1.176   .     S
O136   C137    1.571   .     S
C137   H145    1.182   .     S
C137   H146    1.209   .     S
C137   H147    1.197   .     S
C138   C139    1.449   .     D
C139   H148    1.118   .     S
C149   H150    1.189   .     S
C151   C152    1.555   .     D
C151   O161    1.565   .     S
C151   C199    1.457   .     S
C152   C153    1.528   .     S
C152   C174    1.547   .     S
C153   N154    1.372   .     D
C153   H165    1.159   .     S
N154   C155    1.481   .     S
C155   C156    1.445   .     S
C155   C160    1.438   .     D
C156   C157    1.441   .     D
C156   H166    1.117   .     S
C157   C158    1.466   .     S
C157   H167    1.109   1_655 S
C158   C159    1.466   .     D
C158   C163    1.574   .     S
C159   C160    1.441   .     S
C159   H168    1.110   1_545 S
C160   H169    1.119   .     S
O161   C162    1.569   .     S
C162   H170    1.195   .     S
C162   H171    1.210   .     S
C162   H172    1.182   .     S
C163   C164    1.456   1_655 S
C163   C214    1.456   1_545 D
C164   H173    1.093   .     S
C164   C263    1.456   .     D
C164   C163    1.456   1_455 S
H167   C157    1.109   1_455 S
H168   C159    1.110   1_565 S
C174   H175    1.188   .     S
C174   C176    1.458   .     D
C176   C177    1.557   .     S
C176   O186    1.561   .     S
C177   C178    1.533   .     S
C177   C199    1.551   .     D
C178   N179    1.436   .     D
C178   H190    1.210   .     S
N179   C180    1.485   .     S
C180   C181    1.526   .     S
C180   C185    1.536   .     D
C181   C182    1.443   .     D
C181   H191    1.183   .     S
C182   C183    1.537   .     S
C182   H192    1.178   .     S
C183   C184    1.523   .     D
C183   C188    1.530   .     S
C184   C185    1.444   .     S
C184   H193    1.189   .     S
C185   H194    1.176   .     S
O186   C187    1.571   .     S
C187   H195    1.182   .     S
C187   H196    1.209   .     S
C187   H197    1.197   .     S
C188   C189    1.449   .     D
C188   C239    1.449   .     S
C189   H198    1.118   .     S
C189   C288    1.449   .     S
C199   H200    1.189   .     S
C201   C202    1.555   .     S
C201   O211    1.565   .     S
C201   C249    1.457   .     D
C202   C203    1.528   .     S
C202   C224    1.547   .     D
C203   N204    1.372   .     D
C203   H215    1.159   .     S
N204   C205    1.481   .     S
C205   C206    1.445   .     D
C205   C210    1.438   .     S
C206   C207    1.441   .     S
C206   H216    1.117   .     S
C207   C208    1.466   .     D
C207   H217    1.109   .     S
C208   C209    1.466   .     S
C208   C213    1.574   .     S
C209   C210    1.441   .     D
C209   H218    1.110   1_655 S
C210   H219    1.119   .     S
O211   C212    1.569   .     S
C212   H220    1.195   .     S
C212   H221    1.210   .     S
C212   H222    1.182   .     S
C213   C214    1.456   .     S
C213   C264    1.456   1_655 D
C214   H223    1.093   .     S
C214   C163    1.456   1_565 D
H218   C209    1.110   1_455 S
C224   H225    1.188   .     S
C224   C226    1.458   .     S
C226   C227    1.557   .     D
C226   O236    1.561   .     S
C227   C228    1.533   .     S
C227   C249    1.551   .     S
C228   N229    1.436   .     D
C228   H240    1.210   .     S
N229   C230    1.485   .     S
C230   C231    1.526   .     D
C230   C235    1.536   .     S
C231   C232    1.443   .     S
C231   H241    1.183   .     S
C232   C233    1.537   .     D
C232   H242    1.178   .     S
C233   C234    1.523   .     S
C233   C238    1.530   .     S
C234   C235    1.444   .     D
C234   H243    1.189   .     S
C235   H244    1.176   .     S
O236   C237    1.571   .     S
C237   H245    1.182   .     S
C237   H246    1.209   .     S
C237   H247    1.197   .     S
C238   C239    1.449   .     D
C238   C289    1.449   .     S
C239   H248    1.118   .     S
C249   H250    1.189   .     S
C251   C252    1.555   .     S
C251   O261    1.565   .     S
C251   C299    1.457   .     D
C252   C253    1.528   .     S
C252   C274    1.547   .     D
C253   N254    1.372   .     D
C253   H265    1.159   .     S
N254   C255    1.481   .     S
C255   C256    1.445   .     D
C255   C260    1.438   .     S
C256   C257    1.441   .     S
C256   H266    1.117   .     S
C257   C258    1.466   .     D
C257   H267    1.109   1_545 S
C258   C259    1.466   .     S
C258   C263    1.574   .     S
C259   C260    1.441   .     D
C259   H268    1.110   .     S
C260   H269    1.119   .     S
O261   C262    1.569   .     S
C262   H270    1.195   .     S
C262   H271    1.210   .     S
C262   H272    1.182   .     S
C263   C264    1.456   1_545 S
C264   H273    1.093   .     S
C264   C213    1.456   1_455 D
C264   C263    1.456   1_565 S
H267   C257    1.109   1_565 S
C274   H275    1.188   .     S
C274   C276    1.458   .     S
C276   C277    1.557   .     D
C276   O286    1.561   .     S
C277   C278    1.533   .     S
C277   C299    1.551   .     S
C278   N279    1.436   .     D
C278   H290    1.210   .     S
N279   C280    1.485   .     S
C280   C281    1.526   .     S
C280   C285    1.536   .     D
C281   C282    1.443   .     D
C281   H291    1.183   .     S
C282   C283    1.537   .     S
C282   H292    1.178   .     S
C283   C284    1.523   .     D
C283   C288    1.530   .     S
C284   C285    1.444   .     S
C284   H293    1.189   .     S
C285   H294    1.176   .     S
O286   C287    1.571   .     S
C287   H295    1.182   .     S
C287   H296    1.209   .     S
C287   H297    1.197   .     S
C288   C289    1.449   .     D
C289   H298    1.118   .     S
C299   H300    1.189   .     S
