data_1116
_audit_creation_date              2023-09-08
_audit_creation_method            'Materials Studio'
_symmetry_space_group_name_H-M    'P1'
_symmetry_Int_Tables_number       1
_symmetry_cell_setting            triclinic
loop_
_symmetry_equiv_pos_as_xyz
  x,y,z
_cell_length_a                    44.6500
_cell_length_b                    44.6500
_cell_length_c                    3.5100
_cell_angle_alpha                 90.0000
_cell_angle_beta                  90.0000
_cell_angle_gamma                 120.0000
loop_
_atom_site_label
_atom_site_type_symbol
_atom_site_fract_x
_atom_site_fract_y
_atom_site_fract_z
_atom_site_U_iso_or_equiv
_atom_site_adp_type
_atom_site_occupancy
C1     C     0.68141   0.36949   0.00000   0.00000  Uiso   1.00
C2     C     0.64550   0.34791   0.00000   0.00000  Uiso   1.00
C3     C     0.59255   0.28944   0.00000   0.00000  Uiso   1.00
C4     C     0.73286   0.42907   0.00000   0.00000  Uiso   1.00
C5     C     0.74746   0.46488   0.00000   0.00000  Uiso   1.00
C6     C     0.72627   0.47962   0.00000   0.00000  Uiso   1.00
C7     C     0.69047   0.45830   0.00000   0.00000  Uiso   1.00
C8     C     0.67587   0.42247   0.00000   0.00000  Uiso   1.00
C9     C     0.77620   0.25910   0.00000   0.00000  Uiso   1.00
N10    N     0.76401   0.22607   0.00000   0.00000  Uiso   1.00
C11    C     0.78485   0.21001   0.00000   0.00000  Uiso   1.00
C12    C     0.76816   0.17396   0.00000   0.00000  Uiso   1.00
N13    N     0.78716   0.15699   0.00000   0.00000  Uiso   1.00
C14    C     0.82330   0.17572   0.00000   0.00000  Uiso   1.00
C15    C     0.84005   0.21184   0.00000   0.00000  Uiso   1.00
C16    C     0.82123   0.22901   0.00000   0.00000  Uiso   1.00
C17    C     0.84342   0.15767   0.00000   0.00000  Uiso   1.00
N18    N     0.82667   0.12155   0.00000   0.00000  Uiso   1.00
C19    C     0.84549   0.10437   0.00000   0.00000  Uiso   1.00
C20    C     0.88187   0.12337   0.00000   0.00000  Uiso   1.00
C21    C     0.89856   0.15942   0.00000   0.00000  Uiso   1.00
C22    C     0.87957   0.17639   0.00000   0.00000  Uiso   1.00
N23    N     0.90270   0.10731   0.00000   0.00000  Uiso   1.00
C24    C     0.89051   0.07427   0.00000   0.00000  Uiso   1.00
C25    C     0.91335   0.05963   0.00000   0.00000  Uiso   1.00
C26    C     0.89886   0.02383   0.00000   0.00000  Uiso   1.00
C27    C     0.92008   0.00923   0.00000   0.00000  Uiso   1.00
C28    C     0.95612   0.03024   0.00000   0.00000  Uiso   1.00
C29    C     0.97048   0.06621   0.00000   0.00000  Uiso   1.00
C30    C     0.94928   0.08082   0.00000   0.00000  Uiso   1.00
C31    C     0.97860   0.01475   0.00000   0.00000  Uiso   1.00
H32    H     0.82901   0.07109   0.00000   0.00000  Uiso   1.00
H33    H     0.83770   0.26230   0.00000   0.00000  Uiso   1.00
H34    H     0.82476   0.75278   0.00000   0.00000  Uiso   1.00
C35    C     0.63051   0.31192   0.00000   0.00000  Uiso   1.00
C36    C     0.65209   0.29759   0.00000   0.00000  Uiso   1.00
C37    C     0.71056   0.30311   0.00000   0.00000  Uiso   1.00
C38    C     0.57093   0.30379   0.00000   0.00000  Uiso   1.00
C39    C     0.53512   0.28258   0.00000   0.00000  Uiso   1.00
C40    C     0.52038   0.24665   0.00000   0.00000  Uiso   1.00
C41    C     0.54170   0.23217   0.00000   0.00000  Uiso   1.00
C42    C     0.57753   0.25340   0.00000   0.00000  Uiso   1.00
C43    C     0.74090   0.51710   0.00000   0.00000  Uiso   1.00
N44    N     0.77393   0.53794   0.00000   0.00000  Uiso   1.00
C45    C     0.78999   0.57484   0.00000   0.00000  Uiso   1.00
C46    C     0.82604   0.59420   0.00000   0.00000  Uiso   1.00
N47    N     0.84301   0.63017   0.00000   0.00000  Uiso   1.00
C48    C     0.82428   0.64758   0.00000   0.00000  Uiso   1.00
C49    C     0.78816   0.62821   0.00000   0.00000  Uiso   1.00
C50    C     0.77099   0.59222   0.00000   0.00000  Uiso   1.00
C51    C     0.84233   0.68575   0.00000   0.00000  Uiso   1.00
N52    N     0.87845   0.70512   0.00000   0.00000  Uiso   1.00
C53    C     0.89563   0.74112   0.00000   0.00000  Uiso   1.00
C54    C     0.87663   0.75850   0.00000   0.00000  Uiso   1.00
C55    C     0.84058   0.73914   0.00000   0.00000  Uiso   1.00
C56    C     0.82361   0.70318   0.00000   0.00000  Uiso   1.00
N57    N     0.89269   0.79539   0.00000   0.00000  Uiso   1.00
C58    C     0.92573   0.81624   0.00000   0.00000  Uiso   1.00
C59    C     0.94037   0.85372   0.00000   0.00000  Uiso   1.00
C60    C     0.97617   0.87503   0.00000   0.00000  Uiso   1.00
C61    C     0.99077   0.91085   0.00000   0.00000  Uiso   1.00
C62    C     0.96976   0.92588   0.00000   0.00000  Uiso   1.00
C63    C     0.93379   0.90427   0.00000   0.00000  Uiso   1.00
C64    C     0.91918   0.86846   0.00000   0.00000  Uiso   1.00
C65    C     0.98525   0.96385   0.00000   0.00000  Uiso   1.00
H66    H     0.92891   0.75792   0.00000   0.00000  Uiso   1.00
H67    H     0.73770   0.57540   0.00000   0.00000  Uiso   1.00
H68    H     0.24722   0.07199   0.00000   0.00000  Uiso   1.00
C69    C     0.68808   0.31859   0.00000   0.00000  Uiso   1.00
C70    C     0.70241   0.35450   0.00000   0.00000  Uiso   1.00
C71    C     0.69689   0.40745   0.00000   0.00000  Uiso   1.00
C72    C     0.69621   0.26714   0.00000   0.00000  Uiso   1.00
C73    C     0.71742   0.25254   0.00000   0.00000  Uiso   1.00
C74    C     0.75335   0.27373   0.00000   0.00000  Uiso   1.00
C75    C     0.76783   0.30953   0.00000   0.00000  Uiso   1.00
C76    C     0.74660   0.32413   0.00000   0.00000  Uiso   1.00
C77    C     0.48290   0.22380   0.00000   0.00000  Uiso   1.00
N78    N     0.46206   0.23599   0.00000   0.00000  Uiso   1.00
C79    C     0.42516   0.21515   0.00000   0.00000  Uiso   1.00
C80    C     0.40580   0.23184   0.00000   0.00000  Uiso   1.00
N81    N     0.36983   0.21284   0.00000   0.00000  Uiso   1.00
C82    C     0.35242   0.17670   0.00000   0.00000  Uiso   1.00
C83    C     0.37179   0.15995   0.00000   0.00000  Uiso   1.00
C84    C     0.40778   0.17877   0.00000   0.00000  Uiso   1.00
C85    C     0.31425   0.15658   0.00000   0.00000  Uiso   1.00
N86    N     0.29488   0.17333   0.00000   0.00000  Uiso   1.00
C87    C     0.25888   0.15451   0.00000   0.00000  Uiso   1.00
C88    C     0.24150   0.11813   0.00000   0.00000  Uiso   1.00
C89    C     0.26086   0.10144   0.00000   0.00000  Uiso   1.00
C90    C     0.29682   0.12043   0.00000   0.00000  Uiso   1.00
N91    N     0.20461   0.09730   0.00000   0.00000  Uiso   1.00
C92    C     0.18376   0.10949   0.00000   0.00000  Uiso   1.00
C93    C     0.14628   0.08665   0.00000   0.00000  Uiso   1.00
C94    C     0.12497   0.10114   0.00000   0.00000  Uiso   1.00
C95    C     0.08915   0.07992   0.00000   0.00000  Uiso   1.00
C96    C     0.07412   0.04388   0.00000   0.00000  Uiso   1.00
C97    C     0.09573   0.02952   0.00000   0.00000  Uiso   1.00
C98    C     0.13154   0.05072   0.00000   0.00000  Uiso   1.00
C99    C     0.03615   0.02140   0.00000   0.00000  Uiso   1.00
H100   H     0.24208   0.17099   0.00000   0.00000  Uiso   1.00
H101   H     0.42460   0.16230   0.00000   0.00000  Uiso   1.00
H102   H     0.92801   0.17524   0.00000   0.00000  Uiso   1.00
C103   C     0.31859   0.63051   0.00000   0.00000  Uiso   1.00
C104   C     0.35450   0.65209   0.00000   0.00000  Uiso   1.00
C105   C     0.40745   0.71056   0.00000   0.00000  Uiso   1.00
C106   C     0.26714   0.57093   0.00000   0.00000  Uiso   1.00
C107   C     0.25254   0.53512   0.00000   0.00000  Uiso   1.00
C108   C     0.27373   0.52038   0.00000   0.00000  Uiso   1.00
C109   C     0.30953   0.54170   0.00000   0.00000  Uiso   1.00
C110   C     0.32413   0.57753   0.00000   0.00000  Uiso   1.00
C111   C     0.22380   0.74090   0.00000   0.00000  Uiso   1.00
N112   N     0.23599   0.77393   0.00000   0.00000  Uiso   1.00
C113   C     0.21515   0.78999   0.00000   0.00000  Uiso   1.00
C114   C     0.23184   0.82604   0.00000   0.00000  Uiso   1.00
N115   N     0.21284   0.84301   0.00000   0.00000  Uiso   1.00
C116   C     0.17670   0.82428   0.00000   0.00000  Uiso   1.00
C117   C     0.15995   0.78816   0.00000   0.00000  Uiso   1.00
C118   C     0.17877   0.77099   0.00000   0.00000  Uiso   1.00
C119   C     0.15658   0.84233   0.00000   0.00000  Uiso   1.00
N120   N     0.17333   0.87845   0.00000   0.00000  Uiso   1.00
C121   C     0.15451   0.89563   0.00000   0.00000  Uiso   1.00
C122   C     0.11813   0.87663   0.00000   0.00000  Uiso   1.00
C123   C     0.10144   0.84058   0.00000   0.00000  Uiso   1.00
C124   C     0.12043   0.82361   0.00000   0.00000  Uiso   1.00
N125   N     0.09730   0.89269   0.00000   0.00000  Uiso   1.00
C126   C     0.10949   0.92573   0.00000   0.00000  Uiso   1.00
C127   C     0.08665   0.94037   0.00000   0.00000  Uiso   1.00
C128   C     0.10114   0.97617   0.00000   0.00000  Uiso   1.00
C129   C     0.07992   0.99077   0.00000   0.00000  Uiso   1.00
C130   C     0.04388   0.96976   0.00000   0.00000  Uiso   1.00
C131   C     0.02952   0.93379   0.00000   0.00000  Uiso   1.00
C132   C     0.05072   0.91918   0.00000   0.00000  Uiso   1.00
C133   C     0.02140   0.98525   0.00000   0.00000  Uiso   1.00
H134   H     0.17099   0.92891   0.00000   0.00000  Uiso   1.00
H135   H     0.16230   0.73770   0.00000   0.00000  Uiso   1.00
H136   H     0.17524   0.24722   0.00000   0.00000  Uiso   1.00
C137   C     0.36949   0.68808   0.00000   0.00000  Uiso   1.00
C138   C     0.34791   0.70241   0.00000   0.00000  Uiso   1.00
C139   C     0.28944   0.69689   0.00000   0.00000  Uiso   1.00
C140   C     0.42907   0.69621   0.00000   0.00000  Uiso   1.00
C141   C     0.46488   0.71742   0.00000   0.00000  Uiso   1.00
C142   C     0.47962   0.75335   0.00000   0.00000  Uiso   1.00
C143   C     0.45830   0.76783   0.00000   0.00000  Uiso   1.00
C144   C     0.42247   0.74660   0.00000   0.00000  Uiso   1.00
C145   C     0.25910   0.48290   0.00000   0.00000  Uiso   1.00
N146   N     0.22607   0.46206   0.00000   0.00000  Uiso   1.00
C147   C     0.21001   0.42516   0.00000   0.00000  Uiso   1.00
C148   C     0.17396   0.40580   0.00000   0.00000  Uiso   1.00
N149   N     0.15699   0.36983   0.00000   0.00000  Uiso   1.00
C150   C     0.17572   0.35242   0.00000   0.00000  Uiso   1.00
C151   C     0.21184   0.37179   0.00000   0.00000  Uiso   1.00
C152   C     0.22901   0.40778   0.00000   0.00000  Uiso   1.00
C153   C     0.15767   0.31425   0.00000   0.00000  Uiso   1.00
N154   N     0.12155   0.29488   0.00000   0.00000  Uiso   1.00
C155   C     0.10437   0.25888   0.00000   0.00000  Uiso   1.00
C156   C     0.12337   0.24150   0.00000   0.00000  Uiso   1.00
C157   C     0.15942   0.26086   0.00000   0.00000  Uiso   1.00
C158   C     0.17639   0.29682   0.00000   0.00000  Uiso   1.00
N159   N     0.10731   0.20461   0.00000   0.00000  Uiso   1.00
C160   C     0.07427   0.18376   0.00000   0.00000  Uiso   1.00
C161   C     0.05963   0.14628   0.00000   0.00000  Uiso   1.00
C162   C     0.02383   0.12497   0.00000   0.00000  Uiso   1.00
C163   C     0.00923   0.08915   0.00000   0.00000  Uiso   1.00
C164   C     0.03024   0.07412   0.00000   0.00000  Uiso   1.00
C165   C     0.06621   0.09573   0.00000   0.00000  Uiso   1.00
C166   C     0.08082   0.13154   0.00000   0.00000  Uiso   1.00
C167   C     0.01475   0.03615   0.00000   0.00000  Uiso   1.00
H168   H     0.07109   0.24208   0.00000   0.00000  Uiso   1.00
H169   H     0.26230   0.42460   0.00000   0.00000  Uiso   1.00
H170   H     0.75278   0.92801   0.00000   0.00000  Uiso   1.00
C171   C     0.31192   0.68141   0.00000   0.00000  Uiso   1.00
C172   C     0.29759   0.64550   0.00000   0.00000  Uiso   1.00
C173   C     0.30311   0.59255   0.00000   0.00000  Uiso   1.00
C174   C     0.30379   0.73286   0.00000   0.00000  Uiso   1.00
C175   C     0.28258   0.74746   0.00000   0.00000  Uiso   1.00
C176   C     0.24665   0.72627   0.00000   0.00000  Uiso   1.00
C177   C     0.23217   0.69047   0.00000   0.00000  Uiso   1.00
C178   C     0.25340   0.67587   0.00000   0.00000  Uiso   1.00
C179   C     0.51710   0.77620   0.00000   0.00000  Uiso   1.00
N180   N     0.53794   0.76401   0.00000   0.00000  Uiso   1.00
C181   C     0.57484   0.78485   0.00000   0.00000  Uiso   1.00
C182   C     0.59420   0.76816   0.00000   0.00000  Uiso   1.00
N183   N     0.63017   0.78716   0.00000   0.00000  Uiso   1.00
C184   C     0.64758   0.82330   0.00000   0.00000  Uiso   1.00
C185   C     0.62821   0.84005   0.00000   0.00000  Uiso   1.00
C186   C     0.59222   0.82123   0.00000   0.00000  Uiso   1.00
C187   C     0.68575   0.84342   0.00000   0.00000  Uiso   1.00
N188   N     0.70512   0.82667   0.00000   0.00000  Uiso   1.00
C189   C     0.74112   0.84549   0.00000   0.00000  Uiso   1.00
C190   C     0.75850   0.88187   0.00000   0.00000  Uiso   1.00
C191   C     0.73914   0.89856   0.00000   0.00000  Uiso   1.00
C192   C     0.70318   0.87957   0.00000   0.00000  Uiso   1.00
N193   N     0.79539   0.90270   0.00000   0.00000  Uiso   1.00
C194   C     0.81624   0.89051   0.00000   0.00000  Uiso   1.00
C195   C     0.85372   0.91335   0.00000   0.00000  Uiso   1.00
C196   C     0.87503   0.89886   0.00000   0.00000  Uiso   1.00
C197   C     0.91085   0.92008   0.00000   0.00000  Uiso   1.00
C198   C     0.92588   0.95612   0.00000   0.00000  Uiso   1.00
C199   C     0.90427   0.97048   0.00000   0.00000  Uiso   1.00
C200   C     0.86846   0.94928   0.00000   0.00000  Uiso   1.00
C201   C     0.96385   0.97860   0.00000   0.00000  Uiso   1.00
H202   H     0.75792   0.82901   0.00000   0.00000  Uiso   1.00
H203   H     0.57540   0.83770   0.00000   0.00000  Uiso   1.00
H204   H     0.07199   0.82476   0.00000   0.00000  Uiso   1.00
H205   H     0.62790   0.35960   0.00000   0.00000  Uiso   1.00
H206   H     0.75022   0.41712   0.00000   0.00000  Uiso   1.00
H207   H     0.77678   0.48224   0.00000   0.00000  Uiso   1.00
H208   H     0.67302   0.47015   0.00000   0.00000  Uiso   1.00
H209   H     0.64656   0.40510   0.00000   0.00000  Uiso   1.00
H210   H     0.80535   0.27749   0.00000   0.00000  Uiso   1.00
H211   H     0.73871   0.15814   0.00000   0.00000  Uiso   1.00
H212   H     0.86951   0.22764   0.00000   0.00000  Uiso   1.00
H213   H     0.83531   0.25848   0.00000   0.00000  Uiso   1.00
H214   H     0.83143   0.07490   0.00000   0.00000  Uiso   1.00
H215   H     0.89378   0.20587   0.00000   0.00000  Uiso   1.00
H216   H     0.86136   0.05587   0.00000   0.00000  Uiso   1.00
H217   H     0.86956   0.00639   0.00000   0.00000  Uiso   1.00
H218   H     0.96124   0.11014   0.00000   0.00000  Uiso   1.00
H219   H     0.64040   0.26831   0.00000   0.00000  Uiso   1.00
H220   H     0.58288   0.33311   0.00000   0.00000  Uiso   1.00
H221   H     0.51776   0.29453   0.00000   0.00000  Uiso   1.00
H222   H     0.52985   0.20287   0.00000   0.00000  Uiso   1.00
H223   H     0.59490   0.24145   0.00000   0.00000  Uiso   1.00
H224   H     0.72251   0.52786   0.00000   0.00000  Uiso   1.00
H225   H     0.84186   0.58056   0.00000   0.00000  Uiso   1.00
H226   H     0.77236   0.64187   0.00000   0.00000  Uiso   1.00
H227   H     0.74152   0.57683   0.00000   0.00000  Uiso   1.00
H228   H     0.92510   0.75653   0.00000   0.00000  Uiso   1.00
H229   H     0.79413   0.68792   0.00000   0.00000  Uiso   1.00
H230   H     0.94413   0.80549   0.00000   0.00000  Uiso   1.00
H231   H     0.99361   0.86317   0.00000   0.00000  Uiso   1.00
H232   H     0.88986   0.85110   0.00000   0.00000  Uiso   1.00
H233   H     0.73169   0.37210   0.00000   0.00000  Uiso   1.00
H234   H     0.66689   0.24978   0.00000   0.00000  Uiso   1.00
H235   H     0.70547   0.22322   0.00000   0.00000  Uiso   1.00
H236   H     0.79713   0.32698   0.00000   0.00000  Uiso   1.00
H237   H     0.75855   0.35344   0.00000   0.00000  Uiso   1.00
H238   H     0.47214   0.19465   0.00000   0.00000  Uiso   1.00
H239   H     0.41944   0.26129   0.00000   0.00000  Uiso   1.00
H240   H     0.35813   0.13049   0.00000   0.00000  Uiso   1.00
H241   H     0.42317   0.16469   0.00000   0.00000  Uiso   1.00
H242   H     0.24347   0.16857   0.00000   0.00000  Uiso   1.00
H243   H     0.31208   0.10622   0.00000   0.00000  Uiso   1.00
H244   H     0.19451   0.13864   0.00000   0.00000  Uiso   1.00
H245   H     0.13683   0.13044   0.00000   0.00000  Uiso   1.00
H246   H     0.14890   0.03876   0.00000   0.00000  Uiso   1.00
H247   H     0.37210   0.64040   0.00000   0.00000  Uiso   1.00
H248   H     0.24978   0.58288   0.00000   0.00000  Uiso   1.00
H249   H     0.22322   0.51776   0.00000   0.00000  Uiso   1.00
H250   H     0.32698   0.52985   0.00000   0.00000  Uiso   1.00
H251   H     0.35344   0.59490   0.00000   0.00000  Uiso   1.00
H252   H     0.19465   0.72251   0.00000   0.00000  Uiso   1.00
H253   H     0.26129   0.84186   0.00000   0.00000  Uiso   1.00
H254   H     0.13049   0.77236   0.00000   0.00000  Uiso   1.00
H255   H     0.16469   0.74152   0.00000   0.00000  Uiso   1.00
H256   H     0.16857   0.92510   0.00000   0.00000  Uiso   1.00
H257   H     0.10622   0.79413   0.00000   0.00000  Uiso   1.00
H258   H     0.13864   0.94413   0.00000   0.00000  Uiso   1.00
H259   H     0.13044   0.99361   0.00000   0.00000  Uiso   1.00
H260   H     0.03876   0.88986   0.00000   0.00000  Uiso   1.00
H261   H     0.35960   0.73169   0.00000   0.00000  Uiso   1.00
H262   H     0.41712   0.66689   0.00000   0.00000  Uiso   1.00
H263   H     0.48224   0.70547   0.00000   0.00000  Uiso   1.00
H264   H     0.47015   0.79713   0.00000   0.00000  Uiso   1.00
H265   H     0.40510   0.75855   0.00000   0.00000  Uiso   1.00
H266   H     0.27749   0.47214   0.00000   0.00000  Uiso   1.00
H267   H     0.15814   0.41944   0.00000   0.00000  Uiso   1.00
H268   H     0.22764   0.35813   0.00000   0.00000  Uiso   1.00
H269   H     0.25848   0.42317   0.00000   0.00000  Uiso   1.00
H270   H     0.07490   0.24347   0.00000   0.00000  Uiso   1.00
H271   H     0.20587   0.31208   0.00000   0.00000  Uiso   1.00
H272   H     0.05587   0.19451   0.00000   0.00000  Uiso   1.00
H273   H     0.00639   0.13683   0.00000   0.00000  Uiso   1.00
H274   H     0.11014   0.14890   0.00000   0.00000  Uiso   1.00
H275   H     0.26831   0.62790   0.00000   0.00000  Uiso   1.00
H276   H     0.33311   0.75022   0.00000   0.00000  Uiso   1.00
H277   H     0.29453   0.77678   0.00000   0.00000  Uiso   1.00
H278   H     0.20287   0.67302   0.00000   0.00000  Uiso   1.00
H279   H     0.24145   0.64656   0.00000   0.00000  Uiso   1.00
H280   H     0.52786   0.80535   0.00000   0.00000  Uiso   1.00
H281   H     0.58056   0.73871   0.00000   0.00000  Uiso   1.00
H282   H     0.64187   0.86951   0.00000   0.00000  Uiso   1.00
H283   H     0.57683   0.83531   0.00000   0.00000  Uiso   1.00
H284   H     0.75653   0.83143   0.00000   0.00000  Uiso   1.00
H285   H     0.68792   0.89378   0.00000   0.00000  Uiso   1.00
H286   H     0.80549   0.86136   0.00000   0.00000  Uiso   1.00
H287   H     0.86317   0.86956   0.00000   0.00000  Uiso   1.00
H288   H     0.85110   0.96124   0.00000   0.00000  Uiso   1.00
loop_
_geom_bond_atom_site_label_1
_geom_bond_atom_site_label_2
_geom_bond_distance
_geom_bond_site_symmetry_2
_ccdc_geom_bond_type
C1     C2      1.398   .     S
C1     C70     1.398   .     D
C1     C71     1.476   .     S
C2     C35     1.398   .     D
C2     H205    1.140   .     S
C3     C35     1.476   .     S
C3     C42     1.400   .     S
C3     C38     1.400   .     D
C4     C5      1.393   .     S
C4     C71     1.400   .     D
C4     H206    1.140   .     S
C5     C6      1.397   .     D
C5     H207    1.140   .     S
C6     C7      1.393   .     S
C6     C43     1.461   .     S
C7     C8      1.393   .     D
C7     H208    1.140   .     S
C8     C71     1.400   .     S
C8     H209    1.140   .     S
C9     N10     1.292   .     D
C9     C74     1.461   .     S
C9     H210    1.140   .     S
N10    C11     1.431   .     S
C11    C12     1.395   .     D
C11    C16     1.407   .     S
C12    N13     1.392   .     S
C12    H211    1.140   .     S
N13    C14     1.398   .     S
C14    C15     1.398   .     D
C14    C17     1.477   .     S
C15    C16     1.392   .     S
C15    H212    1.140   .     S
C16    H213    1.140   .     S
C16    H33     1.287   .     S
C17    N18     1.398   .     D
C17    C22     1.398   .     S
N18    C19     1.393   .     S
C19    C20     1.407   .     S
C19    H214    1.140   .     S
C19    H32     1.287   .     S
C20    C21     1.395   .     S
C20    N23     1.430   .     D
C21    C22     1.391   .     D
C21    H102    1.140   .     S
C22    H215    1.140   .     S
N23    C24     1.292   .     S
C24    C25     1.461   .     D
C24    H216    1.140   .     S
C25    C26     1.393   .     S
C25    C30     1.397   .     S
C26    C27     1.393   .     D
C26    H217    1.140   .     S
C27    C28     1.400   .     S
C27    C199    1.507   1_545 S
C28    C29     1.400   .     S
C28    C31     1.476   .     D
C29    C30     1.392   .     D
C29    C163    1.507   1_655 S
C30    H218    1.140   .     S
C31    C167    1.406   1_655 S
C31    C201    1.406   1_545 S
H34    C55     1.140   .     S
C35    C36     1.398   .     S
C36    C69     1.398   .     D
C36    H219    1.140   .     S
C37    C69     1.476   .     S
C37    C76     1.400   .     S
C37    C72     1.400   .     D
C38    C39     1.393   .     S
C38    H220    1.140   .     S
C39    C40     1.397   .     D
C39    H221    1.140   .     S
C40    C41     1.393   .     S
C40    C77     1.461   .     S
C41    C42     1.393   .     D
C41    H222    1.140   .     S
C42    H223    1.140   .     S
C43    N44     1.292   .     D
C43    H224    1.140   .     S
N44    C45     1.431   .     S
C45    C46     1.395   .     D
C45    C50     1.407   .     S
C46    N47     1.392   .     S
C46    H225    1.140   .     S
N47    C48     1.398   .     S
C48    C49     1.398   .     D
C48    C51     1.477   .     S
C49    C50     1.392   .     S
C49    H226    1.140   .     S
C50    H227    1.140   .     S
C50    H67     1.287   .     S
C51    N52     1.398   .     D
C51    C56     1.398   .     S
N52    C53     1.393   .     S
C53    C54     1.407   .     S
C53    H228    1.140   .     S
C53    H66     1.287   .     S
C54    C55     1.395   .     S
C54    N57     1.430   .     D
C55    C56     1.391   .     D
C56    H229    1.140   .     S
N57    C58     1.292   .     S
C58    C59     1.461   .     D
C58    H230    1.140   .     S
C59    C60     1.393   .     S
C59    C64     1.397   .     S
C60    C61     1.393   .     D
C60    H231    1.140   .     S
C61    C62     1.400   .     S
C61    C131    1.507   1_655 S
C62    C63     1.400   .     S
C62    C65     1.476   .     D
C63    C64     1.392   .     D
C63    C197    1.507   .     S
C64    H232    1.140   .     S
C65    C201    1.406   .     S
C65    C133    1.406   1_655 S
H68    C89     1.140   .     S
C69    C70     1.398   .     S
C70    H233    1.140   .     S
C72    C73     1.393   .     S
C72    H234    1.140   .     S
C73    C74     1.397   .     D
C73    H235    1.140   .     S
C74    C75     1.393   .     S
C75    C76     1.393   .     D
C75    H236    1.140   .     S
C76    H237    1.140   .     S
C77    N78     1.292   .     D
C77    H238    1.140   .     S
N78    C79     1.431   .     S
C79    C80     1.395   .     D
C79    C84     1.407   .     S
C80    N81     1.392   .     S
C80    H239    1.140   .     S
N81    C82     1.398   .     S
C82    C83     1.398   .     D
C82    C85     1.477   .     S
C83    C84     1.392   .     S
C83    H240    1.140   .     S
C84    H241    1.140   .     S
C84    H101    1.287   .     S
C85    N86     1.398   .     D
C85    C90     1.398   .     S
N86    C87     1.393   .     S
C87    C88     1.407   .     S
C87    H242    1.140   .     S
C87    H100    1.287   .     S
C88    C89     1.395   .     S
C88    N91     1.430   .     D
C89    C90     1.391   .     D
C90    H243    1.140   .     S
N91    C92     1.292   .     S
C92    C93     1.461   .     D
C92    H244    1.140   .     S
C93    C94     1.393   .     S
C93    C98     1.397   .     S
C94    C95     1.393   .     D
C94    H245    1.140   .     S
C95    C96     1.400   .     S
C95    C165    1.507   .     S
C96    C97     1.400   .     S
C96    C99     1.476   .     D
C97    C98     1.392   .     D
C97    C129    1.507   1_545 S
C98    H246    1.140   .     S
C99    C167    1.406   .     S
C99    C133    1.406   1_545 S
C103   C104    1.398   .     S
C103   C172    1.398   .     D
C103   C173    1.476   .     S
C104   C137    1.398   .     D
C104   H247    1.140   .     S
C105   C137    1.476   .     S
C105   C144    1.400   .     S
C105   C140    1.400   .     D
C106   C107    1.393   .     D
C106   C173    1.400   .     S
C106   H248    1.140   .     S
C107   C108    1.397   .     S
C107   H249    1.140   .     S
C108   C109    1.393   .     D
C108   C145    1.461   .     S
C109   C110    1.393   .     S
C109   H250    1.140   .     S
C110   C173    1.400   .     D
C110   H251    1.140   .     S
C111   N112    1.292   .     D
C111   C176    1.461   .     S
C111   H252    1.140   .     S
N112   C113    1.431   .     S
C113   C114    1.395   .     D
C113   C118    1.407   .     S
C114   N115    1.392   .     S
C114   H253    1.140   .     S
N115   C116    1.398   .     S
C116   C117    1.398   .     D
C116   C119    1.477   .     S
C117   C118    1.392   .     S
C117   H254    1.140   .     S
C118   H255    1.140   .     S
C118   H135    1.287   .     S
C119   N120    1.398   .     D
C119   C124    1.398   .     S
N120   C121    1.393   .     S
C121   C122    1.407   .     S
C121   H256    1.140   .     S
C121   H134    1.287   .     S
C122   C123    1.395   .     S
C122   N125    1.430   .     D
C123   C124    1.391   .     D
C123   H204    1.140   .     S
C124   H257    1.140   .     S
N125   C126    1.292   .     S
C126   C127    1.461   .     D
C126   H258    1.140   .     S
C127   C128    1.393   .     S
C127   C132    1.397   .     S
C128   C129    1.393   .     D
C128   H259    1.140   .     S
C129   C130    1.400   .     S
C129   C97     1.507   1_565 S
C130   C131    1.400   .     S
C130   C133    1.476   .     D
C131   C132    1.392   .     D
C131   C61     1.507   1_455 S
C132   H260    1.140   .     S
C133   C65     1.406   1_455 S
C133   C99     1.406   1_565 S
H136   C157    1.140   .     S
C137   C138    1.398   .     S
C138   C171    1.398   .     D
C138   H261    1.140   .     S
C139   C171    1.476   .     S
C139   C178    1.400   .     S
C139   C174    1.400   .     D
C140   C141    1.393   .     S
C140   H262    1.140   .     S
C141   C142    1.397   .     D
C141   H263    1.140   .     S
C142   C143    1.393   .     S
C142   C179    1.461   .     S
C143   C144    1.393   .     D
C143   H264    1.140   .     S
C144   H265    1.140   .     S
C145   N146    1.292   .     D
C145   H266    1.140   .     S
N146   C147    1.431   .     S
C147   C148    1.395   .     D
C147   C152    1.407   .     S
C148   N149    1.392   .     S
C148   H267    1.140   .     S
N149   C150    1.398   .     S
C150   C151    1.398   .     D
C150   C153    1.477   .     S
C151   C152    1.392   .     S
C151   H268    1.140   .     S
C152   H269    1.140   .     S
C152   H169    1.287   .     S
C153   N154    1.398   .     D
C153   C158    1.398   .     S
N154   C155    1.393   .     S
C155   C156    1.407   .     S
C155   H270    1.140   .     S
C155   H168    1.287   .     S
C156   C157    1.395   .     S
C156   N159    1.430   .     D
C157   C158    1.391   .     D
C158   H271    1.140   .     S
N159   C160    1.292   .     S
C160   C161    1.461   .     D
C160   H272    1.140   .     S
C161   C162    1.393   .     S
C161   C166    1.397   .     S
C162   C163    1.393   .     D
C162   H273    1.140   .     S
C163   C164    1.400   .     S
C163   C29     1.507   1_455 S
C164   C165    1.400   .     S
C164   C167    1.476   .     D
C165   C166    1.392   .     D
C166   H274    1.140   .     S
C167   C31     1.406   1_455 S
H170   C191    1.140   .     S
C171   C172    1.398   .     S
C172   H275    1.140   .     S
C174   C175    1.393   .     S
C174   H276    1.140   .     S
C175   C176    1.397   .     D
C175   H277    1.140   .     S
C176   C177    1.393   .     S
C177   C178    1.393   .     D
C177   H278    1.140   .     S
C178   H279    1.140   .     S
C179   N180    1.292   .     D
C179   H280    1.140   .     S
N180   C181    1.431   .     S
C181   C182    1.395   .     D
C181   C186    1.407   .     S
C182   N183    1.392   .     S
C182   H281    1.140   .     S
N183   C184    1.398   .     S
C184   C185    1.398   .     D
C184   C187    1.477   .     S
C185   C186    1.392   .     S
C185   H282    1.140   .     S
C186   H283    1.140   .     S
C186   H203    1.287   .     S
C187   N188    1.398   .     D
C187   C192    1.398   .     S
N188   C189    1.393   .     S
C189   C190    1.407   .     S
C189   H284    1.140   .     S
C189   H202    1.287   .     S
C190   C191    1.395   .     S
C190   N193    1.430   .     D
C191   C192    1.391   .     D
C192   H285    1.140   .     S
N193   C194    1.292   .     S
C194   C195    1.461   .     D
C194   H286    1.140   .     S
C195   C196    1.393   .     S
C195   C200    1.397   .     S
C196   C197    1.393   .     D
C196   H287    1.140   .     S
C197   C198    1.400   .     S
C198   C199    1.400   .     S
C198   C201    1.476   .     D
C199   C200    1.392   .     D
C199   C27     1.507   1_565 S
C200   H288    1.140   .     S
C201   C31     1.406   1_565 S
