data_1117
_audit_creation_date              2023-09-08
_audit_creation_method            'Materials Studio'
_symmetry_space_group_name_H-M    'P1'
_symmetry_Int_Tables_number       1
_symmetry_cell_setting            triclinic
loop_
_symmetry_equiv_pos_as_xyz
  x,y,z
_cell_length_a                    37.9700
_cell_length_b                    37.9700
_cell_length_c                    3.4400
_cell_angle_alpha                 90.0000
_cell_angle_beta                  90.0000
_cell_angle_gamma                 120.0000
loop_
_atom_site_label
_atom_site_type_symbol
_atom_site_fract_x
_atom_site_fract_y
_atom_site_fract_z
_atom_site_U_iso_or_equiv
_atom_site_adp_type
_atom_site_occupancy
C1     C     0.40811   0.55392   0.50000   0.00000  Uiso   1.00
N2     N     0.38438   0.60081   0.50000   0.00000  Uiso   1.00
C3     C     0.32028   0.62515   0.50000   0.00000  Uiso   1.00
C4     C     0.36227   0.65340   0.50000   0.00000  Uiso   1.00
C5     C     0.39392   0.64075   0.50000   0.00000  Uiso   1.00
C6     C     0.44146   0.54461   0.50000   0.00000  Uiso   1.00
C7     C     0.43248   0.50411   0.50000   0.00000  Uiso   1.00
C8     C     0.48240   0.57543   0.50000   0.00000  Uiso   1.00
O9     O     0.42975   0.66710   0.50000   0.00000  Uiso   1.00
C10    C     0.51322   0.56556   0.50000   0.00000  Uiso   1.00
N11    N     0.41564   0.59121   0.50000   0.00000  Uiso   1.00
H12    H     0.37691   0.52908   0.50000   0.00000  Uiso   1.00
H13    H     0.35439   0.57705   0.50000   0.00000  Uiso   1.00
H14    H     0.30950   0.59302   0.50000   0.00000  Uiso   1.00
N15    N     0.46296   0.49520   0.50000   0.00000  Uiso   1.00
C16    C     0.50302   0.52444   0.50000   0.00000  Uiso   1.00
C17    C     0.61701   0.46626   0.50000   0.00000  Uiso   1.00
N18    N     0.63096   0.41217   0.50000   0.00000  Uiso   1.00
C19    C     0.68527   0.37569   0.50000   0.00000  Uiso   1.00
C20    C     0.64252   0.35224   0.50000   0.00000  Uiso   1.00
C21    C     0.61581   0.37094   0.50000   0.00000  Uiso   1.00
C22    C     0.58821   0.48164   0.50000   0.00000  Uiso   1.00
C23    C     0.60295   0.52357   0.50000   0.00000  Uiso   1.00
C24    C     0.54600   0.45528   0.50000   0.00000  Uiso   1.00
O25    O     0.57896   0.34852   0.50000   0.00000  Uiso   1.00
N26    N     0.52037   0.47052   0.50000   0.00000  Uiso   1.00
N27    N     0.60411   0.42753   0.50000   0.00000  Uiso   1.00
H28    H     0.64940   0.48780   0.50000   0.00000  Uiso   1.00
H29    H     0.66208   0.43276   0.50000   0.00000  Uiso   1.00
H30    H     0.70028   0.40836   0.50000   0.00000  Uiso   1.00
C31    C     0.57604   0.53854   0.50000   0.00000  Uiso   1.00
C32    C     0.53383   0.51119   0.50000   0.00000  Uiso   1.00
H33    H     0.40124   0.47950   0.50000   0.00000  Uiso   1.00
H34    H     0.49065   0.60716   0.50000   0.00000  Uiso   1.00
H35    H     0.54428   0.59018   0.50000   0.00000  Uiso   1.00
H36    H     0.63538   0.54481   0.50000   0.00000  Uiso   1.00
H37    H     0.53330   0.42264   0.50000   0.00000  Uiso   1.00
H38    H     0.58873   0.57107   0.50000   0.00000  Uiso   1.00
C39    C     0.44608   0.85419   0.50000   0.00000  Uiso   1.00
N40    N     0.39919   0.78357   0.50000   0.00000  Uiso   1.00
C41    C     0.37485   0.69513   0.50000   0.00000  Uiso   1.00
C42    C     0.34660   0.70887   0.50000   0.00000  Uiso   1.00
C43    C     0.35925   0.75317   0.50000   0.00000  Uiso   1.00
C44    C     0.45539   0.89685   0.50000   0.00000  Uiso   1.00
C45    C     0.49589   0.92837   0.50000   0.00000  Uiso   1.00
C46    C     0.42457   0.90697   0.50000   0.00000  Uiso   1.00
O47    O     0.33290   0.76265   0.50000   0.00000  Uiso   1.00
C48    C     0.43444   0.94766   0.50000   0.00000  Uiso   1.00
N49    N     0.40879   0.82443   0.50000   0.00000  Uiso   1.00
H50    H     0.47092   0.84783   0.50000   0.00000  Uiso   1.00
H51    H     0.42295   0.77734   0.50000   0.00000  Uiso   1.00
H52    H     0.40698   0.71648   0.50000   0.00000  Uiso   1.00
N53    N     0.50480   0.96776   0.50000   0.00000  Uiso   1.00
C54    C     0.47556   0.97858   0.50000   0.00000  Uiso   1.00
C55    C     0.53374   0.15075   0.50000   0.00000  Uiso   1.00
N56    N     0.58783   0.21879   0.50000   0.00000  Uiso   1.00
C57    C     0.62431   0.30958   0.50000   0.00000  Uiso   1.00
C58    C     0.64776   0.29028   0.50000   0.00000  Uiso   1.00
C59    C     0.62906   0.24487   0.50000   0.00000  Uiso   1.00
C60    C     0.51836   0.10657   0.50000   0.00000  Uiso   1.00
C61    C     0.47643   0.07938   0.50000   0.00000  Uiso   1.00
C62    C     0.54472   0.09072   0.50000   0.00000  Uiso   1.00
O63    O     0.65148   0.23044   0.50000   0.00000  Uiso   1.00
N64    N     0.52948   0.04985   0.50000   0.00000  Uiso   1.00
N65    N     0.57247   0.17658   0.50000   0.00000  Uiso   1.00
H66    H     0.51220   0.16160   0.50000   0.00000  Uiso   1.00
H67    H     0.56724   0.22932   0.50000   0.00000  Uiso   1.00
H68    H     0.59164   0.29192   0.50000   0.00000  Uiso   1.00
C69    C     0.46146   0.03750   0.50000   0.00000  Uiso   1.00
C70    C     0.48881   0.02264   0.50000   0.00000  Uiso   1.00
H71    H     0.52050   0.92174   0.50000   0.00000  Uiso   1.00
H72    H     0.39284   0.88349   0.50000   0.00000  Uiso   1.00
H73    H     0.40982   0.95410   0.50000   0.00000  Uiso   1.00
H74    H     0.45519   0.09057   0.50000   0.00000  Uiso   1.00
H75    H     0.57736   0.11066   0.50000   0.00000  Uiso   1.00
H76    H     0.42893   0.01766   0.50000   0.00000  Uiso   1.00
C77    C     0.14581   0.59189   0.50000   0.00000  Uiso   1.00
N78    N     0.21643   0.61562   0.50000   0.00000  Uiso   1.00
C79    C     0.30487   0.67972   0.50000   0.00000  Uiso   1.00
C80    C     0.29113   0.63773   0.50000   0.00000  Uiso   1.00
C81    C     0.24683   0.60608   0.50000   0.00000  Uiso   1.00
C82    C     0.10315   0.55854   0.50000   0.00000  Uiso   1.00
C83    C     0.07163   0.56752   0.50000   0.00000  Uiso   1.00
C84    C     0.09303   0.51760   0.50000   0.00000  Uiso   1.00
O85    O     0.23735   0.57025   0.50000   0.00000  Uiso   1.00
C86    C     0.05234   0.48678   0.50000   0.00000  Uiso   1.00
N87    N     0.17557   0.58436   0.50000   0.00000  Uiso   1.00
H88    H     0.15217   0.62309   0.50000   0.00000  Uiso   1.00
H89    H     0.22266   0.64561   0.50000   0.00000  Uiso   1.00
H90    H     0.28352   0.69050   0.50000   0.00000  Uiso   1.00
N91    N     0.03224   0.53704   0.50000   0.00000  Uiso   1.00
C92    C     0.02142   0.49698   0.50000   0.00000  Uiso   1.00
C93    C     0.84925   0.38299   0.50000   0.00000  Uiso   1.00
N94    N     0.78121   0.36904   0.50000   0.00000  Uiso   1.00
C95    C     0.69042   0.31473   0.50000   0.00000  Uiso   1.00
C96    C     0.70972   0.35748   0.50000   0.00000  Uiso   1.00
C97    C     0.75513   0.38419   0.50000   0.00000  Uiso   1.00
C98    C     0.89343   0.41179   0.50000   0.00000  Uiso   1.00
C99    C     0.92062   0.39705   0.50000   0.00000  Uiso   1.00
C100   C     0.90928   0.45400   0.50000   0.00000  Uiso   1.00
O101   O     0.76956   0.42104   0.50000   0.00000  Uiso   1.00
N102   N     0.95015   0.47963   0.50000   0.00000  Uiso   1.00
N103   N     0.82342   0.39589   0.50000   0.00000  Uiso   1.00
H104   H     0.83840   0.35060   0.50000   0.00000  Uiso   1.00
H105   H     0.77068   0.33792   0.50000   0.00000  Uiso   1.00
H106   H     0.70808   0.29972   0.50000   0.00000  Uiso   1.00
C107   C     0.96250   0.42396   0.50000   0.00000  Uiso   1.00
C108   C     0.97736   0.46617   0.50000   0.00000  Uiso   1.00
H109   H     0.07826   0.59876   0.50000   0.00000  Uiso   1.00
H110   H     0.11651   0.50935   0.50000   0.00000  Uiso   1.00
H111   H     0.04590   0.45572   0.50000   0.00000  Uiso   1.00
H112   H     0.90943   0.36462   0.50000   0.00000  Uiso   1.00
H113   H     0.88934   0.46670   0.50000   0.00000  Uiso   1.00
H114   H     0.98234   0.41127   0.50000   0.00000  Uiso   1.00
loop_
_geom_bond_atom_site_label_1
_geom_bond_atom_site_label_2
_geom_bond_distance
_geom_bond_site_symmetry_2
_ccdc_geom_bond_type
C1     C6      1.475   .     S
C1     N11     1.297   .     D
C1     H12     1.084   .     S
N2     C5      1.372   .     S
N2     N11     1.405   .     S
N2     H13     1.041   .     S
C3     C4      1.408   .     D
C3     H14     1.075   .     S
C3     C80     1.408   .     S
C4     C5      1.501   .     S
C4     C41     1.408   .     S
C5     O9      1.221   .     D
C6     C7      1.399   .     D
C6     C8      1.402   .     S
C7     N15     1.358   .     S
C7     H33     1.082   .     S
C8     C10     1.396   .     D
C8     H34     1.083   .     S
C10    C16     1.408   .     S
C10    H35     1.078   .     S
N15    C16     1.363   .     D
C16    C32     1.487   .     S
C17    C22     1.475   .     S
C17    N27     1.297   .     D
C17    H28     1.084   .     S
N18    C21     1.372   .     S
N18    N27     1.405   .     S
N18    H29     1.041   .     S
C19    C20     1.408   .     D
C19    H30     1.075   .     S
C19    C96     1.408   .     S
C20    C21     1.501   .     S
C20    C57     1.408   .     S
C21    O25     1.221   .     D
C22    C23     1.399   .     D
C22    C24     1.402   .     S
C23    C31     1.396   .     S
C23    H36     1.083   .     S
C24    N26     1.358   .     D
C24    H37     1.082   .     S
N26    C32     1.363   .     S
C31    C32     1.408   .     D
C31    H38     1.078   .     S
C39    C44     1.475   .     S
C39    N49     1.297   .     D
C39    H50     1.084   .     S
N40    C43     1.372   .     S
N40    N49     1.405   .     S
N40    H51     1.041   .     S
C41    C42     1.408   .     D
C41    H52     1.075   .     S
C42    C43     1.501   .     S
C42    C79     1.408   .     S
C43    O47     1.221   .     D
C44    C45     1.399   .     D
C44    C46     1.402   .     S
C45    N53     1.358   .     S
C45    H71     1.082   .     S
C46    C48     1.396   .     D
C46    H72     1.083   .     S
C48    C54     1.408   .     S
C48    H73     1.078   .     S
N53    C54     1.363   .     D
C54    C70     1.487   1_565 S
C55    C60     1.475   .     S
C55    N65     1.297   .     D
C55    H66     1.084   .     S
N56    C59     1.372   .     S
N56    N65     1.405   .     S
N56    H67     1.041   .     S
C57    C58     1.408   .     D
C57    H68     1.075   .     S
C58    C59     1.501   .     S
C58    C95     1.408   .     S
C59    O63     1.221   .     D
C60    C61     1.399   .     D
C60    C62     1.402   .     S
C61    C69     1.396   .     S
C61    H74     1.083   .     S
C62    N64     1.358   .     D
C62    H75     1.082   .     S
N64    C70     1.363   .     S
C69    C70     1.408   .     D
C69    H76     1.078   .     S
C70    C54     1.487   1_545 S
C77    C82     1.475   .     S
C77    N87     1.297   .     D
C77    H88     1.084   .     S
N78    C81     1.372   .     S
N78    N87     1.405   .     S
N78    H89     1.041   .     S
C79    C80     1.408   .     D
C79    H90     1.075   .     S
C80    C81     1.501   .     S
C81    O85     1.221   .     D
C82    C83     1.399   .     S
C82    C84     1.402   .     D
C83    N91     1.358   .     D
C83    H109    1.082   .     S
C84    C86     1.396   .     S
C84    H110    1.083   .     S
C86    C92     1.408   .     D
C86    H111    1.078   .     S
N91    C92     1.363   .     S
C92    C108    1.487   1_455 S
C93    C98     1.475   .     S
C93    N103    1.297   .     D
C93    H104    1.084   .     S
N94    C97     1.372   .     S
N94    N103    1.405   .     S
N94    H105    1.041   .     S
C95    C96     1.408   .     D
C95    H106    1.075   .     S
C96    C97     1.501   .     S
C97    O101    1.221   .     D
C98    C99     1.399   .     S
C98    C100    1.402   .     D
C99    C107    1.396   .     D
C99    H112    1.083   .     S
C100   N102    1.358   .     S
C100   H113    1.082   .     S
N102   C108    1.363   .     D
C107   C108    1.408   .     S
C107   H114    1.078   .     S
C108   C92     1.487   1_655 S
