data_1118
_audit_creation_date              2023-09-08
_audit_creation_method            'Materials Studio'
_symmetry_space_group_name_H-M    'P1'
_symmetry_Int_Tables_number       1
_symmetry_cell_setting            triclinic
loop_
_symmetry_equiv_pos_as_xyz
  x,y,z
_cell_length_a                    37.9400
_cell_length_b                    37.9400
_cell_length_c                    6.4100
_cell_angle_alpha                 90.0000
_cell_angle_beta                  90.0000
_cell_angle_gamma                 120.0000
loop_
_atom_site_label
_atom_site_type_symbol
_atom_site_fract_x
_atom_site_fract_y
_atom_site_fract_z
_atom_site_U_iso_or_equiv
_atom_site_adp_type
_atom_site_occupancy
C1     C     0.07786   0.88980   0.50000   0.00000  Uiso   1.00
N2     N     0.05314   0.93592   0.50000   0.00000  Uiso   1.00
C3     C     0.98770   0.95862   0.50000   0.00000  Uiso   1.00
C4     C     0.02959   0.98750   0.50000   0.00000  Uiso   1.00
C5     C     0.06191   0.97566   0.50000   0.00000  Uiso   1.00
C6     C     0.11151   0.88086   0.50000   0.00000  Uiso   1.00
C7     C     0.10275   0.84039   0.50000   0.00000  Uiso   1.00
C8     C     0.15244   0.91186   0.50000   0.00000  Uiso   1.00
O9     O     0.09758   0.00252   0.50000   0.00000  Uiso   1.00
C10    C     0.18346   0.90217   0.50000   0.00000  Uiso   1.00
N11    N     0.08489   0.92696   0.50000   0.00000  Uiso   1.00
H12    H     0.04675   0.86470   0.50000   0.00000  Uiso   1.00
H13    H     0.02329   0.91179   0.50000   0.00000  Uiso   1.00
H14    H     0.97750   0.92657   0.50000   0.00000  Uiso   1.00
N15    N     0.13339   0.83169   0.50000   0.00000  Uiso   1.00
C16    C     0.17344   0.86107   0.50000   0.00000  Uiso   1.00
C17    C     0.28730   0.80245   0.50000   0.00000  Uiso   1.00
N18    N     0.30016   0.74750   0.50000   0.00000  Uiso   1.00
C19    C     0.35282   0.70911   0.50000   0.00000  Uiso   1.00
C20    C     0.31000   0.68647   0.50000   0.00000  Uiso   1.00
C21    C     0.28414   0.70610   0.50000   0.00000  Uiso   1.00
C22    C     0.25869   0.81815   0.50000   0.00000  Uiso   1.00
C23    C     0.27354   0.86015   0.50000   0.00000  Uiso   1.00
C24    C     0.21642   0.79185   0.50000   0.00000  Uiso   1.00
O25    O     0.24717   0.68432   0.50000   0.00000  Uiso   1.00
N26    N     0.19084   0.80717   0.50000   0.00000  Uiso   1.00
N27    N     0.27392   0.76360   0.50000   0.00000  Uiso   1.00
H28    H     0.31978   0.82373   0.50000   0.00000  Uiso   1.00
H29    H     0.33142   0.76762   0.50000   0.00000  Uiso   1.00
H30    H     0.36849   0.74184   0.50000   0.00000  Uiso   1.00
C31    C     0.24662   0.87521   0.50000   0.00000  Uiso   1.00
C32    C     0.20435   0.84788   0.50000   0.00000  Uiso   1.00
H33    H     0.07154   0.81564   0.50000   0.00000  Uiso   1.00
H34    H     0.16053   0.94357   0.50000   0.00000  Uiso   1.00
H35    H     0.21453   0.92688   0.50000   0.00000  Uiso   1.00
H36    H     0.30601   0.88135   0.50000   0.00000  Uiso   1.00
H37    H     0.20360   0.75916   0.50000   0.00000  Uiso   1.00
H38    H     0.25932   0.90778   0.50000   0.00000  Uiso   1.00
C39    C     0.11020   0.18806   0.50000   0.00000  Uiso   1.00
N40    N     0.06408   0.11722   0.50000   0.00000  Uiso   1.00
C41    C     0.04138   0.02908   0.50000   0.00000  Uiso   1.00
C42    C     0.01250   0.04209   0.50000   0.00000  Uiso   1.00
C43    C     0.02434   0.08625   0.50000   0.00000  Uiso   1.00
C44    C     0.11914   0.23065   0.50000   0.00000  Uiso   1.00
C45    C     0.15961   0.26236   0.50000   0.00000  Uiso   1.00
C46    C     0.08814   0.24058   0.50000   0.00000  Uiso   1.00
O47    O     0.99748   0.09506   0.50000   0.00000  Uiso   1.00
C48    C     0.09783   0.28129   0.50000   0.00000  Uiso   1.00
N49    N     0.07304   0.15793   0.50000   0.00000  Uiso   1.00
H50    H     0.13530   0.18205   0.50000   0.00000  Uiso   1.00
H51    H     0.08821   0.11150   0.50000   0.00000  Uiso   1.00
H52    H     0.07343   0.05093   0.50000   0.00000  Uiso   1.00
N53    N     0.16831   0.30170   0.50000   0.00000  Uiso   1.00
C54    C     0.13893   0.31237   0.50000   0.00000  Uiso   1.00
C55    C     0.19755   0.48485   0.50000   0.00000  Uiso   1.00
N56    N     0.25250   0.55266   0.50000   0.00000  Uiso   1.00
C57    C     0.29089   0.64371   0.50000   0.00000  Uiso   1.00
C58    C     0.31353   0.62353   0.50000   0.00000  Uiso   1.00
C59    C     0.29390   0.57804   0.50000   0.00000  Uiso   1.00
C60    C     0.18185   0.44054   0.50000   0.00000  Uiso   1.00
C61    C     0.13985   0.41339   0.50000   0.00000  Uiso   1.00
C62    C     0.20815   0.42457   0.50000   0.00000  Uiso   1.00
O63    O     0.31568   0.56285   0.50000   0.00000  Uiso   1.00
N64    N     0.19283   0.38367   0.50000   0.00000  Uiso   1.00
N65    N     0.23640   0.51032   0.50000   0.00000  Uiso   1.00
H66    H     0.17627   0.49605   0.50000   0.00000  Uiso   1.00
H67    H     0.23238   0.56380   0.50000   0.00000  Uiso   1.00
H68    H     0.25816   0.62665   0.50000   0.00000  Uiso   1.00
C69    C     0.12479   0.37141   0.50000   0.00000  Uiso   1.00
C70    C     0.15212   0.35647   0.50000   0.00000  Uiso   1.00
H71    H     0.18436   0.25590   0.50000   0.00000  Uiso   1.00
H72    H     0.05643   0.21696   0.50000   0.00000  Uiso   1.00
H73    H     0.07312   0.28765   0.50000   0.00000  Uiso   1.00
H74    H     0.11865   0.42466   0.50000   0.00000  Uiso   1.00
H75    H     0.24084   0.44444   0.50000   0.00000  Uiso   1.00
H76    H     0.09222   0.35154   0.50000   0.00000  Uiso   1.00
C77    C     0.81194   0.92214   0.50000   0.00000  Uiso   1.00
N78    N     0.88278   0.94686   0.50000   0.00000  Uiso   1.00
C79    C     0.97092   0.01230   0.50000   0.00000  Uiso   1.00
C80    C     0.95791   0.97041   0.50000   0.00000  Uiso   1.00
C81    C     0.91375   0.93809   0.50000   0.00000  Uiso   1.00
C82    C     0.76935   0.88849   0.50000   0.00000  Uiso   1.00
C83    C     0.73764   0.89725   0.50000   0.00000  Uiso   1.00
C84    C     0.75942   0.84756   0.50000   0.00000  Uiso   1.00
O85    O     0.90494   0.90242   0.50000   0.00000  Uiso   1.00
C86    C     0.71871   0.81654   0.50000   0.00000  Uiso   1.00
N87    N     0.84207   0.91511   0.50000   0.00000  Uiso   1.00
H88    H     0.81795   0.95325   0.50000   0.00000  Uiso   1.00
H89    H     0.88850   0.97671   0.50000   0.00000  Uiso   1.00
H90    H     0.94907   0.02250   0.50000   0.00000  Uiso   1.00
N91    N     0.69830   0.86661   0.50000   0.00000  Uiso   1.00
C92    C     0.68763   0.82656   0.50000   0.00000  Uiso   1.00
C93    C     0.51515   0.71270   0.50000   0.00000  Uiso   1.00
N94    N     0.44734   0.69984   0.50000   0.00000  Uiso   1.00
C95    C     0.35629   0.64718   0.50000   0.00000  Uiso   1.00
C96    C     0.37647   0.69000   0.50000   0.00000  Uiso   1.00
C97    C     0.42196   0.71586   0.50000   0.00000  Uiso   1.00
C98    C     0.55946   0.74131   0.50000   0.00000  Uiso   1.00
C99    C     0.58661   0.72646   0.50000   0.00000  Uiso   1.00
C100   C     0.57543   0.78358   0.50000   0.00000  Uiso   1.00
O101   O     0.43715   0.75283   0.50000   0.00000  Uiso   1.00
N102   N     0.61633   0.80916   0.50000   0.00000  Uiso   1.00
N103   N     0.48968   0.72608   0.50000   0.00000  Uiso   1.00
H104   H     0.50395   0.68022   0.50000   0.00000  Uiso   1.00
H105   H     0.43620   0.66858   0.50000   0.00000  Uiso   1.00
H106   H     0.37335   0.63151   0.50000   0.00000  Uiso   1.00
C107   C     0.62859   0.75338   0.50000   0.00000  Uiso   1.00
C108   C     0.64353   0.79565   0.50000   0.00000  Uiso   1.00
H109   H     0.74410   0.92846   0.50000   0.00000  Uiso   1.00
H110   H     0.78304   0.83947   0.50000   0.00000  Uiso   1.00
H111   H     0.71235   0.78547   0.50000   0.00000  Uiso   1.00
H112   H     0.57534   0.69399   0.50000   0.00000  Uiso   1.00
H113   H     0.55556   0.79640   0.50000   0.00000  Uiso   1.00
H114   H     0.64846   0.74068   0.50000   0.00000  Uiso   1.00
C115   C     0.41155   0.55712   0.00000   0.00000  Uiso   1.00
N116   N     0.38687   0.60316   0.00000   0.00000  Uiso   1.00
C117   C     0.32127   0.62536   0.00000   0.00000  Uiso   1.00
C118   C     0.36308   0.65441   0.00000   0.00000  Uiso   1.00
C119   C     0.39553   0.64283   0.00000   0.00000  Uiso   1.00
C120   C     0.44513   0.54811   0.00000   0.00000  Uiso   1.00
C121   C     0.43623   0.50760   0.00000   0.00000  Uiso   1.00
C122   C     0.48608   0.57904   0.00000   0.00000  Uiso   1.00
O123   O     0.43117   0.66979   0.00000   0.00000  Uiso   1.00
C124   C     0.51701   0.56923   0.00000   0.00000  Uiso   1.00
N125   N     0.41865   0.59428   0.00000   0.00000  Uiso   1.00
H126   H     0.38043   0.53204   0.00000   0.00000  Uiso   1.00
H127   H     0.35706   0.57897   0.00000   0.00000  Uiso   1.00
H128   H     0.31117   0.59335   0.00000   0.00000  Uiso   1.00
N129   N     0.46678   0.49878   0.00000   0.00000  Uiso   1.00
C130   C     0.50684   0.52808   0.00000   0.00000  Uiso   1.00
C131   C     0.62021   0.46889   0.00000   0.00000  Uiso   1.00
N132   N     0.63313   0.41398   0.00000   0.00000  Uiso   1.00
C133   C     0.68605   0.37578   0.00000   0.00000  Uiso   1.00
C134   C     0.64322   0.35304   0.00000   0.00000  Uiso   1.00
C135   C     0.61723   0.37259   0.00000   0.00000  Uiso   1.00
C136   C     0.59169   0.48469   0.00000   0.00000  Uiso   1.00
C137   C     0.60668   0.52672   0.00000   0.00000  Uiso   1.00
C138   C     0.54941   0.45851   0.00000   0.00000  Uiso   1.00
O139   O     0.58027   0.35073   0.00000   0.00000  Uiso   1.00
N140   N     0.52396   0.47399   0.00000   0.00000  Uiso   1.00
N141   N     0.60682   0.43004   0.00000   0.00000  Uiso   1.00
H142   H     0.65269   0.49016   0.00000   0.00000  Uiso   1.00
H143   H     0.66437   0.43416   0.00000   0.00000  Uiso   1.00
H144   H     0.70164   0.40851   0.00000   0.00000  Uiso   1.00
C145   C     0.57990   0.54194   0.00000   0.00000  Uiso   1.00
C146   C     0.53762   0.51473   0.00000   0.00000  Uiso   1.00
H147   H     0.40499   0.48291   0.00000   0.00000  Uiso   1.00
H148   H     0.49425   0.61078   0.00000   0.00000  Uiso   1.00
H149   H     0.54811   0.59388   0.00000   0.00000  Uiso   1.00
H150   H     0.63917   0.54783   0.00000   0.00000  Uiso   1.00
H151   H     0.53648   0.42582   0.00000   0.00000  Uiso   1.00
H152   H     0.59271   0.57452   0.00000   0.00000  Uiso   1.00
C153   C     0.44288   0.85443   0.00000   0.00000  Uiso   1.00
N154   N     0.39684   0.78371   0.00000   0.00000  Uiso   1.00
C155   C     0.37464   0.69591   0.00000   0.00000  Uiso   1.00
C156   C     0.34559   0.70867   0.00000   0.00000  Uiso   1.00
C157   C     0.35717   0.75270   0.00000   0.00000  Uiso   1.00
C158   C     0.45189   0.89702   0.00000   0.00000  Uiso   1.00
C159   C     0.49240   0.92863   0.00000   0.00000  Uiso   1.00
C160   C     0.42096   0.90704   0.00000   0.00000  Uiso   1.00
O161   O     0.33021   0.76138   0.00000   0.00000  Uiso   1.00
C162   C     0.43077   0.94778   0.00000   0.00000  Uiso   1.00
N163   N     0.40572   0.82437   0.00000   0.00000  Uiso   1.00
H164   H     0.46796   0.84839   0.00000   0.00000  Uiso   1.00
H165   H     0.42103   0.77809   0.00000   0.00000  Uiso   1.00
H166   H     0.40665   0.71782   0.00000   0.00000  Uiso   1.00
N167   N     0.50122   0.96800   0.00000   0.00000  Uiso   1.00
C168   C     0.47192   0.97876   0.00000   0.00000  Uiso   1.00
C169   C     0.53111   0.15132   0.00000   0.00000  Uiso   1.00
N170   N     0.58602   0.21915   0.00000   0.00000  Uiso   1.00
C171   C     0.62422   0.31027   0.00000   0.00000  Uiso   1.00
C172   C     0.64696   0.29018   0.00000   0.00000  Uiso   1.00
C173   C     0.62741   0.24464   0.00000   0.00000  Uiso   1.00
C174   C     0.51531   0.10700   0.00000   0.00000  Uiso   1.00
C175   C     0.47328   0.07996   0.00000   0.00000  Uiso   1.00
C176   C     0.54149   0.09090   0.00000   0.00000  Uiso   1.00
O177   O     0.64927   0.22954   0.00000   0.00000  Uiso   1.00
N178   N     0.52601   0.04997   0.00000   0.00000  Uiso   1.00
N179   N     0.56996   0.17678   0.00000   0.00000  Uiso   1.00
H180   H     0.50984   0.16253   0.00000   0.00000  Uiso   1.00
H181   H     0.56584   0.23021   0.00000   0.00000  Uiso   1.00
H182   H     0.59149   0.29313   0.00000   0.00000  Uiso   1.00
C183   C     0.45806   0.03796   0.00000   0.00000  Uiso   1.00
C184   C     0.48527   0.02289   0.00000   0.00000  Uiso   1.00
H185   H     0.51709   0.92208   0.00000   0.00000  Uiso   1.00
H186   H     0.38922   0.88347   0.00000   0.00000  Uiso   1.00
H187   H     0.40612   0.95423   0.00000   0.00000  Uiso   1.00
H188   H     0.45217   0.09134   0.00000   0.00000  Uiso   1.00
H189   H     0.57418   0.11066   0.00000   0.00000  Uiso   1.00
H190   H     0.42548   0.01819   0.00000   0.00000  Uiso   1.00
C191   C     0.14557   0.58845   0.00000   0.00000  Uiso   1.00
N192   N     0.21629   0.61313   0.00000   0.00000  Uiso   1.00
C193   C     0.30409   0.67873   0.00000   0.00000  Uiso   1.00
C194   C     0.29133   0.63692   0.00000   0.00000  Uiso   1.00
C195   C     0.24730   0.60447   0.00000   0.00000  Uiso   1.00
C196   C     0.10298   0.55487   0.00000   0.00000  Uiso   1.00
C197   C     0.07137   0.56377   0.00000   0.00000  Uiso   1.00
C198   C     0.09296   0.51392   0.00000   0.00000  Uiso   1.00
O199   O     0.23862   0.56883   0.00000   0.00000  Uiso   1.00
C200   C     0.05222   0.48299   0.00000   0.00000  Uiso   1.00
N201   N     0.17563   0.58135   0.00000   0.00000  Uiso   1.00
H202   H     0.15161   0.61957   0.00000   0.00000  Uiso   1.00
H203   H     0.22191   0.64294   0.00000   0.00000  Uiso   1.00
H204   H     0.28218   0.68883   0.00000   0.00000  Uiso   1.00
N205   N     0.03200   0.53322   0.00000   0.00000  Uiso   1.00
C206   C     0.02124   0.49316   0.00000   0.00000  Uiso   1.00
C207   C     0.84868   0.37979   0.00000   0.00000  Uiso   1.00
N208   N     0.78085   0.36687   0.00000   0.00000  Uiso   1.00
C209   C     0.68973   0.31395   0.00000   0.00000  Uiso   1.00
C210   C     0.70982   0.35678   0.00000   0.00000  Uiso   1.00
C211   C     0.75536   0.38277   0.00000   0.00000  Uiso   1.00
C212   C     0.89300   0.40831   0.00000   0.00000  Uiso   1.00
C213   C     0.92004   0.39332   0.00000   0.00000  Uiso   1.00
C214   C     0.90910   0.45059   0.00000   0.00000  Uiso   1.00
O215   O     0.77046   0.41973   0.00000   0.00000  Uiso   1.00
N216   N     0.95003   0.47604   0.00000   0.00000  Uiso   1.00
N217   N     0.82322   0.39318   0.00000   0.00000  Uiso   1.00
H218   H     0.83747   0.34731   0.00000   0.00000  Uiso   1.00
H219   H     0.76979   0.33563   0.00000   0.00000  Uiso   1.00
H220   H     0.70687   0.29836   0.00000   0.00000  Uiso   1.00
C221   C     0.96204   0.42010   0.00000   0.00000  Uiso   1.00
C222   C     0.97711   0.46238   0.00000   0.00000  Uiso   1.00
H223   H     0.07792   0.59501   0.00000   0.00000  Uiso   1.00
H224   H     0.11653   0.50575   0.00000   0.00000  Uiso   1.00
H225   H     0.04577   0.45189   0.00000   0.00000  Uiso   1.00
H226   H     0.90866   0.36083   0.00000   0.00000  Uiso   1.00
H227   H     0.88934   0.46352   0.00000   0.00000  Uiso   1.00
H228   H     0.98181   0.40729   0.00000   0.00000  Uiso   1.00
loop_
_geom_bond_atom_site_label_1
_geom_bond_atom_site_label_2
_geom_bond_distance
_geom_bond_site_symmetry_2
_ccdc_geom_bond_type
C1     C6      1.476   .     S
C1     N11     1.297   .     D
C1     H12     1.084   .     S
N2     C5      1.372   .     S
N2     N11     1.406   .     S
N2     H13     1.041   .     S
C3     H14     1.076   .     S
C3     C80     1.408   .     S
C3     C4      1.409   1_655 D
C4     C5      1.502   .     S
C4     C3      1.409   1_455 D
C4     C41     1.408   1_565 S
C5     O9      1.221   1_565 D
C6     C7      1.399   .     D
C6     C8      1.403   .     S
C7     N15     1.358   .     S
C7     H33     1.083   .     S
C8     C10     1.397   .     D
C8     H34     1.083   .     S
O9     C5      1.221   1_545 D
C10    C16     1.408   .     S
C10    H35     1.079   .     S
N15    C16     1.363   .     D
C16    C32     1.487   .     S
C17    C22     1.476   .     S
C17    N27     1.297   .     D
C17    H28     1.084   .     S
N18    C21     1.372   .     S
N18    N27     1.404   .     S
N18    H29     1.041   .     S
C19    C20     1.408   .     S
C19    H30     1.076   .     S
C19    C96     1.408   .     D
C20    C21     1.499   .     S
C20    C57     1.408   .     D
C21    O25     1.221   .     D
C22    C23     1.400   .     S
C22    C24     1.403   .     D
C23    C31     1.398   .     D
C23    H36     1.083   .     S
C24    N26     1.358   .     S
C24    H37     1.082   .     S
N26    C32     1.363   .     D
C31    C32     1.409   .     S
C31    H38     1.079   .     S
C39    C44     1.476   .     S
C39    N49     1.297   .     D
C39    H50     1.084   .     S
N40    C43     1.372   .     S
N40    N49     1.406   .     S
N40    H51     1.041   .     S
C41    C42     1.409   .     D
C41    H52     1.076   .     S
C41    C4      1.408   1_545 S
C42    C43     1.502   .     S
C42    C79     1.408   1_455 S
C43    O47     1.221   1_455 D
C44    C45     1.399   .     D
C44    C46     1.403   .     S
C45    N53     1.358   .     S
C45    H71     1.083   .     S
C46    C48     1.397   .     D
C46    H72     1.083   .     S
O47    C43     1.221   1_655 D
C48    C54     1.408   .     S
C48    H73     1.079   .     S
N53    C54     1.363   .     D
C54    C70     1.487   .     S
C55    C60     1.476   .     S
C55    N65     1.297   .     D
C55    H66     1.084   .     S
N56    C59     1.372   .     S
N56    N65     1.404   .     S
N56    H67     1.041   .     S
C57    C58     1.408   .     S
C57    H68     1.076   .     S
C58    C59     1.499   .     S
C58    C95     1.408   .     D
C59    O63     1.221   .     D
C60    C61     1.400   .     S
C60    C62     1.403   .     D
C61    C69     1.398   .     D
C61    H74     1.083   .     S
C62    N64     1.358   .     S
C62    H75     1.082   .     S
N64    C70     1.363   .     D
C69    C70     1.409   .     S
C69    H76     1.079   .     S
C77    C82     1.476   .     S
C77    N87     1.297   .     D
C77    H88     1.084   .     S
N78    C81     1.372   .     S
N78    N87     1.406   .     S
N78    H89     1.041   .     S
C79    H90     1.076   .     S
C79    C42     1.408   1_655 S
C79    C80     1.409   1_545 D
C80    C81     1.502   .     S
C80    C79     1.409   1_565 D
C81    O85     1.221   .     D
C82    C83     1.399   .     D
C82    C84     1.403   .     S
C83    N91     1.358   .     S
C83    H109    1.083   .     S
C84    C86     1.397   .     D
C84    H110    1.083   .     S
C86    C92     1.408   .     S
C86    H111    1.079   .     S
N91    C92     1.363   .     D
C92    C108    1.487   .     S
C93    C98     1.476   .     S
C93    N103    1.297   .     D
C93    H104    1.084   .     S
N94    C97     1.372   .     S
N94    N103    1.404   .     S
N94    H105    1.041   .     S
C95    C96     1.408   .     S
C95    H106    1.076   .     S
C96    C97     1.499   .     S
C97    O101    1.221   .     D
C98    C99     1.400   .     S
C98    C100    1.403   .     D
C99    C107    1.398   .     D
C99    H112    1.083   .     S
C100   N102    1.358   .     S
C100   H113    1.082   .     S
N102   C108    1.363   .     D
C107   C108    1.409   .     S
C107   H114    1.079   .     S
C115   C120    1.475   .     S
C115   N125    1.296   .     D
C115   H126    1.084   .     S
N116   C119    1.371   .     S
N116   N125    1.405   .     S
N116   H127    1.041   .     S
C117   C118    1.408   .     D
C117   H128    1.075   .     S
C117   C194    1.407   .     S
C118   C119    1.500   .     S
C118   C155    1.407   .     S
C119   O123    1.221   .     D
C120   C121    1.399   .     D
C120   C122    1.403   .     S
C121   N129    1.358   .     S
C121   H147    1.083   .     S
C122   C124    1.397   .     D
C122   H148    1.083   .     S
C124   C130    1.409   .     S
C124   H149    1.079   .     S
N129   C130    1.362   .     D
C130   C146    1.487   .     S
C131   C136    1.476   .     S
C131   N141    1.297   .     D
C131   H142    1.084   .     S
N132   C135    1.372   .     S
N132   N141    1.406   .     S
N132   H143    1.041   .     S
C133   C134    1.408   .     D
C133   H144    1.076   .     S
C133   C210    1.408   .     S
C134   C135    1.501   .     S
C134   C171    1.408   .     S
C135   O139    1.221   .     D
C136   C137    1.400   .     D
C136   C138    1.402   .     S
C137   C145    1.397   .     S
C137   H150    1.083   .     S
C138   N140    1.358   .     D
C138   H151    1.082   .     S
N140   C146    1.363   .     S
C145   C146    1.408   .     D
C145   H152    1.079   .     S
C153   C158    1.475   .     S
C153   N163    1.296   .     D
C153   H164    1.084   .     S
N154   C157    1.371   .     S
N154   N163    1.405   .     S
N154   H165    1.041   .     S
C155   C156    1.408   .     D
C155   H166    1.075   .     S
C156   C157    1.500   .     S
C156   C193    1.407   .     S
C157   O161    1.221   .     D
C158   C159    1.399   .     D
C158   C160    1.403   .     S
C159   N167    1.358   .     S
C159   H185    1.083   .     S
C160   C162    1.397   .     D
C160   H186    1.083   .     S
C162   C168    1.409   .     S
C162   H187    1.079   .     S
N167   C168    1.362   .     D
C168   C184    1.487   1_565 S
C169   C174    1.476   .     S
C169   N179    1.297   .     D
C169   H180    1.084   .     S
N170   C173    1.372   .     S
N170   N179    1.406   .     S
N170   H181    1.041   .     S
C171   C172    1.408   .     D
C171   H182    1.076   .     S
C172   C173    1.501   .     S
C172   C209    1.408   .     S
C173   O177    1.221   .     D
C174   C175    1.400   .     D
C174   C176    1.402   .     S
C175   C183    1.397   .     S
C175   H188    1.083   .     S
C176   N178    1.358   .     D
C176   H189    1.082   .     S
N178   C184    1.363   .     S
C183   C184    1.408   .     D
C183   H190    1.079   .     S
C184   C168    1.487   1_545 S
C191   C196    1.475   .     S
C191   N201    1.296   .     D
C191   H202    1.084   .     S
N192   C195    1.371   .     S
N192   N201    1.405   .     S
N192   H203    1.041   .     S
C193   C194    1.408   .     D
C193   H204    1.075   .     S
C194   C195    1.500   .     S
C195   O199    1.221   .     D
C196   C197    1.399   .     S
C196   C198    1.403   .     D
C197   N205    1.358   .     D
C197   H223    1.083   .     S
C198   C200    1.397   .     S
C198   H224    1.083   .     S
C200   C206    1.409   .     D
C200   H225    1.079   .     S
N205   C206    1.362   .     S
C206   C222    1.487   1_455 S
C207   C212    1.476   .     S
C207   N217    1.297   .     D
C207   H218    1.084   .     S
N208   C211    1.372   .     S
N208   N217    1.406   .     S
N208   H219    1.041   .     S
C209   C210    1.408   .     D
C209   H220    1.076   .     S
C210   C211    1.501   .     S
C211   O215    1.221   .     D
C212   C213    1.400   .     S
C212   C214    1.402   .     D
C213   C221    1.397   .     D
C213   H226    1.083   .     S
C214   N216    1.358   .     S
C214   H227    1.082   .     S
N216   C222    1.363   .     D
C221   C222    1.408   .     S
C221   H228    1.079   .     S
C222   C206    1.487   1_655 S
