data_112
_audit_creation_date              2023-09-08
_audit_creation_method            'Materials Studio'
_symmetry_space_group_name_H-M    'P1'
_symmetry_Int_Tables_number       1
_symmetry_cell_setting            triclinic
loop_
_symmetry_equiv_pos_as_xyz
  x,y,z
_cell_length_a                    25.4170
_cell_length_b                    25.4170
_cell_length_c                    12.3770
_cell_angle_alpha                 90.0000
_cell_angle_beta                  90.0000
_cell_angle_gamma                 90.0000
loop_
_atom_site_label
_atom_site_type_symbol
_atom_site_fract_x
_atom_site_fract_y
_atom_site_fract_z
_atom_site_U_iso_or_equiv
_atom_site_adp_type
_atom_site_occupancy
C1     C     0.30600   0.00800   0.23600   0.00000  Uiso   1.00
C2     C     0.28300   0.03400   0.32300   0.00000  Uiso   1.00
C3     C     0.22800   0.03300   0.33900   0.00000  Uiso   1.00
C4     C     0.46600   0.04300   0.14800   0.00000  Uiso   1.00
C5     C     0.19500   0.00900   0.26500   0.00000  Uiso   1.00
C6     C     0.13700   0.00700   0.28200   0.00000  Uiso   1.00
N7     N     0.35900   0.01100   0.22400   0.00000  Uiso   1.00
C8     C     0.21800   0.98300   0.16900   0.00000  Uiso   1.00
C9     C     0.27200   0.98000   0.15700   0.00000  Uiso   1.00
C10    C     0.38900   0.98300   0.15400   0.00000  Uiso   1.00
C11    C     0.48000   0.94900   0.14600   0.00000  Uiso   1.00
C12    C     0.44500   0.99200   0.14800   0.00000  Uiso   1.00
N13    N     0.05900   0.94500   0.28700   0.00000  Uiso   1.00
C14    C     0.11200   0.95500   0.28800   0.00000  Uiso   1.00
C15    C     0.14000   0.90800   0.29000   0.00000  Uiso   1.00
C16    C     0.05500   0.89200   0.28600   0.00000  Uiso   1.00
C17    C     0.10400   0.86800   0.28600   0.00000  Uiso   1.00
H18    H     0.30786   0.05389   0.38110   0.00000  Uiso   1.00
H19    H     0.21157   0.05226   0.40903   0.00000  Uiso   1.00
H20    H     0.43980   0.07663   0.14856   0.00000  Uiso   1.00
H21    H     0.19262   0.96427   0.11011   0.00000  Uiso   1.00
H22    H     0.28863   0.95907   0.08965   0.00000  Uiso   1.00
H23    H     0.37544   0.94371   0.13440   0.00000  Uiso   1.00
H24    H     0.46499   0.90912   0.14561   0.00000  Uiso   1.00
H25    H     0.18220   0.90271   0.29249   0.00000  Uiso   1.00
H26    H     0.11404   0.82677   0.28198   0.00000  Uiso   1.00
H27    H     0.97063   0.02802   0.71724   0.00000  Uiso   1.00
C28    C     0.99200   0.30600   0.23600   0.00000  Uiso   1.00
C29    C     0.96600   0.28300   0.32300   0.00000  Uiso   1.00
C30    C     0.96700   0.22800   0.33900   0.00000  Uiso   1.00
C31    C     0.95700   0.46600   0.14800   0.00000  Uiso   1.00
C32    C     0.99100   0.19500   0.26500   0.00000  Uiso   1.00
C33    C     0.99300   0.13700   0.28200   0.00000  Uiso   1.00
N34    N     0.98900   0.35900   0.22400   0.00000  Uiso   1.00
C35    C     0.01700   0.21800   0.16900   0.00000  Uiso   1.00
C36    C     0.02000   0.27200   0.15700   0.00000  Uiso   1.00
C37    C     0.01700   0.38900   0.15400   0.00000  Uiso   1.00
C38    C     0.05100   0.48000   0.14600   0.00000  Uiso   1.00
C39    C     0.00800   0.44500   0.14800   0.00000  Uiso   1.00
N40    N     0.05500   0.05900   0.28700   0.00000  Uiso   1.00
C41    C     0.04500   0.11200   0.28800   0.00000  Uiso   1.00
C42    C     0.09200   0.14000   0.29000   0.00000  Uiso   1.00
C43    C     0.10800   0.05500   0.28600   0.00000  Uiso   1.00
C44    C     0.13200   0.10400   0.28600   0.00000  Uiso   1.00
H45    H     0.94573   0.30780   0.38065   0.00000  Uiso   1.00
H46    H     0.94799   0.21160   0.40934   0.00000  Uiso   1.00
H47    H     0.92336   0.43984   0.14964   0.00000  Uiso   1.00
H48    H     0.03574   0.19261   0.11014   0.00000  Uiso   1.00
H49    H     0.04072   0.28807   0.08902   0.00000  Uiso   1.00
H50    H     0.04900   0.37274   0.10718   0.00000  Uiso   1.00
H51    H     0.09084   0.46487   0.14644   0.00000  Uiso   1.00
H52    H     0.09692   0.18224   0.29191   0.00000  Uiso   1.00
H53    H     0.17330   0.11365   0.28161   0.00000  Uiso   1.00
C54    C     0.69400   0.99200   0.23600   0.00000  Uiso   1.00
C55    C     0.71700   0.96600   0.32300   0.00000  Uiso   1.00
C56    C     0.77200   0.96700   0.33900   0.00000  Uiso   1.00
C57    C     0.53400   0.95700   0.14800   0.00000  Uiso   1.00
C58    C     0.80500   0.99100   0.26500   0.00000  Uiso   1.00
C59    C     0.86300   0.99300   0.28200   0.00000  Uiso   1.00
N60    N     0.64100   0.98900   0.22400   0.00000  Uiso   1.00
C61    C     0.78200   0.01700   0.16900   0.00000  Uiso   1.00
C62    C     0.72800   0.02000   0.15700   0.00000  Uiso   1.00
C63    C     0.61100   0.01700   0.15400   0.00000  Uiso   1.00
C64    C     0.52000   0.05100   0.14600   0.00000  Uiso   1.00
C65    C     0.55500   0.00800   0.14800   0.00000  Uiso   1.00
N66    N     0.94100   0.05500   0.28700   0.00000  Uiso   1.00
C67    C     0.88800   0.04500   0.28800   0.00000  Uiso   1.00
C68    C     0.86000   0.09200   0.29000   0.00000  Uiso   1.00
C69    C     0.94500   0.10800   0.28600   0.00000  Uiso   1.00
C70    C     0.89600   0.13200   0.28600   0.00000  Uiso   1.00
H71    H     0.69214   0.94611   0.38110   0.00000  Uiso   1.00
H72    H     0.78843   0.94774   0.40903   0.00000  Uiso   1.00
H73    H     0.56020   0.92337   0.14856   0.00000  Uiso   1.00
H74    H     0.80738   0.03573   0.11011   0.00000  Uiso   1.00
H75    H     0.71137   0.04093   0.08965   0.00000  Uiso   1.00
H76    H     0.62456   0.05629   0.13440   0.00000  Uiso   1.00
H77    H     0.53501   0.09088   0.14561   0.00000  Uiso   1.00
H78    H     0.81780   0.09729   0.29249   0.00000  Uiso   1.00
H79    H     0.88596   0.17323   0.28198   0.00000  Uiso   1.00
H80    H     0.02937   0.97198   0.71724   0.00000  Uiso   1.00
C81    C     0.00800   0.69400   0.23600   0.00000  Uiso   1.00
C82    C     0.03400   0.71700   0.32300   0.00000  Uiso   1.00
C83    C     0.03300   0.77200   0.33900   0.00000  Uiso   1.00
C84    C     0.04300   0.53400   0.14800   0.00000  Uiso   1.00
C85    C     0.00900   0.80500   0.26500   0.00000  Uiso   1.00
C86    C     0.00700   0.86300   0.28200   0.00000  Uiso   1.00
N87    N     0.01100   0.64100   0.22400   0.00000  Uiso   1.00
C88    C     0.98300   0.78200   0.16900   0.00000  Uiso   1.00
C89    C     0.98000   0.72800   0.15700   0.00000  Uiso   1.00
C90    C     0.98300   0.61100   0.15400   0.00000  Uiso   1.00
C91    C     0.94900   0.52000   0.14600   0.00000  Uiso   1.00
C92    C     0.99200   0.55500   0.14800   0.00000  Uiso   1.00
N93    N     0.94500   0.94100   0.28700   0.00000  Uiso   1.00
C94    C     0.95500   0.88800   0.28800   0.00000  Uiso   1.00
C95    C     0.90800   0.86000   0.29000   0.00000  Uiso   1.00
C96    C     0.89200   0.94500   0.28600   0.00000  Uiso   1.00
C97    C     0.86800   0.89600   0.28600   0.00000  Uiso   1.00
H98    H     0.05427   0.69220   0.38065   0.00000  Uiso   1.00
H99    H     0.05201   0.78840   0.40934   0.00000  Uiso   1.00
H100   H     0.07664   0.56016   0.14964   0.00000  Uiso   1.00
H101   H     0.96426   0.80739   0.11014   0.00000  Uiso   1.00
H102   H     0.95928   0.71193   0.08902   0.00000  Uiso   1.00
H103   H     0.95100   0.62726   0.10718   0.00000  Uiso   1.00
H104   H     0.90916   0.53513   0.14644   0.00000  Uiso   1.00
H105   H     0.90308   0.81776   0.29191   0.00000  Uiso   1.00
H106   H     0.82670   0.88635   0.28161   0.00000  Uiso   1.00
C107   C     0.00800   0.69400   0.76400   0.00000  Uiso   1.00
C108   C     0.03400   0.71700   0.67700   0.00000  Uiso   1.00
C109   C     0.03300   0.77200   0.66100   0.00000  Uiso   1.00
C110   C     0.04300   0.53400   0.85200   0.00000  Uiso   1.00
C111   C     0.00900   0.80500   0.73500   0.00000  Uiso   1.00
C112   C     0.00700   0.86300   0.71800   0.00000  Uiso   1.00
N113   N     0.01100   0.64100   0.77600   0.00000  Uiso   1.00
C114   C     0.98300   0.78200   0.83100   0.00000  Uiso   1.00
C115   C     0.98000   0.72800   0.84300   0.00000  Uiso   1.00
C116   C     0.98300   0.61100   0.84600   0.00000  Uiso   1.00
C117   C     0.94900   0.52000   0.85400   0.00000  Uiso   1.00
C118   C     0.99200   0.55500   0.85200   0.00000  Uiso   1.00
N119   N     0.94500   0.94100   0.71300   0.00000  Uiso   1.00
C120   C     0.95500   0.88800   0.71200   0.00000  Uiso   1.00
C121   C     0.90800   0.86000   0.71000   0.00000  Uiso   1.00
C122   C     0.89200   0.94500   0.71400   0.00000  Uiso   1.00
C123   C     0.86800   0.89600   0.71400   0.00000  Uiso   1.00
H124   H     0.05389   0.69214   0.61890   0.00000  Uiso   1.00
H125   H     0.05226   0.78843   0.59097   0.00000  Uiso   1.00
H126   H     0.07663   0.56020   0.85144   0.00000  Uiso   1.00
H127   H     0.96427   0.80738   0.88989   0.00000  Uiso   1.00
H128   H     0.95907   0.71137   0.91035   0.00000  Uiso   1.00
H129   H     0.94371   0.62456   0.86560   0.00000  Uiso   1.00
H130   H     0.90912   0.53501   0.85439   0.00000  Uiso   1.00
H131   H     0.90271   0.81780   0.70751   0.00000  Uiso   1.00
H132   H     0.82677   0.88596   0.71802   0.00000  Uiso   1.00
H133   H     0.02802   0.02937   0.28276   0.00000  Uiso   1.00
C134   C     0.30600   0.00800   0.76400   0.00000  Uiso   1.00
C135   C     0.28300   0.03400   0.67700   0.00000  Uiso   1.00
C136   C     0.22800   0.03300   0.66100   0.00000  Uiso   1.00
C137   C     0.46600   0.04300   0.85200   0.00000  Uiso   1.00
C138   C     0.19500   0.00900   0.73500   0.00000  Uiso   1.00
C139   C     0.13700   0.00700   0.71800   0.00000  Uiso   1.00
N140   N     0.35900   0.01100   0.77600   0.00000  Uiso   1.00
C141   C     0.21800   0.98300   0.83100   0.00000  Uiso   1.00
C142   C     0.27200   0.98000   0.84300   0.00000  Uiso   1.00
C143   C     0.38900   0.98300   0.84600   0.00000  Uiso   1.00
C144   C     0.48000   0.94900   0.85400   0.00000  Uiso   1.00
C145   C     0.44500   0.99200   0.85200   0.00000  Uiso   1.00
N146   N     0.05900   0.94500   0.71300   0.00000  Uiso   1.00
C147   C     0.11200   0.95500   0.71200   0.00000  Uiso   1.00
C148   C     0.14000   0.90800   0.71000   0.00000  Uiso   1.00
C149   C     0.05500   0.89200   0.71400   0.00000  Uiso   1.00
C150   C     0.10400   0.86800   0.71400   0.00000  Uiso   1.00
H151   H     0.30780   0.05427   0.61935   0.00000  Uiso   1.00
H152   H     0.21160   0.05201   0.59066   0.00000  Uiso   1.00
H153   H     0.43984   0.07664   0.85036   0.00000  Uiso   1.00
H154   H     0.19261   0.96426   0.88986   0.00000  Uiso   1.00
H155   H     0.28807   0.95928   0.91098   0.00000  Uiso   1.00
H156   H     0.37274   0.95100   0.89282   0.00000  Uiso   1.00
H157   H     0.46487   0.90916   0.85356   0.00000  Uiso   1.00
H158   H     0.18224   0.90308   0.70809   0.00000  Uiso   1.00
H159   H     0.11365   0.82670   0.71839   0.00000  Uiso   1.00
C160   C     0.99200   0.30600   0.76400   0.00000  Uiso   1.00
C161   C     0.96600   0.28300   0.67700   0.00000  Uiso   1.00
C162   C     0.96700   0.22800   0.66100   0.00000  Uiso   1.00
C163   C     0.95700   0.46600   0.85200   0.00000  Uiso   1.00
C164   C     0.99100   0.19500   0.73500   0.00000  Uiso   1.00
C165   C     0.99300   0.13700   0.71800   0.00000  Uiso   1.00
N166   N     0.98900   0.35900   0.77600   0.00000  Uiso   1.00
C167   C     0.01700   0.21800   0.83100   0.00000  Uiso   1.00
C168   C     0.02000   0.27200   0.84300   0.00000  Uiso   1.00
C169   C     0.01700   0.38900   0.84600   0.00000  Uiso   1.00
C170   C     0.05100   0.48000   0.85400   0.00000  Uiso   1.00
C171   C     0.00800   0.44500   0.85200   0.00000  Uiso   1.00
N172   N     0.05500   0.05900   0.71300   0.00000  Uiso   1.00
C173   C     0.04500   0.11200   0.71200   0.00000  Uiso   1.00
C174   C     0.09200   0.14000   0.71000   0.00000  Uiso   1.00
C175   C     0.10800   0.05500   0.71400   0.00000  Uiso   1.00
C176   C     0.13200   0.10400   0.71400   0.00000  Uiso   1.00
H177   H     0.94611   0.30786   0.61890   0.00000  Uiso   1.00
H178   H     0.94774   0.21157   0.59097   0.00000  Uiso   1.00
H179   H     0.92337   0.43980   0.85144   0.00000  Uiso   1.00
H180   H     0.03573   0.19262   0.88989   0.00000  Uiso   1.00
H181   H     0.04093   0.28863   0.91035   0.00000  Uiso   1.00
H182   H     0.05629   0.37544   0.86560   0.00000  Uiso   1.00
H183   H     0.09088   0.46499   0.85439   0.00000  Uiso   1.00
H184   H     0.09729   0.18220   0.70751   0.00000  Uiso   1.00
H185   H     0.17323   0.11404   0.71802   0.00000  Uiso   1.00
H186   H     0.97198   0.97063   0.28276   0.00000  Uiso   1.00
C187   C     0.69400   0.99200   0.76400   0.00000  Uiso   1.00
C188   C     0.71700   0.96600   0.67700   0.00000  Uiso   1.00
C189   C     0.77200   0.96700   0.66100   0.00000  Uiso   1.00
C190   C     0.53400   0.95700   0.85200   0.00000  Uiso   1.00
C191   C     0.80500   0.99100   0.73500   0.00000  Uiso   1.00
C192   C     0.86300   0.99300   0.71800   0.00000  Uiso   1.00
N193   N     0.64100   0.98900   0.77600   0.00000  Uiso   1.00
C194   C     0.78200   0.01700   0.83100   0.00000  Uiso   1.00
C195   C     0.72800   0.02000   0.84300   0.00000  Uiso   1.00
C196   C     0.61100   0.01700   0.84600   0.00000  Uiso   1.00
C197   C     0.52000   0.05100   0.85400   0.00000  Uiso   1.00
C198   C     0.55500   0.00800   0.85200   0.00000  Uiso   1.00
N199   N     0.94100   0.05500   0.71300   0.00000  Uiso   1.00
C200   C     0.88800   0.04500   0.71200   0.00000  Uiso   1.00
C201   C     0.86000   0.09200   0.71000   0.00000  Uiso   1.00
C202   C     0.94500   0.10800   0.71400   0.00000  Uiso   1.00
C203   C     0.89600   0.13200   0.71400   0.00000  Uiso   1.00
H204   H     0.69220   0.94573   0.61935   0.00000  Uiso   1.00
H205   H     0.78840   0.94799   0.59066   0.00000  Uiso   1.00
H206   H     0.56016   0.92336   0.85036   0.00000  Uiso   1.00
H207   H     0.80739   0.03574   0.88986   0.00000  Uiso   1.00
H208   H     0.71193   0.04072   0.91098   0.00000  Uiso   1.00
H209   H     0.62726   0.04900   0.89282   0.00000  Uiso   1.00
H210   H     0.53513   0.09084   0.85356   0.00000  Uiso   1.00
H211   H     0.81776   0.09692   0.70809   0.00000  Uiso   1.00
H212   H     0.88635   0.17330   0.71839   0.00000  Uiso   1.00
loop_
_geom_bond_atom_site_label_1
_geom_bond_atom_site_label_2
_geom_bond_distance
_geom_bond_site_symmetry_2
_ccdc_geom_bond_type
C1     C2      1.392   .     S
C1     N7      1.357   .     D
C1     C9      1.486   1_545 S
C2     C3      1.412   .     D
C2     H18     1.083   .     S
C3     C5      1.384   .     S
C3     H19     1.080   .     S
C4     C12     1.402   1_545 S
C4     H20     1.083   .     S
C4     C64     1.388   .     D
C5     C6      1.490   .     D
C5     C8      1.480   1_545 S
C6     C14     1.468   1_545 S
C6     C43     1.426   .     S
N7     C10     1.356   1_545 S
C8     C5      1.480   1_565 S
C8     C9      1.383   .     D
C8     H21     1.083   .     S
C9     C1      1.486   1_565 S
C9     H22     1.075   .     S
C10    N7      1.356   1_565 S
C10    C12     1.444   .     D
C10    H23     1.084   .     S
C11    C12     1.409   .     S
C11    H24     1.083   .     S
C11    C57     1.388   .     D
C12    C4      1.402   1_565 S
N13    C14     1.371   .     D
N13    C16     1.351   .     S
C14    C6      1.468   1_565 S
C14    C15     1.391   .     S
C15    C17     1.369   .     D
C15    H25     1.081   .     S
C16    C17     1.387   .     S
C16    C86     1.426   .     D
C17    H26     1.080   .     S
H27    N199    1.020   .     S
C28    C29     1.392   .     D
C28    N34     1.357   .     S
C28    C36     1.486   1_655 S
C29    C30     1.412   .     S
C29    H45     1.083   .     S
C30    C32     1.384   .     D
C30    H46     1.079   .     S
C31    C39     1.402   1_655 S
C31    H47     1.083   .     S
C31    C91     1.388   .     D
C32    C33     1.490   .     S
C32    C35     1.480   1_655 S
C33    C41     1.468   1_655 S
C33    C69     1.426   .     D
N34    C37     1.356   1_655 D
C35    C32     1.480   1_455 S
C35    C36     1.383   .     D
C35    H48     1.083   .     S
C36    C28     1.486   1_455 S
C36    H49     1.073   .     S
C37    N34     1.356   1_455 D
C37    C39     1.444   .     S
C37    H50     1.081   .     S
C38    C39     1.409   .     D
C38    H51     1.083   .     S
C38    C84     1.388   .     S
C39    C31     1.402   1_455 S
N40    C41     1.371   .     S
N40    C43     1.351   .     S
N40    H133    1.020   .     S
C41    C33     1.468   1_455 S
C41    C42     1.391   .     D
C42    C44     1.369   .     S
C42    H52     1.081   .     S
C43    C44     1.387   .     D
C44    H53     1.079   .     S
C54    C55     1.392   .     S
C54    N60     1.357   .     D
C54    C62     1.486   1_565 S
C55    C56     1.412   .     D
C55    H71     1.083   .     S
C56    C58     1.384   .     S
C56    H72     1.080   .     S
C57    C65     1.402   1_565 S
C57    H73     1.083   .     S
C58    C59     1.490   .     D
C58    C61     1.480   1_565 S
C59    C67     1.468   1_565 S
C59    C96     1.426   .     S
N60    C63     1.356   1_565 S
C61    C58     1.480   1_545 S
C61    C62     1.383   .     D
C61    H74     1.083   .     S
C62    C54     1.486   1_545 S
C62    H75     1.075   .     S
C63    N60     1.356   1_545 S
C63    C65     1.444   .     D
C63    H76     1.084   .     S
C64    C65     1.409   .     S
C64    H77     1.083   .     S
C65    C57     1.402   1_545 S
N66    C67     1.371   .     D
N66    C69     1.351   .     S
C67    C59     1.468   1_545 S
C67    C68     1.391   .     S
C68    C70     1.369   .     D
C68    H78     1.081   .     S
C69    C70     1.387   .     S
C70    H79     1.080   .     S
H80    N146    1.020   .     S
C81    C82     1.392   .     D
C81    N87     1.357   .     S
C81    C89     1.486   1_455 S
C82    C83     1.412   .     S
C82    H98     1.083   .     S
C83    C85     1.384   .     D
C83    H99     1.079   .     S
C84    C92     1.402   1_455 D
C84    H100    1.083   .     S
C85    C86     1.490   .     S
C85    C88     1.480   1_455 S
C86    C94     1.468   1_455 S
N87    C90     1.356   1_455 D
C88    C85     1.480   1_655 S
C88    C89     1.383   .     D
C88    H101    1.083   .     S
C89    C81     1.486   1_655 S
C89    H102    1.073   .     S
C90    N87     1.356   1_655 D
C90    C92     1.444   .     S
C90    H103    1.081   .     S
C91    C92     1.409   .     S
C91    H104    1.083   .     S
C92    C84     1.402   1_655 D
N93    C94     1.371   .     S
N93    C96     1.351   .     S
N93    H186    1.020   .     S
C94    C86     1.468   1_655 S
C94    C95     1.391   .     D
C95    C97     1.369   .     S
C95    H105    1.081   .     S
C96    C97     1.387   .     D
C97    H106    1.079   .     S
C107   C108    1.392   .     D
C107   N113    1.357   .     S
C107   C115    1.486   1_455 S
C108   C109    1.412   .     S
C108   H124    1.083   .     S
C109   C111    1.384   .     D
C109   H125    1.080   .     S
C110   C118    1.402   1_455 D
C110   H126    1.083   .     S
C110   C170    1.388   .     S
C111   C112    1.490   .     S
C111   C114    1.480   1_455 S
C112   C120    1.468   1_455 D
C112   C149    1.426   .     S
N113   C116    1.356   1_455 D
C114   C111    1.480   1_655 S
C114   C115    1.383   .     D
C114   H127    1.083   .     S
C115   C107    1.486   1_655 S
C115   H128    1.075   .     S
C116   N113    1.356   1_655 D
C116   C118    1.444   .     S
C116   H129    1.084   .     S
C117   C118    1.409   .     S
C117   H130    1.083   .     S
C117   C163    1.388   .     D
C118   C110    1.402   1_655 D
N119   C120    1.371   .     S
N119   C122    1.351   .     D
C120   C112    1.468   1_655 D
C120   C121    1.391   .     S
C121   C123    1.369   .     D
C121   H131    1.081   .     S
C122   C123    1.387   .     S
C122   C192    1.426   .     S
C123   H132    1.080   .     S
C134   C135    1.392   .     D
C134   N140    1.357   .     S
C134   C142    1.486   1_545 S
C135   C136    1.412   .     S
C135   H151    1.083   .     S
C136   C138    1.384   .     D
C136   H152    1.079   .     S
C137   C145    1.402   1_545 D
C137   H153    1.083   .     S
C137   C197    1.388   .     S
C138   C139    1.490   .     S
C138   C141    1.480   1_545 S
C139   C147    1.468   1_545 S
C139   C175    1.426   .     D
N140   C143    1.356   1_545 D
C141   C138    1.480   1_565 S
C141   C142    1.383   .     D
C141   H154    1.083   .     S
C142   C134    1.486   1_565 S
C142   H155    1.073   .     S
C143   N140    1.356   1_565 D
C143   C145    1.444   .     S
C143   H156    1.081   .     S
C144   C145    1.409   .     S
C144   H157    1.083   .     S
C144   C190    1.388   .     D
C145   C137    1.402   1_565 D
N146   C147    1.371   .     S
N146   C149    1.351   .     S
C147   C139    1.468   1_565 S
C147   C148    1.391   .     D
C148   C150    1.369   .     S
C148   H158    1.081   .     S
C149   C150    1.387   .     D
C150   H159    1.079   .     S
C160   C161    1.392   .     D
C160   N166    1.357   .     S
C160   C168    1.486   1_655 S
C161   C162    1.412   .     S
C161   H177    1.083   .     S
C162   C164    1.384   .     D
C162   H178    1.080   .     S
C163   C171    1.402   1_655 S
C163   H179    1.083   .     S
C164   C165    1.490   .     S
C164   C167    1.480   1_655 S
C165   C173    1.468   1_655 S
C165   C202    1.426   .     D
N166   C169    1.356   1_655 D
C167   C164    1.480   1_455 S
C167   C168    1.383   .     D
C167   H180    1.083   .     S
C168   C160    1.486   1_455 S
C168   H181    1.075   .     S
C169   N166    1.356   1_455 D
C169   C171    1.444   .     S
C169   H182    1.084   .     S
C170   C171    1.409   .     D
C170   H183    1.083   .     S
C171   C163    1.402   1_455 S
N172   C173    1.371   .     D
N172   C175    1.351   .     S
C173   C165    1.468   1_455 S
C173   C174    1.391   .     S
C174   C176    1.369   .     D
C174   H184    1.081   .     S
C175   C176    1.387   .     S
C176   H185    1.080   .     S
C187   C188    1.392   .     D
C187   N193    1.357   .     S
C187   C195    1.486   1_565 S
C188   C189    1.412   .     S
C188   H204    1.083   .     S
C189   C191    1.384   .     D
C189   H205    1.079   .     S
C190   C198    1.402   1_565 S
C190   H206    1.083   .     S
C191   C192    1.490   .     S
C191   C194    1.480   1_565 S
C192   C200    1.468   1_565 D
N193   C196    1.356   1_565 D
C194   C191    1.480   1_545 S
C194   C195    1.383   .     D
C194   H207    1.083   .     S
C195   C187    1.486   1_545 S
C195   H208    1.073   .     S
C196   N193    1.356   1_545 D
C196   C198    1.444   .     S
C196   H209    1.081   .     S
C197   C198    1.409   .     D
C197   H210    1.083   .     S
C198   C190    1.402   1_545 S
N199   C200    1.371   .     S
N199   C202    1.351   .     S
C200   C192    1.468   1_545 D
C200   C201    1.391   .     S
C201   C203    1.369   .     D
C201   H211    1.081   .     S
C202   C203    1.387   .     S
C203   H212    1.079   .     S
