data_1121
_audit_creation_date              2023-09-08
_audit_creation_method            'Materials Studio'
_symmetry_space_group_name_H-M    'P1'
_symmetry_Int_Tables_number       1
_symmetry_cell_setting            triclinic
loop_
_symmetry_equiv_pos_as_xyz
  x,y,z
_cell_length_a                    44.0400
_cell_length_b                    44.0400
_cell_length_c                    4.2300
_cell_angle_alpha                 90.0000
_cell_angle_beta                  90.0000
_cell_angle_gamma                 120.0000
loop_
_atom_site_label
_atom_site_type_symbol
_atom_site_fract_x
_atom_site_fract_y
_atom_site_fract_z
_atom_site_U_iso_or_equiv
_atom_site_adp_type
_atom_site_occupancy
N1     N     0.67705   0.30951   0.46011   0.00000  Uiso   1.00
C2     C     0.70195   0.34404   0.46001   0.00000  Uiso   1.00
C3     C     0.73811   0.35502   0.45779   0.00000  Uiso   1.00
C4     C     0.74994   0.33045   0.44603   0.00000  Uiso   1.00
C5     C     0.78590   0.34140   0.44060   0.00000  Uiso   1.00
C6     C     0.81154   0.37738   0.44673   0.00000  Uiso   1.00
C7     C     0.79989   0.40203   0.46044   0.00000  Uiso   1.00
C8     C     0.76393   0.39105   0.46585   0.00000  Uiso   1.00
C9     C     0.84739   0.38762   0.43846   0.00000  Uiso   1.00
N10    N     0.87264   0.42174   0.43433   0.00000  Uiso   1.00
C11    C     0.98180   0.48787   0.39988   0.00000  Uiso   1.00
C12    C     0.95760   0.49722   0.28420   0.00000  Uiso   1.00
C13    C     0.92149   0.47359   0.30244   0.00000  Uiso   1.00
C14    C     0.90825   0.43980   0.43385   0.00000  Uiso   1.00
C15    C     0.93217   0.42934   0.55086   0.00000  Uiso   1.00
C16    C     0.96861   0.45386   0.52647   0.00000  Uiso   1.00
C17    C     0.92118   0.39464   0.70371   0.00000  Uiso   1.00
F18    F     0.94672   0.39358   0.88309   0.00000  Uiso   1.00
F19    F     0.91145   0.36856   0.48372   0.00000  Uiso   1.00
F20    F     0.89394   0.38534   0.90836   0.00000  Uiso   1.00
H21    H     0.73250   0.30409   0.44047   0.00000  Uiso   1.00
H22    H     0.79315   0.32265   0.43150   0.00000  Uiso   1.00
H23    H     0.81744   0.42836   0.46639   0.00000  Uiso   1.00
H24    H     0.75695   0.40997   0.47551   0.00000  Uiso   1.00
H25    H     0.85419   0.36868   0.42906   0.00000  Uiso   1.00
H26    H     0.96605   0.52140   0.18605   0.00000  Uiso   1.00
H27    H     0.90483   0.48159   0.21686   0.00000  Uiso   1.00
H28    H     0.98636   0.44715   0.60749   0.00000  Uiso   1.00
N29    N     0.69049   0.36754   0.46011   0.00000  Uiso   1.00
C30    C     0.65596   0.35791   0.46001   0.00000  Uiso   1.00
C31    C     0.64498   0.38309   0.45779   0.00000  Uiso   1.00
C32    C     0.66955   0.41949   0.44603   0.00000  Uiso   1.00
C33    C     0.65860   0.44450   0.44060   0.00000  Uiso   1.00
C34    C     0.62262   0.43416   0.44673   0.00000  Uiso   1.00
C35    C     0.59797   0.39786   0.46044   0.00000  Uiso   1.00
C36    C     0.60895   0.37288   0.46585   0.00000  Uiso   1.00
C37    C     0.61238   0.45977   0.43846   0.00000  Uiso   1.00
N38    N     0.57826   0.45090   0.43433   0.00000  Uiso   1.00
C39    C     0.51213   0.49393   0.39988   0.00000  Uiso   1.00
C40    C     0.50278   0.46038   0.28420   0.00000  Uiso   1.00
C41    C     0.52641   0.44790   0.30244   0.00000  Uiso   1.00
C42    C     0.56020   0.46845   0.43385   0.00000  Uiso   1.00
C43    C     0.57066   0.50283   0.55086   0.00000  Uiso   1.00
C44    C     0.54614   0.51475   0.52647   0.00000  Uiso   1.00
C45    C     0.60536   0.52654   0.70371   0.00000  Uiso   1.00
F46    F     0.60642   0.55314   0.88309   0.00000  Uiso   1.00
F47    F     0.63144   0.54289   0.48372   0.00000  Uiso   1.00
F48    F     0.61466   0.50860   0.90836   0.00000  Uiso   1.00
H49    H     0.69591   0.42841   0.44047   0.00000  Uiso   1.00
H50    H     0.67735   0.47050   0.43150   0.00000  Uiso   1.00
H51    H     0.57164   0.38908   0.46639   0.00000  Uiso   1.00
H52    H     0.59003   0.34698   0.47551   0.00000  Uiso   1.00
H53    H     0.63132   0.48551   0.42906   0.00000  Uiso   1.00
H54    H     0.47860   0.44465   0.18605   0.00000  Uiso   1.00
H55    H     0.51841   0.42324   0.21686   0.00000  Uiso   1.00
H56    H     0.55285   0.53921   0.60749   0.00000  Uiso   1.00
N57    N     0.63246   0.32295   0.46011   0.00000  Uiso   1.00
C58    C     0.64209   0.29805   0.46001   0.00000  Uiso   1.00
C59    C     0.61691   0.26189   0.45779   0.00000  Uiso   1.00
C60    C     0.58051   0.25006   0.44603   0.00000  Uiso   1.00
C61    C     0.55550   0.21410   0.44060   0.00000  Uiso   1.00
C62    C     0.56584   0.18846   0.44673   0.00000  Uiso   1.00
C63    C     0.60214   0.20011   0.46044   0.00000  Uiso   1.00
C64    C     0.62712   0.23607   0.46585   0.00000  Uiso   1.00
C65    C     0.54023   0.15261   0.43846   0.00000  Uiso   1.00
N66    N     0.54910   0.12736   0.43433   0.00000  Uiso   1.00
C67    C     0.50607   0.01820   0.39988   0.00000  Uiso   1.00
C68    C     0.53962   0.04240   0.28420   0.00000  Uiso   1.00
C69    C     0.55210   0.07851   0.30244   0.00000  Uiso   1.00
C70    C     0.53155   0.09175   0.43385   0.00000  Uiso   1.00
C71    C     0.49717   0.06783   0.55086   0.00000  Uiso   1.00
C72    C     0.48525   0.03139   0.52647   0.00000  Uiso   1.00
C73    C     0.47346   0.07882   0.70371   0.00000  Uiso   1.00
F74    F     0.44686   0.05328   0.88309   0.00000  Uiso   1.00
F75    F     0.45711   0.08855   0.48372   0.00000  Uiso   1.00
F76    F     0.49140   0.10606   0.90836   0.00000  Uiso   1.00
H77    H     0.57159   0.26750   0.44047   0.00000  Uiso   1.00
H78    H     0.52950   0.20685   0.43150   0.00000  Uiso   1.00
H79    H     0.61092   0.18256   0.46639   0.00000  Uiso   1.00
H80    H     0.65302   0.24305   0.47551   0.00000  Uiso   1.00
H81    H     0.51449   0.14581   0.42906   0.00000  Uiso   1.00
H82    H     0.55535   0.03395   0.18605   0.00000  Uiso   1.00
H83    H     0.57676   0.09517   0.21686   0.00000  Uiso   1.00
H84    H     0.46079   0.01364   0.60749   0.00000  Uiso   1.00
N85    N     0.32295   0.69049   0.46011   0.00000  Uiso   1.00
C86    C     0.29805   0.65596   0.46001   0.00000  Uiso   1.00
C87    C     0.26189   0.64498   0.45779   0.00000  Uiso   1.00
C88    C     0.25006   0.66955   0.44603   0.00000  Uiso   1.00
C89    C     0.21410   0.65860   0.44060   0.00000  Uiso   1.00
C90    C     0.18846   0.62262   0.44673   0.00000  Uiso   1.00
C91    C     0.20011   0.59797   0.46044   0.00000  Uiso   1.00
C92    C     0.23607   0.60895   0.46585   0.00000  Uiso   1.00
C93    C     0.15261   0.61238   0.43846   0.00000  Uiso   1.00
N94    N     0.12736   0.57826   0.43433   0.00000  Uiso   1.00
C95    C     0.01820   0.51213   0.39988   0.00000  Uiso   1.00
C96    C     0.04240   0.50278   0.28420   0.00000  Uiso   1.00
C97    C     0.07851   0.52641   0.30244   0.00000  Uiso   1.00
C98    C     0.09175   0.56020   0.43385   0.00000  Uiso   1.00
C99    C     0.06783   0.57066   0.55086   0.00000  Uiso   1.00
C100   C     0.03139   0.54614   0.52647   0.00000  Uiso   1.00
C101   C     0.07882   0.60536   0.70371   0.00000  Uiso   1.00
F102   F     0.05328   0.60642   0.88309   0.00000  Uiso   1.00
F103   F     0.08855   0.63144   0.48372   0.00000  Uiso   1.00
F104   F     0.10606   0.61466   0.90836   0.00000  Uiso   1.00
H105   H     0.26750   0.69591   0.44047   0.00000  Uiso   1.00
H106   H     0.20685   0.67735   0.43150   0.00000  Uiso   1.00
H107   H     0.18256   0.57164   0.46639   0.00000  Uiso   1.00
H108   H     0.24305   0.59003   0.47551   0.00000  Uiso   1.00
H109   H     0.14581   0.63132   0.42906   0.00000  Uiso   1.00
H110   H     0.03395   0.47860   0.18605   0.00000  Uiso   1.00
H111   H     0.09517   0.51841   0.21686   0.00000  Uiso   1.00
H112   H     0.01364   0.55285   0.60749   0.00000  Uiso   1.00
N113   N     0.30951   0.63246   0.46011   0.00000  Uiso   1.00
C114   C     0.34404   0.64209   0.46001   0.00000  Uiso   1.00
C115   C     0.35502   0.61691   0.45779   0.00000  Uiso   1.00
C116   C     0.33045   0.58051   0.44603   0.00000  Uiso   1.00
C117   C     0.34140   0.55550   0.44060   0.00000  Uiso   1.00
C118   C     0.37738   0.56584   0.44673   0.00000  Uiso   1.00
C119   C     0.40203   0.60214   0.46044   0.00000  Uiso   1.00
C120   C     0.39105   0.62712   0.46585   0.00000  Uiso   1.00
C121   C     0.38762   0.54023   0.43846   0.00000  Uiso   1.00
N122   N     0.42174   0.54910   0.43433   0.00000  Uiso   1.00
C123   C     0.48787   0.50607   0.39988   0.00000  Uiso   1.00
C124   C     0.49722   0.53962   0.28420   0.00000  Uiso   1.00
C125   C     0.47359   0.55210   0.30244   0.00000  Uiso   1.00
C126   C     0.43980   0.53155   0.43385   0.00000  Uiso   1.00
C127   C     0.42934   0.49717   0.55086   0.00000  Uiso   1.00
C128   C     0.45386   0.48525   0.52647   0.00000  Uiso   1.00
C129   C     0.39464   0.47346   0.70371   0.00000  Uiso   1.00
F130   F     0.39358   0.44686   0.88309   0.00000  Uiso   1.00
F131   F     0.36856   0.45711   0.48372   0.00000  Uiso   1.00
F132   F     0.38534   0.49140   0.90836   0.00000  Uiso   1.00
H133   H     0.30409   0.57159   0.44047   0.00000  Uiso   1.00
H134   H     0.32265   0.52950   0.43150   0.00000  Uiso   1.00
H135   H     0.42836   0.61092   0.46639   0.00000  Uiso   1.00
H136   H     0.40997   0.65302   0.47551   0.00000  Uiso   1.00
H137   H     0.36868   0.51449   0.42906   0.00000  Uiso   1.00
H138   H     0.52140   0.55535   0.18605   0.00000  Uiso   1.00
H139   H     0.48159   0.57676   0.21686   0.00000  Uiso   1.00
H140   H     0.44715   0.46079   0.60749   0.00000  Uiso   1.00
N141   N     0.36754   0.67705   0.46011   0.00000  Uiso   1.00
C142   C     0.35791   0.70195   0.46001   0.00000  Uiso   1.00
C143   C     0.38309   0.73811   0.45779   0.00000  Uiso   1.00
C144   C     0.41949   0.74994   0.44603   0.00000  Uiso   1.00
C145   C     0.44450   0.78590   0.44060   0.00000  Uiso   1.00
C146   C     0.43416   0.81154   0.44673   0.00000  Uiso   1.00
C147   C     0.39786   0.79989   0.46044   0.00000  Uiso   1.00
C148   C     0.37288   0.76393   0.46585   0.00000  Uiso   1.00
C149   C     0.45977   0.84739   0.43846   0.00000  Uiso   1.00
N150   N     0.45090   0.87264   0.43433   0.00000  Uiso   1.00
C151   C     0.49393   0.98180   0.39988   0.00000  Uiso   1.00
C152   C     0.46038   0.95760   0.28420   0.00000  Uiso   1.00
C153   C     0.44790   0.92149   0.30244   0.00000  Uiso   1.00
C154   C     0.46845   0.90825   0.43385   0.00000  Uiso   1.00
C155   C     0.50283   0.93217   0.55086   0.00000  Uiso   1.00
C156   C     0.51475   0.96861   0.52647   0.00000  Uiso   1.00
C157   C     0.52654   0.92118   0.70371   0.00000  Uiso   1.00
F158   F     0.55314   0.94672   0.88309   0.00000  Uiso   1.00
F159   F     0.54289   0.91145   0.48372   0.00000  Uiso   1.00
F160   F     0.50860   0.89394   0.90836   0.00000  Uiso   1.00
H161   H     0.42841   0.73250   0.44047   0.00000  Uiso   1.00
H162   H     0.47050   0.79315   0.43150   0.00000  Uiso   1.00
H163   H     0.38908   0.81744   0.46639   0.00000  Uiso   1.00
H164   H     0.34698   0.75695   0.47551   0.00000  Uiso   1.00
H165   H     0.48551   0.85419   0.42906   0.00000  Uiso   1.00
H166   H     0.44465   0.96605   0.18605   0.00000  Uiso   1.00
H167   H     0.42324   0.90483   0.21686   0.00000  Uiso   1.00
H168   H     0.53921   0.98636   0.60749   0.00000  Uiso   1.00
loop_
_geom_bond_atom_site_label_1
_geom_bond_atom_site_label_2
_geom_bond_distance
_geom_bond_site_symmetry_2
_ccdc_geom_bond_type
N1     C2      1.359   .     S
N1     C58     1.359   .     D
C2     C3      1.414   .     S
C2     N29     1.359   .     D
C3     C4      1.417   .     S
C3     C8      1.417   .     D
C4     C5      1.406   .     D
C4     H21     1.023   .     S
C5     C6      1.413   .     S
C5     H22     1.024   .     S
C6     C7      1.415   .     D
C6     C9      1.409   .     S
C7     C8      1.406   .     S
C7     H23     1.023   .     S
C8     H24     1.023   .     S
C9     N10     1.351   .     D
C9     H25     1.018   .     S
N10    C14     1.358   .     S
C11    C12     1.408   .     S
C11    C16     1.413   .     D
C11    C95     1.414   1_655 S
C12    C13     1.401   .     D
C12    H26     1.024   .     S
C13    C14     1.413   .     S
C13    H27     1.026   .     S
C14    C15     1.433   .     D
C15    C16     1.421   .     S
C15    C17     1.499   .     S
C16    H28     1.023   .     S
C17    F18     1.377   .     S
C17    F19     1.370   .     S
C17    F20     1.366   .     S
N29    C30     1.359   .     S
C30    C31     1.414   .     S
C30    N57     1.359   .     D
C31    C32     1.417   .     D
C31    C36     1.417   .     S
C32    C33     1.406   .     S
C32    H49     1.023   .     S
C33    C34     1.413   .     D
C33    H50     1.024   .     S
C34    C35     1.415   .     S
C34    C37     1.409   .     S
C35    C36     1.406   .     D
C35    H51     1.023   .     S
C36    H52     1.023   .     S
C37    N38     1.351   .     D
C37    H53     1.018   .     S
N38    C42     1.358   .     S
C39    C40     1.408   .     D
C39    C44     1.413   .     S
C39    C123    1.414   .     S
C40    C41     1.401   .     S
C40    H54     1.024   .     S
C41    C42     1.413   .     D
C41    H55     1.026   .     S
C42    C43     1.433   .     S
C43    C44     1.421   .     D
C43    C45     1.499   .     S
C44    H56     1.023   .     S
C45    F46     1.377   .     S
C45    F47     1.370   .     S
C45    F48     1.366   .     S
N57    C58     1.359   .     S
C58    C59     1.414   .     S
C59    C60     1.417   .     D
C59    C64     1.417   .     S
C60    C61     1.406   .     S
C60    H77     1.023   .     S
C61    C62     1.413   .     D
C61    H78     1.024   .     S
C62    C63     1.415   .     S
C62    C65     1.409   .     S
C63    C64     1.406   .     D
C63    H79     1.023   .     S
C64    H80     1.023   .     S
C65    N66     1.351   .     D
C65    H81     1.018   .     S
N66    C70     1.358   .     S
C67    C68     1.408   .     D
C67    C72     1.413   .     S
C67    C151    1.414   1_545 S
C68    C69     1.401   .     S
C68    H82     1.024   .     S
C69    C70     1.413   .     D
C69    H83     1.026   .     S
C70    C71     1.433   .     S
C71    C72     1.421   .     D
C71    C73     1.499   .     S
C72    H84     1.023   .     S
C73    F74     1.377   .     S
C73    F75     1.370   .     S
C73    F76     1.366   .     S
N85    C86     1.359   .     D
N85    C142    1.359   .     S
C86    C87     1.414   .     S
C86    N113    1.359   .     S
C87    C88     1.417   .     S
C87    C92     1.417   .     D
C88    C89     1.406   .     D
C88    H105    1.023   .     S
C89    C90     1.413   .     S
C89    H106    1.024   .     S
C90    C91     1.415   .     D
C90    C93     1.409   .     S
C91    C92     1.406   .     S
C91    H107    1.023   .     S
C92    H108    1.023   .     S
C93    N94     1.351   .     D
C93    H109    1.018   .     S
N94    C98     1.358   .     S
C95    C96     1.408   .     S
C95    C100    1.413   .     D
C95    C11     1.414   1_455 S
C96    C97     1.401   .     D
C96    H110    1.024   .     S
C97    C98     1.413   .     S
C97    H111    1.026   .     S
C98    C99     1.433   .     D
C99    C100    1.421   .     S
C99    C101    1.499   .     S
C100   H112    1.023   .     S
C101   F102    1.377   .     S
C101   F103    1.370   .     S
C101   F104    1.366   .     S
N113   C114    1.359   .     D
C114   C115    1.414   .     S
C114   N141    1.359   .     S
C115   C116    1.417   .     D
C115   C120    1.417   .     S
C116   C117    1.406   .     S
C116   H133    1.023   .     S
C117   C118    1.413   .     D
C117   H134    1.024   .     S
C118   C119    1.415   .     S
C118   C121    1.409   .     S
C119   C120    1.406   .     D
C119   H135    1.023   .     S
C120   H136    1.023   .     S
C121   N122    1.351   .     D
C121   H137    1.018   .     S
N122   C126    1.358   .     S
C123   C124    1.408   .     D
C123   C128    1.413   .     S
C124   C125    1.401   .     S
C124   H138    1.024   .     S
C125   C126    1.413   .     D
C125   H139    1.026   .     S
C126   C127    1.433   .     S
C127   C128    1.421   .     D
C127   C129    1.499   .     S
C128   H140    1.023   .     S
C129   F130    1.377   .     S
C129   F131    1.370   .     S
C129   F132    1.366   .     S
N141   C142    1.359   .     D
C142   C143    1.414   .     S
C143   C144    1.417   .     D
C143   C148    1.417   .     S
C144   C145    1.406   .     S
C144   H161    1.023   .     S
C145   C146    1.413   .     D
C145   H162    1.024   .     S
C146   C147    1.415   .     S
C146   C149    1.409   .     S
C147   C148    1.406   .     D
C147   H163    1.023   .     S
C148   H164    1.023   .     S
C149   N150    1.351   .     D
C149   H165    1.018   .     S
N150   C154    1.358   .     S
C151   C152    1.408   .     S
C151   C156    1.413   .     D
C151   C67     1.414   1_565 S
C152   C153    1.401   .     D
C152   H166    1.024   .     S
C153   C154    1.413   .     S
C153   H167    1.026   .     S
C154   C155    1.433   .     D
C155   C156    1.421   .     S
C155   C157    1.499   .     S
C156   H168    1.023   .     S
C157   F158    1.377   .     S
C157   F159    1.370   .     S
C157   F160    1.366   .     S
