data_1122
_audit_creation_date              2023-09-08
_audit_creation_method            'Materials Studio'
_symmetry_space_group_name_H-M    'P1'
_symmetry_Int_Tables_number       1
_symmetry_cell_setting            triclinic
loop_
_symmetry_equiv_pos_as_xyz
  x,y,z
_cell_length_a                    44.3000
_cell_length_b                    44.3000
_cell_length_c                    3.7300
_cell_angle_alpha                 90.0000
_cell_angle_beta                  90.0000
_cell_angle_gamma                 120.0000
loop_
_atom_site_label
_atom_site_type_symbol
_atom_site_fract_x
_atom_site_fract_y
_atom_site_fract_z
_atom_site_U_iso_or_equiv
_atom_site_adp_type
_atom_site_occupancy
N1     N     0.67772   0.31022   0.50181   0.00000  Uiso   1.00
C2     C     0.70194   0.34475   0.50181   0.00000  Uiso   1.00
C3     C     0.73809   0.35645   0.50160   0.00000  Uiso   1.00
C4     C     0.75059   0.33261   0.51341   0.00000  Uiso   1.00
C5     C     0.78650   0.34418   0.51288   0.00000  Uiso   1.00
C6     C     0.81150   0.38011   0.50049   0.00000  Uiso   1.00
C7     C     0.79920   0.40404   0.48879   0.00000  Uiso   1.00
C8     C     0.76326   0.39243   0.48942   0.00000  Uiso   1.00
C9     C     0.84732   0.39087   0.49971   0.00000  Uiso   1.00
N10    N     0.87226   0.42489   0.49252   0.00000  Uiso   1.00
C11    C     0.98169   0.48859   0.48234   0.00000  Uiso   1.00
C12    C     0.95864   0.49999   0.59699   0.00000  Uiso   1.00
C13    C     0.92242   0.47749   0.59253   0.00000  Uiso   1.00
C14    C     0.90767   0.44253   0.47916   0.00000  Uiso   1.00
C15    C     0.93030   0.43029   0.36107   0.00000  Uiso   1.00
C16    C     0.96680   0.45362   0.36508   0.00000  Uiso   1.00
C17    C     0.91759   0.39435   0.22574   0.00000  Uiso   1.00
H18    H     0.73368   0.30632   0.52282   0.00000  Uiso   1.00
H19    H     0.79419   0.32590   0.52169   0.00000  Uiso   1.00
H20    H     0.81626   0.43031   0.47947   0.00000  Uiso   1.00
H21    H     0.75579   0.41085   0.48042   0.00000  Uiso   1.00
H22    H     0.85436   0.37225   0.51064   0.00000  Uiso   1.00
H23    H     0.96799   0.52490   0.68797   0.00000  Uiso   1.00
H24    H     0.90680   0.48706   0.67670   0.00000  Uiso   1.00
H25    H     0.98303   0.44498   0.27644   0.00000  Uiso   1.00
H26    H     0.93779   0.39174   0.08529   0.00000  Uiso   1.00
H27    H     0.89627   0.38711   0.03802   0.00000  Uiso   1.00
H28    H     0.90852   0.37583   0.44665   0.00000  Uiso   1.00
N29    N     0.68978   0.36750   0.50181   0.00000  Uiso   1.00
C30    C     0.65525   0.35719   0.50181   0.00000  Uiso   1.00
C31    C     0.64355   0.38164   0.50160   0.00000  Uiso   1.00
C32    C     0.66739   0.41798   0.51341   0.00000  Uiso   1.00
C33    C     0.65582   0.44232   0.51288   0.00000  Uiso   1.00
C34    C     0.61989   0.43139   0.50049   0.00000  Uiso   1.00
C35    C     0.59596   0.39516   0.48879   0.00000  Uiso   1.00
C36    C     0.60757   0.37083   0.48942   0.00000  Uiso   1.00
C37    C     0.60913   0.45645   0.49971   0.00000  Uiso   1.00
N38    N     0.57511   0.44737   0.49252   0.00000  Uiso   1.00
C39    C     0.51141   0.49310   0.48234   0.00000  Uiso   1.00
C40    C     0.50001   0.45865   0.59699   0.00000  Uiso   1.00
C41    C     0.52251   0.44493   0.59253   0.00000  Uiso   1.00
C42    C     0.55747   0.46514   0.47916   0.00000  Uiso   1.00
C43    C     0.56971   0.50001   0.36107   0.00000  Uiso   1.00
C44    C     0.54638   0.51318   0.36508   0.00000  Uiso   1.00
C45    C     0.60565   0.52324   0.22574   0.00000  Uiso   1.00
H46    H     0.69368   0.42736   0.52282   0.00000  Uiso   1.00
H47    H     0.67410   0.46829   0.52169   0.00000  Uiso   1.00
H48    H     0.56969   0.38595   0.47947   0.00000  Uiso   1.00
H49    H     0.58915   0.34494   0.48042   0.00000  Uiso   1.00
H50    H     0.62775   0.48211   0.51064   0.00000  Uiso   1.00
H51    H     0.47510   0.44309   0.68797   0.00000  Uiso   1.00
H52    H     0.51294   0.41974   0.67670   0.00000  Uiso   1.00
H53    H     0.55502   0.53805   0.27644   0.00000  Uiso   1.00
H54    H     0.60826   0.54605   0.08529   0.00000  Uiso   1.00
H55    H     0.61289   0.50916   0.03802   0.00000  Uiso   1.00
H56    H     0.62417   0.53269   0.44665   0.00000  Uiso   1.00
N57    N     0.63250   0.32228   0.50181   0.00000  Uiso   1.00
C58    C     0.64281   0.29806   0.50181   0.00000  Uiso   1.00
C59    C     0.61836   0.26191   0.50160   0.00000  Uiso   1.00
C60    C     0.58202   0.24941   0.51341   0.00000  Uiso   1.00
C61    C     0.55768   0.21350   0.51288   0.00000  Uiso   1.00
C62    C     0.56861   0.18850   0.50049   0.00000  Uiso   1.00
C63    C     0.60484   0.20080   0.48879   0.00000  Uiso   1.00
C64    C     0.62917   0.23674   0.48942   0.00000  Uiso   1.00
C65    C     0.54355   0.15268   0.49971   0.00000  Uiso   1.00
N66    N     0.55263   0.12774   0.49252   0.00000  Uiso   1.00
C67    C     0.50690   0.01831   0.48234   0.00000  Uiso   1.00
C68    C     0.54135   0.04136   0.59699   0.00000  Uiso   1.00
C69    C     0.55507   0.07758   0.59253   0.00000  Uiso   1.00
C70    C     0.53486   0.09233   0.47916   0.00000  Uiso   1.00
C71    C     0.49999   0.06970   0.36107   0.00000  Uiso   1.00
C72    C     0.48682   0.03320   0.36508   0.00000  Uiso   1.00
C73    C     0.47676   0.08241   0.22574   0.00000  Uiso   1.00
H74    H     0.57264   0.26632   0.52282   0.00000  Uiso   1.00
H75    H     0.53171   0.20581   0.52169   0.00000  Uiso   1.00
H76    H     0.61405   0.18374   0.47947   0.00000  Uiso   1.00
H77    H     0.65506   0.24421   0.48042   0.00000  Uiso   1.00
H78    H     0.51789   0.14564   0.51064   0.00000  Uiso   1.00
H79    H     0.55691   0.03201   0.68797   0.00000  Uiso   1.00
H80    H     0.58026   0.09320   0.67670   0.00000  Uiso   1.00
H81    H     0.46195   0.01697   0.27644   0.00000  Uiso   1.00
H82    H     0.45395   0.06221   0.08529   0.00000  Uiso   1.00
H83    H     0.49084   0.10373   0.03802   0.00000  Uiso   1.00
H84    H     0.46731   0.09148   0.44665   0.00000  Uiso   1.00
N85    N     0.32228   0.68978   0.50181   0.00000  Uiso   1.00
C86    C     0.29806   0.65525   0.50181   0.00000  Uiso   1.00
C87    C     0.26191   0.64355   0.50160   0.00000  Uiso   1.00
C88    C     0.24941   0.66739   0.51341   0.00000  Uiso   1.00
C89    C     0.21350   0.65582   0.51288   0.00000  Uiso   1.00
C90    C     0.18850   0.61989   0.50049   0.00000  Uiso   1.00
C91    C     0.20080   0.59596   0.48879   0.00000  Uiso   1.00
C92    C     0.23674   0.60757   0.48942   0.00000  Uiso   1.00
C93    C     0.15268   0.60913   0.49971   0.00000  Uiso   1.00
N94    N     0.12774   0.57511   0.49252   0.00000  Uiso   1.00
C95    C     0.01831   0.51141   0.48234   0.00000  Uiso   1.00
C96    C     0.04136   0.50001   0.59699   0.00000  Uiso   1.00
C97    C     0.07758   0.52251   0.59253   0.00000  Uiso   1.00
C98    C     0.09233   0.55747   0.47916   0.00000  Uiso   1.00
C99    C     0.06970   0.56971   0.36107   0.00000  Uiso   1.00
C100   C     0.03320   0.54638   0.36508   0.00000  Uiso   1.00
C101   C     0.08241   0.60565   0.22574   0.00000  Uiso   1.00
H102   H     0.26632   0.69368   0.52282   0.00000  Uiso   1.00
H103   H     0.20581   0.67410   0.52169   0.00000  Uiso   1.00
H104   H     0.18374   0.56969   0.47947   0.00000  Uiso   1.00
H105   H     0.24421   0.58915   0.48042   0.00000  Uiso   1.00
H106   H     0.14564   0.62775   0.51064   0.00000  Uiso   1.00
H107   H     0.03201   0.47510   0.68797   0.00000  Uiso   1.00
H108   H     0.09320   0.51294   0.67670   0.00000  Uiso   1.00
H109   H     0.01697   0.55502   0.27644   0.00000  Uiso   1.00
H110   H     0.06221   0.60826   0.08529   0.00000  Uiso   1.00
H111   H     0.10373   0.61289   0.03802   0.00000  Uiso   1.00
H112   H     0.09148   0.62417   0.44665   0.00000  Uiso   1.00
N113   N     0.31022   0.63250   0.50181   0.00000  Uiso   1.00
C114   C     0.34475   0.64281   0.50181   0.00000  Uiso   1.00
C115   C     0.35645   0.61836   0.50160   0.00000  Uiso   1.00
C116   C     0.33261   0.58202   0.51341   0.00000  Uiso   1.00
C117   C     0.34418   0.55768   0.51288   0.00000  Uiso   1.00
C118   C     0.38011   0.56861   0.50049   0.00000  Uiso   1.00
C119   C     0.40404   0.60484   0.48879   0.00000  Uiso   1.00
C120   C     0.39243   0.62917   0.48942   0.00000  Uiso   1.00
C121   C     0.39087   0.54355   0.49971   0.00000  Uiso   1.00
N122   N     0.42489   0.55263   0.49252   0.00000  Uiso   1.00
C123   C     0.48859   0.50690   0.48234   0.00000  Uiso   1.00
C124   C     0.49999   0.54135   0.59699   0.00000  Uiso   1.00
C125   C     0.47749   0.55507   0.59253   0.00000  Uiso   1.00
C126   C     0.44253   0.53486   0.47916   0.00000  Uiso   1.00
C127   C     0.43029   0.49999   0.36107   0.00000  Uiso   1.00
C128   C     0.45362   0.48682   0.36508   0.00000  Uiso   1.00
C129   C     0.39435   0.47676   0.22574   0.00000  Uiso   1.00
H130   H     0.30632   0.57264   0.52282   0.00000  Uiso   1.00
H131   H     0.32590   0.53171   0.52169   0.00000  Uiso   1.00
H132   H     0.43031   0.61405   0.47947   0.00000  Uiso   1.00
H133   H     0.41085   0.65506   0.48042   0.00000  Uiso   1.00
H134   H     0.37225   0.51789   0.51064   0.00000  Uiso   1.00
H135   H     0.52490   0.55691   0.68797   0.00000  Uiso   1.00
H136   H     0.48706   0.58026   0.67670   0.00000  Uiso   1.00
H137   H     0.44498   0.46195   0.27644   0.00000  Uiso   1.00
H138   H     0.39174   0.45395   0.08529   0.00000  Uiso   1.00
H139   H     0.38711   0.49084   0.03802   0.00000  Uiso   1.00
H140   H     0.37583   0.46731   0.44665   0.00000  Uiso   1.00
N141   N     0.36750   0.67772   0.50181   0.00000  Uiso   1.00
C142   C     0.35719   0.70194   0.50181   0.00000  Uiso   1.00
C143   C     0.38164   0.73809   0.50160   0.00000  Uiso   1.00
C144   C     0.41798   0.75059   0.51341   0.00000  Uiso   1.00
C145   C     0.44232   0.78650   0.51288   0.00000  Uiso   1.00
C146   C     0.43139   0.81150   0.50049   0.00000  Uiso   1.00
C147   C     0.39516   0.79920   0.48879   0.00000  Uiso   1.00
C148   C     0.37083   0.76326   0.48942   0.00000  Uiso   1.00
C149   C     0.45645   0.84732   0.49971   0.00000  Uiso   1.00
N150   N     0.44737   0.87226   0.49252   0.00000  Uiso   1.00
C151   C     0.49310   0.98169   0.48234   0.00000  Uiso   1.00
C152   C     0.45865   0.95864   0.59699   0.00000  Uiso   1.00
C153   C     0.44493   0.92242   0.59253   0.00000  Uiso   1.00
C154   C     0.46514   0.90767   0.47916   0.00000  Uiso   1.00
C155   C     0.50001   0.93030   0.36107   0.00000  Uiso   1.00
C156   C     0.51318   0.96680   0.36508   0.00000  Uiso   1.00
C157   C     0.52324   0.91759   0.22574   0.00000  Uiso   1.00
H158   H     0.42736   0.73368   0.52282   0.00000  Uiso   1.00
H159   H     0.46829   0.79419   0.52169   0.00000  Uiso   1.00
H160   H     0.38595   0.81626   0.47947   0.00000  Uiso   1.00
H161   H     0.34494   0.75579   0.48042   0.00000  Uiso   1.00
H162   H     0.48211   0.85436   0.51064   0.00000  Uiso   1.00
H163   H     0.44309   0.96799   0.68797   0.00000  Uiso   1.00
H164   H     0.41974   0.90680   0.67670   0.00000  Uiso   1.00
H165   H     0.53805   0.98303   0.27644   0.00000  Uiso   1.00
H166   H     0.54605   0.93779   0.08529   0.00000  Uiso   1.00
H167   H     0.50916   0.89627   0.03802   0.00000  Uiso   1.00
H168   H     0.53269   0.90852   0.44665   0.00000  Uiso   1.00
loop_
_geom_bond_atom_site_label_1
_geom_bond_atom_site_label_2
_geom_bond_distance
_geom_bond_site_symmetry_2
_ccdc_geom_bond_type
N1     C2      1.360   .     S
N1     C58     1.360   .     D
C2     C3      1.415   .     S
C2     N29     1.360   .     D
C3     C4      1.417   .     S
C3     C8      1.417   .     D
C4     C5      1.406   .     D
C4     H18     1.023   .     S
C5     C6      1.414   .     S
C5     H19     1.024   .     S
C6     C7      1.414   .     D
C6     C9      1.410   .     S
C7     C8      1.407   .     S
C7     H20     1.023   .     S
C8     H21     1.023   .     S
C9     N10     1.352   .     D
C9     H22     1.018   .     S
N10    C14     1.359   .     S
C11    C12     1.413   .     S
C11    C16     1.416   .     D
C11    C95     1.419   1_655 S
C12    C13     1.403   .     D
C12    H23     1.023   .     S
C13    C14     1.412   .     S
C13    H24     1.025   .     S
C14    C15     1.427   .     D
C15    C16     1.418   .     S
C15    C17     1.487   .     S
C16    H25     1.024   .     S
C17    H26     1.092   .     S
C17    H27     1.087   .     S
C17    H28     1.088   .     S
N29    C30     1.360   .     S
C30    C31     1.415   .     S
C30    N57     1.360   .     D
C31    C32     1.417   .     D
C31    C36     1.417   .     S
C32    C33     1.406   .     S
C32    H46     1.023   .     S
C33    C34     1.414   .     D
C33    H47     1.024   .     S
C34    C35     1.414   .     S
C34    C37     1.410   .     S
C35    C36     1.407   .     D
C35    H48     1.023   .     S
C36    H49     1.023   .     S
C37    N38     1.352   .     D
C37    H50     1.018   .     S
N38    C42     1.359   .     S
C39    C40     1.413   .     D
C39    C44     1.416   .     S
C39    C123    1.419   .     S
C40    C41     1.403   .     S
C40    H51     1.023   .     S
C41    C42     1.412   .     D
C41    H52     1.025   .     S
C42    C43     1.427   .     S
C43    C44     1.418   .     D
C43    C45     1.487   .     S
C44    H53     1.024   .     S
C45    H54     1.092   .     S
C45    H55     1.087   .     S
C45    H56     1.088   .     S
N57    C58     1.360   .     S
C58    C59     1.415   .     S
C59    C60     1.417   .     D
C59    C64     1.417   .     S
C60    C61     1.406   .     S
C60    H74     1.023   .     S
C61    C62     1.414   .     D
C61    H75     1.024   .     S
C62    C63     1.414   .     S
C62    C65     1.410   .     S
C63    C64     1.407   .     D
C63    H76     1.023   .     S
C64    H77     1.023   .     S
C65    N66     1.352   .     D
C65    H78     1.018   .     S
N66    C70     1.359   .     S
C67    C68     1.413   .     D
C67    C72     1.416   .     S
C67    C151    1.419   1_545 S
C68    C69     1.403   .     S
C68    H79     1.023   .     S
C69    C70     1.412   .     D
C69    H80     1.025   .     S
C70    C71     1.427   .     S
C71    C72     1.418   .     D
C71    C73     1.487   .     S
C72    H81     1.024   .     S
C73    H82     1.092   .     S
C73    H83     1.087   .     S
C73    H84     1.088   .     S
N85    C86     1.360   .     D
N85    C142    1.360   .     S
C86    C87     1.415   .     S
C86    N113    1.360   .     S
C87    C88     1.417   .     S
C87    C92     1.417   .     D
C88    C89     1.406   .     D
C88    H102    1.023   .     S
C89    C90     1.414   .     S
C89    H103    1.024   .     S
C90    C91     1.414   .     D
C90    C93     1.410   .     S
C91    C92     1.407   .     S
C91    H104    1.023   .     S
C92    H105    1.023   .     S
C93    N94     1.352   .     D
C93    H106    1.018   .     S
N94    C98     1.359   .     S
C95    C96     1.413   .     S
C95    C100    1.416   .     D
C95    C11     1.419   1_455 S
C96    C97     1.403   .     D
C96    H107    1.023   .     S
C97    C98     1.412   .     S
C97    H108    1.025   .     S
C98    C99     1.427   .     D
C99    C100    1.418   .     S
C99    C101    1.487   .     S
C100   H109    1.024   .     S
C101   H110    1.092   .     S
C101   H111    1.087   .     S
C101   H112    1.088   .     S
N113   C114    1.360   .     D
C114   C115    1.415   .     S
C114   N141    1.360   .     S
C115   C116    1.417   .     D
C115   C120    1.417   .     S
C116   C117    1.406   .     S
C116   H130    1.023   .     S
C117   C118    1.414   .     D
C117   H131    1.024   .     S
C118   C119    1.414   .     S
C118   C121    1.410   .     S
C119   C120    1.407   .     D
C119   H132    1.023   .     S
C120   H133    1.023   .     S
C121   N122    1.352   .     D
C121   H134    1.018   .     S
N122   C126    1.359   .     S
C123   C124    1.413   .     D
C123   C128    1.416   .     S
C124   C125    1.403   .     S
C124   H135    1.023   .     S
C125   C126    1.412   .     D
C125   H136    1.025   .     S
C126   C127    1.427   .     S
C127   C128    1.418   .     D
C127   C129    1.487   .     S
C128   H137    1.024   .     S
C129   H138    1.092   .     S
C129   H139    1.087   .     S
C129   H140    1.088   .     S
N141   C142    1.360   .     D
C142   C143    1.415   .     S
C143   C144    1.417   .     D
C143   C148    1.417   .     S
C144   C145    1.406   .     S
C144   H158    1.023   .     S
C145   C146    1.414   .     D
C145   H159    1.024   .     S
C146   C147    1.414   .     S
C146   C149    1.410   .     S
C147   C148    1.407   .     D
C147   H160    1.023   .     S
C148   H161    1.023   .     S
C149   N150    1.352   .     D
C149   H162    1.018   .     S
N150   C154    1.359   .     S
C151   C152    1.413   .     S
C151   C156    1.416   .     D
C151   C67     1.419   1_565 S
C152   C153    1.403   .     D
C152   H163    1.023   .     S
C153   C154    1.412   .     S
C153   H164    1.025   .     S
C154   C155    1.427   .     D
C155   C156    1.418   .     S
C155   C157    1.487   .     S
C156   H165    1.024   .     S
C157   H166    1.092   .     S
C157   H167    1.087   .     S
C157   H168    1.088   .     S
