data_1123
_audit_creation_date              2023-09-08
_audit_creation_method            'Materials Studio'
_symmetry_space_group_name_H-M    'P1'
_symmetry_Int_Tables_number       1
_symmetry_cell_setting            triclinic
loop_
_symmetry_equiv_pos_as_xyz
  x,y,z
_cell_length_a                    44.4500
_cell_length_b                    44.4500
_cell_length_c                    3.5800
_cell_angle_alpha                 90.0000
_cell_angle_beta                  90.0000
_cell_angle_gamma                 120.0000
loop_
_atom_site_label
_atom_site_type_symbol
_atom_site_fract_x
_atom_site_fract_y
_atom_site_fract_z
_atom_site_U_iso_or_equiv
_atom_site_adp_type
_atom_site_occupancy
N1     N     0.67917   0.31149   0.47066   0.00000  Uiso   1.00
C2     C     0.70209   0.34623   0.47077   0.00000  Uiso   1.00
C3     C     0.73841   0.35945   0.47281   0.00000  Uiso   1.00
C4     C     0.75242   0.33718   0.51508   0.00000  Uiso   1.00
C5     C     0.78852   0.35031   0.52032   0.00000  Uiso   1.00
C6     C     0.81215   0.38629   0.48253   0.00000  Uiso   1.00
C7     C     0.79832   0.40864   0.43841   0.00000  Uiso   1.00
C8     C     0.76220   0.39548   0.43402   0.00000  Uiso   1.00
C9     C     0.84820   0.39870   0.49130   0.00000  Uiso   1.00
N10    N     0.87189   0.43258   0.43484   0.00000  Uiso   1.00
C11    C     0.98156   0.48997   0.43593   0.00000  Uiso   1.00
C12    C     0.96084   0.50458   0.32997   0.00000  Uiso   1.00
C13    C     0.92433   0.48483   0.33446   0.00000  Uiso   1.00
C14    C     0.90710   0.44956   0.43922   0.00000  Uiso   1.00
C15    C     0.92739   0.43455   0.54278   0.00000  Uiso   1.00
C16    C     0.96389   0.45449   0.54317   0.00000  Uiso   1.00
H17    H     0.73652   0.31093   0.54429   0.00000  Uiso   1.00
H18    H     0.79736   0.33333   0.55256   0.00000  Uiso   1.00
H19    H     0.81436   0.43487   0.40956   0.00000  Uiso   1.00
H20    H     0.75358   0.41278   0.40136   0.00000  Uiso   1.00
H21    H     0.85662   0.38146   0.54086   0.00000  Uiso   1.00
H22    H     0.97206   0.52988   0.24449   0.00000  Uiso   1.00
H23    H     0.91035   0.49645   0.25792   0.00000  Uiso   1.00
H24    H     0.91597   0.40913   0.62245   0.00000  Uiso   1.00
H25    H     0.97741   0.44265   0.62764   0.00000  Uiso   1.00
N26    N     0.68851   0.36768   0.47066   0.00000  Uiso   1.00
C27    C     0.65377   0.35586   0.47077   0.00000  Uiso   1.00
C28    C     0.64055   0.37896   0.47281   0.00000  Uiso   1.00
C29    C     0.66282   0.41524   0.51508   0.00000  Uiso   1.00
C30    C     0.64969   0.43821   0.52032   0.00000  Uiso   1.00
C31    C     0.61371   0.42586   0.48253   0.00000  Uiso   1.00
C32    C     0.59136   0.38968   0.43841   0.00000  Uiso   1.00
C33    C     0.60452   0.36672   0.43402   0.00000  Uiso   1.00
C34    C     0.60130   0.44950   0.49130   0.00000  Uiso   1.00
N35    N     0.56742   0.43931   0.43484   0.00000  Uiso   1.00
C36    C     0.51003   0.49159   0.43593   0.00000  Uiso   1.00
C37    C     0.49542   0.45626   0.32997   0.00000  Uiso   1.00
C38    C     0.51517   0.43950   0.33446   0.00000  Uiso   1.00
C39    C     0.55044   0.45754   0.43922   0.00000  Uiso   1.00
C40    C     0.56545   0.49284   0.54278   0.00000  Uiso   1.00
C41    C     0.54551   0.50940   0.54317   0.00000  Uiso   1.00
H42    H     0.68907   0.42559   0.54429   0.00000  Uiso   1.00
H43    H     0.66667   0.46403   0.55256   0.00000  Uiso   1.00
H44    H     0.56513   0.37949   0.40956   0.00000  Uiso   1.00
H45    H     0.58722   0.34080   0.40136   0.00000  Uiso   1.00
H46    H     0.61854   0.47516   0.54086   0.00000  Uiso   1.00
H47    H     0.47012   0.44218   0.24449   0.00000  Uiso   1.00
H48    H     0.50355   0.41390   0.25792   0.00000  Uiso   1.00
H49    H     0.59087   0.50684   0.62245   0.00000  Uiso   1.00
H50    H     0.55735   0.53476   0.62764   0.00000  Uiso   1.00
N51    N     0.63232   0.32083   0.47066   0.00000  Uiso   1.00
C52    C     0.64414   0.29791   0.47077   0.00000  Uiso   1.00
C53    C     0.62104   0.26159   0.47281   0.00000  Uiso   1.00
C54    C     0.58476   0.24758   0.51508   0.00000  Uiso   1.00
C55    C     0.56179   0.21148   0.52032   0.00000  Uiso   1.00
C56    C     0.57414   0.18785   0.48253   0.00000  Uiso   1.00
C57    C     0.61032   0.20168   0.43841   0.00000  Uiso   1.00
C58    C     0.63328   0.23780   0.43402   0.00000  Uiso   1.00
C59    C     0.55050   0.15180   0.49130   0.00000  Uiso   1.00
N60    N     0.56069   0.12811   0.43484   0.00000  Uiso   1.00
C61    C     0.50841   0.01844   0.43593   0.00000  Uiso   1.00
C62    C     0.54374   0.03916   0.32997   0.00000  Uiso   1.00
C63    C     0.56050   0.07567   0.33446   0.00000  Uiso   1.00
C64    C     0.54246   0.09290   0.43922   0.00000  Uiso   1.00
C65    C     0.50716   0.07261   0.54278   0.00000  Uiso   1.00
C66    C     0.49060   0.03611   0.54317   0.00000  Uiso   1.00
H67    H     0.57441   0.26348   0.54429   0.00000  Uiso   1.00
H68    H     0.53597   0.20264   0.55256   0.00000  Uiso   1.00
H69    H     0.62051   0.18564   0.40956   0.00000  Uiso   1.00
H70    H     0.65920   0.24642   0.40136   0.00000  Uiso   1.00
H71    H     0.52484   0.14338   0.54086   0.00000  Uiso   1.00
H72    H     0.55782   0.02794   0.24449   0.00000  Uiso   1.00
H73    H     0.58610   0.08965   0.25792   0.00000  Uiso   1.00
H74    H     0.49316   0.08403   0.62245   0.00000  Uiso   1.00
H75    H     0.46524   0.02259   0.62764   0.00000  Uiso   1.00
N76    N     0.32083   0.68851   0.47066   0.00000  Uiso   1.00
C77    C     0.29791   0.65377   0.47077   0.00000  Uiso   1.00
C78    C     0.26159   0.64055   0.47281   0.00000  Uiso   1.00
C79    C     0.24758   0.66282   0.51508   0.00000  Uiso   1.00
C80    C     0.21148   0.64969   0.52032   0.00000  Uiso   1.00
C81    C     0.18785   0.61371   0.48253   0.00000  Uiso   1.00
C82    C     0.20168   0.59136   0.43841   0.00000  Uiso   1.00
C83    C     0.23780   0.60452   0.43402   0.00000  Uiso   1.00
C84    C     0.15180   0.60130   0.49130   0.00000  Uiso   1.00
N85    N     0.12811   0.56742   0.43484   0.00000  Uiso   1.00
C86    C     0.01844   0.51003   0.43593   0.00000  Uiso   1.00
C87    C     0.03916   0.49542   0.32997   0.00000  Uiso   1.00
C88    C     0.07567   0.51517   0.33446   0.00000  Uiso   1.00
C89    C     0.09290   0.55044   0.43922   0.00000  Uiso   1.00
C90    C     0.07261   0.56545   0.54278   0.00000  Uiso   1.00
C91    C     0.03611   0.54551   0.54317   0.00000  Uiso   1.00
H92    H     0.26348   0.68907   0.54429   0.00000  Uiso   1.00
H93    H     0.20264   0.66667   0.55256   0.00000  Uiso   1.00
H94    H     0.18564   0.56513   0.40956   0.00000  Uiso   1.00
H95    H     0.24642   0.58722   0.40136   0.00000  Uiso   1.00
H96    H     0.14338   0.61854   0.54086   0.00000  Uiso   1.00
H97    H     0.02794   0.47012   0.24449   0.00000  Uiso   1.00
H98    H     0.08965   0.50355   0.25792   0.00000  Uiso   1.00
H99    H     0.08403   0.59087   0.62245   0.00000  Uiso   1.00
H100   H     0.02259   0.55735   0.62764   0.00000  Uiso   1.00
N101   N     0.31149   0.63232   0.47066   0.00000  Uiso   1.00
C102   C     0.34623   0.64414   0.47077   0.00000  Uiso   1.00
C103   C     0.35945   0.62104   0.47281   0.00000  Uiso   1.00
C104   C     0.33718   0.58476   0.51508   0.00000  Uiso   1.00
C105   C     0.35031   0.56179   0.52032   0.00000  Uiso   1.00
C106   C     0.38629   0.57414   0.48253   0.00000  Uiso   1.00
C107   C     0.40864   0.61032   0.43841   0.00000  Uiso   1.00
C108   C     0.39548   0.63328   0.43402   0.00000  Uiso   1.00
C109   C     0.39870   0.55050   0.49130   0.00000  Uiso   1.00
N110   N     0.43258   0.56069   0.43484   0.00000  Uiso   1.00
C111   C     0.48997   0.50841   0.43593   0.00000  Uiso   1.00
C112   C     0.50458   0.54374   0.32997   0.00000  Uiso   1.00
C113   C     0.48483   0.56050   0.33446   0.00000  Uiso   1.00
C114   C     0.44956   0.54246   0.43922   0.00000  Uiso   1.00
C115   C     0.43455   0.50716   0.54278   0.00000  Uiso   1.00
C116   C     0.45449   0.49060   0.54317   0.00000  Uiso   1.00
H117   H     0.31093   0.57441   0.54429   0.00000  Uiso   1.00
H118   H     0.33333   0.53597   0.55256   0.00000  Uiso   1.00
H119   H     0.43487   0.62051   0.40956   0.00000  Uiso   1.00
H120   H     0.41278   0.65920   0.40136   0.00000  Uiso   1.00
H121   H     0.38146   0.52484   0.54086   0.00000  Uiso   1.00
H122   H     0.52988   0.55782   0.24449   0.00000  Uiso   1.00
H123   H     0.49645   0.58610   0.25792   0.00000  Uiso   1.00
H124   H     0.40913   0.49316   0.62245   0.00000  Uiso   1.00
H125   H     0.44265   0.46524   0.62764   0.00000  Uiso   1.00
N126   N     0.36768   0.67917   0.47066   0.00000  Uiso   1.00
C127   C     0.35586   0.70209   0.47077   0.00000  Uiso   1.00
C128   C     0.37896   0.73841   0.47281   0.00000  Uiso   1.00
C129   C     0.41524   0.75242   0.51508   0.00000  Uiso   1.00
C130   C     0.43821   0.78852   0.52032   0.00000  Uiso   1.00
C131   C     0.42586   0.81215   0.48253   0.00000  Uiso   1.00
C132   C     0.38968   0.79832   0.43841   0.00000  Uiso   1.00
C133   C     0.36672   0.76220   0.43402   0.00000  Uiso   1.00
C134   C     0.44950   0.84820   0.49130   0.00000  Uiso   1.00
N135   N     0.43931   0.87189   0.43484   0.00000  Uiso   1.00
C136   C     0.49159   0.98156   0.43593   0.00000  Uiso   1.00
C137   C     0.45626   0.96084   0.32997   0.00000  Uiso   1.00
C138   C     0.43950   0.92433   0.33446   0.00000  Uiso   1.00
C139   C     0.45754   0.90710   0.43922   0.00000  Uiso   1.00
C140   C     0.49284   0.92739   0.54278   0.00000  Uiso   1.00
C141   C     0.50940   0.96389   0.54317   0.00000  Uiso   1.00
H142   H     0.42559   0.73652   0.54429   0.00000  Uiso   1.00
H143   H     0.46403   0.79736   0.55256   0.00000  Uiso   1.00
H144   H     0.37949   0.81436   0.40956   0.00000  Uiso   1.00
H145   H     0.34080   0.75358   0.40136   0.00000  Uiso   1.00
H146   H     0.47516   0.85662   0.54086   0.00000  Uiso   1.00
H147   H     0.44218   0.97206   0.24449   0.00000  Uiso   1.00
H148   H     0.41390   0.91035   0.25792   0.00000  Uiso   1.00
H149   H     0.50684   0.91597   0.62245   0.00000  Uiso   1.00
H150   H     0.53476   0.97741   0.62764   0.00000  Uiso   1.00
loop_
_geom_bond_atom_site_label_1
_geom_bond_atom_site_label_2
_geom_bond_distance
_geom_bond_site_symmetry_2
_ccdc_geom_bond_type
N1     C2      1.360   .     S
N1     C52     1.360   .     D
C2     C3      1.415   .     S
C2     N26     1.360   .     D
C3     C4      1.417   .     S
C3     C8      1.417   .     D
C4     C5      1.407   .     D
C4     H17     1.023   .     S
C5     C6      1.414   .     S
C5     H18     1.017   .     S
C6     C7      1.414   .     D
C6     C9      1.410   .     S
C7     C8      1.407   .     S
C7     H19     1.023   .     S
C8     H20     1.023   .     S
C9     N10     1.353   .     D
C9     H21     1.023   .     S
N10    C14     1.356   .     S
C11    C12     1.418   .     S
C11    C16     1.419   .     D
C11    C86     1.422   1_655 S
C12    C13     1.407   .     D
C12    H22     1.023   .     S
C13    C14     1.409   .     S
C13    H23     1.024   .     S
C14    C15     1.413   .     D
C15    C16     1.407   .     S
C15    H24     1.021   .     S
C16    H25     1.023   .     S
N26    C27     1.360   .     S
C27    C28     1.415   .     S
C27    N51     1.360   .     D
C28    C29     1.417   .     D
C28    C33     1.417   .     S
C29    C30     1.407   .     S
C29    H42     1.023   .     S
C30    C31     1.414   .     D
C30    H43     1.017   .     S
C31    C32     1.414   .     S
C31    C34     1.410   .     S
C32    C33     1.407   .     D
C32    H44     1.023   .     S
C33    H45     1.023   .     S
C34    N35     1.353   .     D
C34    H46     1.023   .     S
N35    C39     1.356   .     S
C36    C37     1.418   .     D
C36    C41     1.419   .     S
C36    C111    1.422   .     S
C37    C38     1.407   .     S
C37    H47     1.023   .     S
C38    C39     1.409   .     D
C38    H48     1.024   .     S
C39    C40     1.413   .     S
C40    C41     1.407   .     D
C40    H49     1.021   .     S
C41    H50     1.023   .     S
N51    C52     1.360   .     S
C52    C53     1.415   .     S
C53    C54     1.417   .     D
C53    C58     1.417   .     S
C54    C55     1.407   .     S
C54    H67     1.023   .     S
C55    C56     1.414   .     D
C55    H68     1.017   .     S
C56    C57     1.414   .     S
C56    C59     1.410   .     S
C57    C58     1.407   .     D
C57    H69     1.023   .     S
C58    H70     1.023   .     S
C59    N60     1.353   .     D
C59    H71     1.023   .     S
N60    C64     1.356   .     S
C61    C62     1.418   .     D
C61    C66     1.419   .     S
C61    C136    1.422   1_545 S
C62    C63     1.407   .     S
C62    H72     1.023   .     S
C63    C64     1.409   .     D
C63    H73     1.024   .     S
C64    C65     1.413   .     S
C65    C66     1.407   .     D
C65    H74     1.021   .     S
C66    H75     1.023   .     S
N76    C77     1.360   .     D
N76    C127    1.360   .     S
C77    C78     1.415   .     S
C77    N101    1.360   .     S
C78    C79     1.417   .     S
C78    C83     1.417   .     D
C79    C80     1.407   .     D
C79    H92     1.023   .     S
C80    C81     1.414   .     S
C80    H93     1.017   .     S
C81    C82     1.414   .     D
C81    C84     1.410   .     S
C82    C83     1.407   .     S
C82    H94     1.023   .     S
C83    H95     1.023   .     S
C84    N85     1.353   .     D
C84    H96     1.023   .     S
N85    C89     1.356   .     S
C86    C87     1.418   .     S
C86    C91     1.419   .     D
C86    C11     1.422   1_455 S
C87    C88     1.407   .     D
C87    H97     1.023   .     S
C88    C89     1.409   .     S
C88    H98     1.024   .     S
C89    C90     1.413   .     D
C90    C91     1.407   .     S
C90    H99     1.021   .     S
C91    H100    1.023   .     S
N101   C102    1.360   .     D
C102   C103    1.415   .     S
C102   N126    1.360   .     S
C103   C104    1.417   .     D
C103   C108    1.417   .     S
C104   C105    1.407   .     S
C104   H117    1.023   .     S
C105   C106    1.414   .     D
C105   H118    1.017   .     S
C106   C107    1.414   .     S
C106   C109    1.410   .     S
C107   C108    1.407   .     D
C107   H119    1.023   .     S
C108   H120    1.023   .     S
C109   N110    1.353   .     D
C109   H121    1.023   .     S
N110   C114    1.356   .     S
C111   C112    1.418   .     D
C111   C116    1.419   .     S
C112   C113    1.407   .     S
C112   H122    1.023   .     S
C113   C114    1.409   .     D
C113   H123    1.024   .     S
C114   C115    1.413   .     S
C115   C116    1.407   .     D
C115   H124    1.021   .     S
C116   H125    1.023   .     S
N126   C127    1.360   .     D
C127   C128    1.415   .     S
C128   C129    1.417   .     D
C128   C133    1.417   .     S
C129   C130    1.407   .     S
C129   H142    1.023   .     S
C130   C131    1.414   .     D
C130   H143    1.017   .     S
C131   C132    1.414   .     S
C131   C134    1.410   .     S
C132   C133    1.407   .     D
C132   H144    1.023   .     S
C133   H145    1.023   .     S
C134   N135    1.353   .     D
C134   H146    1.023   .     S
N135   C139    1.356   .     S
C136   C137    1.418   .     S
C136   C141    1.419   .     D
C136   C61     1.422   1_565 S
C137   C138    1.407   .     D
C137   H147    1.023   .     S
C138   C139    1.409   .     S
C138   H148    1.024   .     S
C139   C140    1.413   .     D
C140   C141    1.407   .     S
C140   H149    1.021   .     S
C141   H150    1.023   .     S
