data_1124
_audit_creation_date              2023-09-08
_audit_creation_method            'Materials Studio'
_symmetry_space_group_name_H-M    'P1'
_symmetry_Int_Tables_number       1
_symmetry_cell_setting            triclinic
loop_
_symmetry_equiv_pos_as_xyz
  x,y,z
_cell_length_a                    37.6426
_cell_length_b                    37.6426
_cell_length_c                    4.5032
_cell_angle_alpha                 90.0000
_cell_angle_beta                  90.0000
_cell_angle_gamma                 120.0000
loop_
_atom_site_label
_atom_site_type_symbol
_atom_site_fract_x
_atom_site_fract_y
_atom_site_fract_z
_atom_site_U_iso_or_equiv
_atom_site_adp_type
_atom_site_occupancy
C1     C     0.28990   0.64242   0.58141   0.00000  Uiso   1.00
C2     C     0.31441   0.62385   0.58117   0.00000  Uiso   1.00
C3     C     0.24399   0.61681   0.58499   0.00000  Uiso   1.00
C4     C     0.37296   0.59238   0.40807   0.00000  Uiso   1.00
C5     C     0.39651   0.57319   0.41280   0.00000  Uiso   1.00
C6     C     0.43165   0.58843   0.59626   0.00000  Uiso   1.00
C7     C     0.44259   0.62379   0.76874   0.00000  Uiso   1.00
C8     C     0.41853   0.64237   0.76558   0.00000  Uiso   1.00
N1     N     0.45788   0.57160   0.59907   0.00000  Uiso   1.00
C9     C     0.44430   0.53237   0.59826   0.00000  Uiso   1.00
C10    C     0.47254   0.51586   0.59083   0.00000  Uiso   1.00
C11    C     0.45732   0.47279   0.58163   0.00000  Uiso   1.00
C12    C     0.48451   0.45745   0.59053   0.00000  Uiso   1.00
O1     O     0.41532   0.44800   0.56591   0.00000  Uiso   1.00
C13    C     0.60254   0.59418   0.48159   0.00000  Uiso   1.00
H1     H     0.29938   0.58899   0.58077   0.00000  Uiso   1.00
H2     H     0.34476   0.58000   0.25907   0.00000  Uiso   1.00
H3     H     0.38747   0.54507   0.26831   0.00000  Uiso   1.00
H4     H     0.47136   0.63742   0.91249   0.00000  Uiso   1.00
H5     H     0.42723   0.67038   0.91053   0.00000  Uiso   1.00
H6     H     0.40988   0.50986   0.60335   0.00000  Uiso   1.00
H7     H     0.47205   0.42294   0.59768   0.00000  Uiso   1.00
H8     H     0.58355   0.59733   0.29720   0.00000  Uiso   1.00
C14    C     0.64637   0.60879   0.36853   0.00000  Uiso   1.00
H9     H     0.60391   0.61351   0.68082   0.00000  Uiso   1.00
C15    C     0.66909   0.65480   0.28088   0.00000  Uiso   1.00
P1     P     0.72126   0.67406   0.11293   0.00000  Uiso   1.00
O2     O     0.73389   0.71917  -0.00858   0.00000  Uiso   1.00
O3     O     0.75386   0.68292   0.36412   0.00000  Uiso   1.00
O4     O     0.72108   0.64805  -0.13729   0.00000  Uiso   1.00
H10    H     0.64468   0.58973   0.16666   0.00000  Uiso   1.00
H11    H     0.66485   0.60432   0.55035   0.00000  Uiso   1.00
H12    H     0.67250   0.67376   0.48743   0.00000  Uiso   1.00
H13    H     0.65011   0.66046   0.11008   0.00000  Uiso   1.00
H14    H     0.70972   0.72655   0.05190   0.00000  Uiso   1.00
H15    H     0.74569   0.69420   0.56604   0.00000  Uiso   1.00
C16    C     0.35758   0.64748   0.58141   0.00000  Uiso   1.00
C17    C     0.37615   0.69056   0.58117   0.00000  Uiso   1.00
C18    C     0.38319   0.62718   0.58499   0.00000  Uiso   1.00
C19    C     0.40762   0.78058   0.40807   0.00000  Uiso   1.00
C20    C     0.42681   0.82332   0.41280   0.00000  Uiso   1.00
C21    C     0.41157   0.84322   0.59626   0.00000  Uiso   1.00
C22    C     0.37621   0.81880   0.76874   0.00000  Uiso   1.00
C23    C     0.35763   0.77616   0.76558   0.00000  Uiso   1.00
N2     N     0.42840   0.88628   0.59907   0.00000  Uiso   1.00
C24    C     0.46763   0.91193   0.59826   0.00000  Uiso   1.00
C25    C     0.48414   0.95668   0.59083   0.00000  Uiso   1.00
C26    C     0.52721   0.98453   0.58163   0.00000  Uiso   1.00
C27    C     0.54255   0.02706   0.59053   0.00000  Uiso   1.00
O5     O     0.55200   0.96732   0.56591   0.00000  Uiso   1.00
C28    C     0.40582   0.00836   0.48159   0.00000  Uiso   1.00
H16    H     0.41101   0.71039   0.58077   0.00000  Uiso   1.00
H17    H     0.42000   0.76476   0.25907   0.00000  Uiso   1.00
H18    H     0.45493   0.84241   0.26831   0.00000  Uiso   1.00
H19    H     0.36258   0.83394   0.91249   0.00000  Uiso   1.00
H20    H     0.32962   0.75685   0.91053   0.00000  Uiso   1.00
H21    H     0.49014   0.90002   0.60335   0.00000  Uiso   1.00
H22    H     0.57706   0.04911   0.59768   0.00000  Uiso   1.00
H23    H     0.40267   0.98621   0.29720   0.00000  Uiso   1.00
C29    C     0.39121   0.03758   0.36853   0.00000  Uiso   1.00
H24    H     0.38649   0.99040   0.68082   0.00000  Uiso   1.00
C30    C     0.34520   0.01429   0.28088   0.00000  Uiso   1.00
P2     P     0.32594   0.04720   0.11293   0.00000  Uiso   1.00
O6     O     0.28083   0.01472  -0.00858   0.00000  Uiso   1.00
O7     O     0.31708   0.07094   0.36412   0.00000  Uiso   1.00
O8     O     0.35195   0.07303  -0.13729   0.00000  Uiso   1.00
H25    H     0.41027   0.05495   0.16666   0.00000  Uiso   1.00
H26    H     0.39568   0.06053   0.55035   0.00000  Uiso   1.00
H27    H     0.32624   0.99873   0.48743   0.00000  Uiso   1.00
H28    H     0.33954   0.98965   0.11008   0.00000  Uiso   1.00
H29    H     0.25749   0.01875   0.11380   0.00000  Uiso   1.00
H30    H     0.34656   0.09589   0.45316   0.00000  Uiso   1.00
C31    C     0.35252   0.71010   0.58141   0.00000  Uiso   1.00
C32    C     0.30944   0.68559   0.58117   0.00000  Uiso   1.00
C33    C     0.37282   0.75601   0.58499   0.00000  Uiso   1.00
C34    C     0.21942   0.62704   0.40807   0.00000  Uiso   1.00
C35    C     0.17668   0.60349   0.41280   0.00000  Uiso   1.00
C36    C     0.15678   0.56835   0.59626   0.00000  Uiso   1.00
C37    C     0.18120   0.55741   0.76874   0.00000  Uiso   1.00
C38    C     0.22384   0.58147   0.76558   0.00000  Uiso   1.00
N3     N     0.11372   0.54212   0.59907   0.00000  Uiso   1.00
C39    C     0.08807   0.55570   0.59826   0.00000  Uiso   1.00
C40    C     0.04332   0.52746   0.59083   0.00000  Uiso   1.00
C41    C     0.01547   0.54268   0.58163   0.00000  Uiso   1.00
C42    C     0.97294   0.51549   0.59053   0.00000  Uiso   1.00
O9     O     0.03268   0.58468   0.56591   0.00000  Uiso   1.00
C43    C     0.99164   0.39746   0.48159   0.00000  Uiso   1.00
H31    H     0.28961   0.70062   0.58077   0.00000  Uiso   1.00
H32    H     0.23524   0.65524   0.25907   0.00000  Uiso   1.00
H33    H     0.15759   0.61253   0.26831   0.00000  Uiso   1.00
H34    H     0.16606   0.52864   0.91249   0.00000  Uiso   1.00
H35    H     0.24315   0.57277   0.91053   0.00000  Uiso   1.00
H36    H     0.09998   0.59012   0.60335   0.00000  Uiso   1.00
H37    H     0.95089   0.52795   0.59768   0.00000  Uiso   1.00
H38    H     0.01379   0.41645   0.29720   0.00000  Uiso   1.00
C44    C     0.96242   0.35363   0.36853   0.00000  Uiso   1.00
H39    H     0.00960   0.39609   0.68082   0.00000  Uiso   1.00
C45    C     0.98571   0.33091   0.28088   0.00000  Uiso   1.00
P3     P     0.95280   0.27874   0.11293   0.00000  Uiso   1.00
O10    O     0.98528   0.26611  -0.00858   0.00000  Uiso   1.00
O11    O     0.92906   0.24614   0.36412   0.00000  Uiso   1.00
O12    O     0.92697   0.27892  -0.13729   0.00000  Uiso   1.00
H40    H     0.94505   0.35532   0.16666   0.00000  Uiso   1.00
H41    H     0.93947   0.33515   0.55035   0.00000  Uiso   1.00
H42    H     0.00127   0.32750   0.48743   0.00000  Uiso   1.00
H43    H     0.01035   0.34989   0.11008   0.00000  Uiso   1.00
H44    H     1.01640   0.28833   0.07457   0.00000  Uiso   1.00
H45    H     0.93329   0.26211   0.57953   0.00000  Uiso   1.00
C46    C     0.71010   0.35758   0.58141   0.00000  Uiso   1.00
C47    C     0.68559   0.37615   0.58117   0.00000  Uiso   1.00
C48    C     0.75601   0.38319   0.58499   0.00000  Uiso   1.00
C49    C     0.62704   0.40762   0.40807   0.00000  Uiso   1.00
C50    C     0.60349   0.42681   0.41280   0.00000  Uiso   1.00
C51    C     0.56835   0.41157   0.59626   0.00000  Uiso   1.00
C52    C     0.55741   0.37621   0.76874   0.00000  Uiso   1.00
C53    C     0.58147   0.35763   0.76558   0.00000  Uiso   1.00
N4     N     0.54212   0.42840   0.59907   0.00000  Uiso   1.00
C54    C     0.55570   0.46763   0.59826   0.00000  Uiso   1.00
C55    C     0.52746   0.48414   0.59083   0.00000  Uiso   1.00
C56    C     0.54268   0.52721   0.58163   0.00000  Uiso   1.00
C57    C     0.51549   0.54255   0.59053   0.00000  Uiso   1.00
O13    O     0.58468   0.55200   0.56591   0.00000  Uiso   1.00
C58    C     0.39746   0.40582   0.48159   0.00000  Uiso   1.00
H46    H     0.70062   0.41101   0.58077   0.00000  Uiso   1.00
H47    H     0.65524   0.42000   0.25907   0.00000  Uiso   1.00
H48    H     0.61253   0.45493   0.26831   0.00000  Uiso   1.00
H49    H     0.52864   0.36258   0.91249   0.00000  Uiso   1.00
H50    H     0.57277   0.32962   0.91053   0.00000  Uiso   1.00
H51    H     0.59012   0.49014   0.60335   0.00000  Uiso   1.00
H52    H     0.52795   0.57706   0.59768   0.00000  Uiso   1.00
H53    H     0.41645   0.40267   0.29720   0.00000  Uiso   1.00
C59    C     0.35363   0.39121   0.36853   0.00000  Uiso   1.00
H54    H     0.39609   0.38649   0.68082   0.00000  Uiso   1.00
C60    C     0.33091   0.34520   0.28088   0.00000  Uiso   1.00
P4     P     0.27874   0.32594   0.11293   0.00000  Uiso   1.00
O14    O     0.26611   0.28083  -0.00858   0.00000  Uiso   1.00
O15    O     0.24614   0.31708   0.36412   0.00000  Uiso   1.00
O16    O     0.27892   0.35195  -0.13729   0.00000  Uiso   1.00
H55    H     0.35532   0.41027   0.16666   0.00000  Uiso   1.00
H56    H     0.33515   0.39568   0.55035   0.00000  Uiso   1.00
H57    H     0.32750   0.32624   0.48743   0.00000  Uiso   1.00
H58    H     0.34989   0.33954   0.11008   0.00000  Uiso   1.00
H59    H     0.23238   0.26054   0.00932   0.00000  Uiso   1.00
H60    H     0.26047   0.34032   0.54284   0.00000  Uiso   1.00
C61    C     0.64242   0.35252   0.58141   0.00000  Uiso   1.00
C62    C     0.62385   0.30944   0.58117   0.00000  Uiso   1.00
C63    C     0.61681   0.37282   0.58499   0.00000  Uiso   1.00
C64    C     0.59238   0.21942   0.40807   0.00000  Uiso   1.00
C65    C     0.57319   0.17668   0.41280   0.00000  Uiso   1.00
C66    C     0.58843   0.15678   0.59626   0.00000  Uiso   1.00
C67    C     0.62379   0.18120   0.76874   0.00000  Uiso   1.00
C68    C     0.64237   0.22384   0.76558   0.00000  Uiso   1.00
N5     N     0.57160   0.11372   0.59907   0.00000  Uiso   1.00
C69    C     0.53237   0.08807   0.59826   0.00000  Uiso   1.00
C70    C     0.51586   0.04332   0.59083   0.00000  Uiso   1.00
C71    C     0.47279   0.01547   0.58163   0.00000  Uiso   1.00
C72    C     0.45745   0.97294   0.59053   0.00000  Uiso   1.00
O17    O     0.44800   0.03268   0.56591   0.00000  Uiso   1.00
C73    C     0.59418   0.99164   0.48159   0.00000  Uiso   1.00
H61    H     0.58899   0.28961   0.58077   0.00000  Uiso   1.00
H62    H     0.58000   0.23524   0.25907   0.00000  Uiso   1.00
H63    H     0.54507   0.15759   0.26831   0.00000  Uiso   1.00
H64    H     0.63742   0.16606   0.91249   0.00000  Uiso   1.00
H65    H     0.67038   0.24315   0.91053   0.00000  Uiso   1.00
H66    H     0.50986   0.09998   0.60335   0.00000  Uiso   1.00
H67    H     0.42294   0.95089   0.59768   0.00000  Uiso   1.00
H68    H     0.59733   0.01379   0.29720   0.00000  Uiso   1.00
C74    C     0.60879   0.96242   0.36853   0.00000  Uiso   1.00
H69    H     0.61351   0.00960   0.68082   0.00000  Uiso   1.00
C75    C     0.65480   0.98571   0.28088   0.00000  Uiso   1.00
P5     P     0.67406   0.95280   0.11293   0.00000  Uiso   1.00
O18    O     0.71917   0.98528  -0.00858   0.00000  Uiso   1.00
O19    O     0.68292   0.92906   0.36412   0.00000  Uiso   1.00
O20    O     0.64805   0.92697  -0.13729   0.00000  Uiso   1.00
H70    H     0.58973   0.94505   0.16666   0.00000  Uiso   1.00
H71    H     0.60432   0.93947   0.55035   0.00000  Uiso   1.00
H72    H     0.67376   0.00127   0.48743   0.00000  Uiso   1.00
H73    H     0.66046   0.01035   0.11008   0.00000  Uiso   1.00
H74    H     0.73219   1.01366   0.12730   0.00000  Uiso   1.00
H75    H     0.67952   0.94012   0.58497   0.00000  Uiso   1.00
C76    C     0.64748   0.28990   0.58141   0.00000  Uiso   1.00
C77    C     0.69056   0.31441   0.58117   0.00000  Uiso   1.00
C78    C     0.62718   0.24399   0.58499   0.00000  Uiso   1.00
C79    C     0.78058   0.37296   0.40807   0.00000  Uiso   1.00
C80    C     0.82332   0.39651   0.41280   0.00000  Uiso   1.00
C81    C     0.84322   0.43165   0.59626   0.00000  Uiso   1.00
C82    C     0.81880   0.44259   0.76874   0.00000  Uiso   1.00
C83    C     0.77616   0.41853   0.76558   0.00000  Uiso   1.00
N6     N     0.88628   0.45788   0.59907   0.00000  Uiso   1.00
C84    C     0.91193   0.44430   0.59826   0.00000  Uiso   1.00
C85    C     0.95668   0.47254   0.59083   0.00000  Uiso   1.00
C86    C     0.98453   0.45732   0.58163   0.00000  Uiso   1.00
C87    C     0.02706   0.48451   0.59053   0.00000  Uiso   1.00
O21    O     0.96732   0.41532   0.56591   0.00000  Uiso   1.00
C88    C     0.00836   0.60254   0.48159   0.00000  Uiso   1.00
H76    H     0.71039   0.29938   0.58077   0.00000  Uiso   1.00
H77    H     0.76476   0.34476   0.25907   0.00000  Uiso   1.00
H78    H     0.84241   0.38747   0.26831   0.00000  Uiso   1.00
H79    H     0.83394   0.47136   0.91249   0.00000  Uiso   1.00
H80    H     0.75685   0.42723   0.91053   0.00000  Uiso   1.00
H81    H     0.90002   0.40988   0.60335   0.00000  Uiso   1.00
H82    H     0.04911   0.47205   0.59768   0.00000  Uiso   1.00
H83    H     0.98621   0.58355   0.29720   0.00000  Uiso   1.00
C89    C     0.03758   0.64637   0.36853   0.00000  Uiso   1.00
H84    H     0.99040   0.60391   0.68082   0.00000  Uiso   1.00
C90    C     0.01429   0.66909   0.28088   0.00000  Uiso   1.00
P6     P     0.04720   0.72126   0.11293   0.00000  Uiso   1.00
O22    O     0.01472   0.73389  -0.00858   0.00000  Uiso   1.00
O23    O     0.07094   0.75386   0.36412   0.00000  Uiso   1.00
O24    O     0.07303   0.72108  -0.13729   0.00000  Uiso   1.00
H85    H     0.05495   0.64468   0.16666   0.00000  Uiso   1.00
H86    H     0.06053   0.66485   0.55035   0.00000  Uiso   1.00
H87    H     0.99873   0.67250   0.48743   0.00000  Uiso   1.00
H88    H     0.98965   0.65011   0.11008   0.00000  Uiso   1.00
H89    H     0.01815   0.76072   0.11814   0.00000  Uiso   1.00
H90    H     0.04865   0.75735   0.50470   0.00000  Uiso   1.00
loop_
_geom_bond_atom_site_label_1
_geom_bond_atom_site_label_2
_geom_bond_distance
_geom_bond_site_symmetry_2
_ccdc_geom_bond_type
C1     C32     1.409   .     D
C1     C2      1.409   .     S
C1     C3      1.500   .     S
C2     C16     1.409   .     D
C2     H1      1.140   .     S
C3     C38     1.413   .     S
C3     C34     1.412   .     D
C4     C5      1.396   .     S
C4     H2      1.140   .     S
C4     C18     1.412   .     D
C5     H3      1.140   .     S
C5     C6      1.415   .     D
C6     N1      1.415   .     S
C6     C7      1.413   .     S
C7     C8      1.394   .     D
C7     H4      1.140   .     S
C8     H5      1.140   .     S
C8     C18     1.413   .     S
N1     C9      1.299   .     D
C9     H6      1.140   .     S
C9     C10     1.476   .     S
C10    C11     1.425   .     S
C10    C57     1.414   .     D
C11    C12     1.405   .     D
C11    O1      1.378   .     S
C12    H7      1.140   .     S
C12    C55     1.414   .     S
O1     C58     1.432   .     S
C13    H8      1.140   .     S
C13    C14     1.542   .     S
C13    H9      1.140   .     S
C13    O13     1.432   .     S
C14    H10     1.140   .     S
C14    H11     1.140   .     S
C14    C15     1.551   .     S
C15    P1      1.879   .     S
C15    H12     1.140   .     S
C15    H13     1.140   .     S
P1     O3      1.577   .     S
P1     O2      1.613   .     S
P1     O4      1.491   .     D
O2     H14     1.110   .     S
O3     H15     1.110   .     S
C16    C17     1.409   .     S
C16    C18     1.500   .     S
C17    H16     1.140   .     S
C17    C31     1.409   .     D
C19    C20     1.396   .     S
C19    H17     1.140   .     S
C19    C33     1.412   .     D
C20    H18     1.140   .     S
C20    C21     1.415   .     D
C21    C22     1.413   .     S
C21    N2      1.415   .     S
C22    C23     1.394   .     D
C22    H19     1.140   .     S
C23    H20     1.140   .     S
C23    C33     1.413   .     S
N2     C24     1.299   .     D
C24    H21     1.140   .     S
C24    C25     1.476   .     S
C25    C26     1.425   .     D
C25    C72     1.414   .     S
C26    O5      1.378   .     S
C26    C27     1.405   1_565 S
C27    C70     1.414   .     D
C27    H22     1.140   .     S
C27    C26     1.405   1_545 S
O5     C73     1.432   .     S
C28    C29     1.542   .     S
C28    O17     1.432   .     S
C28    H23     1.140   1_545 S
C28    H24     1.140   1_545 S
H23    C28     1.140   1_565 S
C29    C30     1.551   .     S
C29    H25     1.140   .     S
C29    H26     1.140   .     S
H24    C28     1.140   1_565 S
C30    P2      1.879   .     S
C30    H27     1.140   1_545 S
C30    H28     1.140   1_545 S
P2     O7      1.577   .     S
P2     O6      1.613   .     S
P2     O8      1.491   .     D
O6     H29     1.110   .     S
O7     H30     1.110   .     S
H27    C30     1.140   1_565 S
H28    C30     1.140   1_565 S
C31    C33     1.500   .     S
C31    C32     1.409   .     S
C32    H31     1.140   .     S
C34    H32     1.140   .     S
C34    C35     1.396   .     S
C35    H33     1.140   .     S
C35    C36     1.415   .     D
C36    C37     1.413   .     S
C36    N3      1.415   .     S
C37    C38     1.394   .     D
C37    H34     1.140   .     S
C38    H35     1.140   .     S
N3     C39     1.299   .     D
C39    H36     1.140   .     S
C39    C40     1.476   .     S
C40    C41     1.425   .     S
C40    C87     1.414   .     D
C41    O9      1.378   .     S
C41    C42     1.405   1_455 D
C42    H37     1.140   .     S
C42    C85     1.414   .     S
C42    C41     1.405   1_655 D
O9     C88     1.432   .     S
C43    C44     1.542   .     S
C43    O21     1.432   .     S
C43    H38     1.140   1_655 S
C43    H39     1.140   1_655 S
H38    C43     1.140   1_455 S
C44    H40     1.140   .     S
C44    H41     1.140   .     S
C44    C45     1.551   .     S
H39    C43     1.140   1_455 S
C45    P3      1.879   .     S
C45    H42     1.140   1_655 S
C45    H43     1.140   1_655 S
P3     O11     1.577   .     S
P3     O10     1.613   .     S
P3     O12     1.491   .     D
O10    H44     1.110   .     S
O11    H45     1.110   .     S
H42    C45     1.140   1_455 S
H43    C45     1.140   1_455 S
C46    C47     1.409   .     S
C46    C77     1.409   .     D
C46    C48     1.500   .     S
C47    C61     1.409   .     D
C47    H46     1.140   .     S
C48    C83     1.413   .     S
C48    C79     1.412   .     D
C49    H47     1.140   .     S
C49    C50     1.396   .     D
C49    C63     1.412   .     S
C50    H48     1.140   .     S
C50    C51     1.415   .     S
C51    N4      1.415   .     S
C51    C52     1.413   .     D
C52    C53     1.394   .     S
C52    H49     1.140   .     S
C53    H50     1.140   .     S
C53    C63     1.413   .     D
N4     C54     1.299   .     D
C54    C55     1.476   .     S
C54    H51     1.140   .     S
C55    C56     1.425   .     D
C56    C57     1.405   .     S
C56    O13     1.378   .     S
C57    H52     1.140   .     S
C58    C59     1.542   .     S
C58    H53     1.140   .     S
C58    H54     1.140   .     S
C59    H55     1.140   .     S
C59    H56     1.140   .     S
C59    C60     1.551   .     S
C60    H57     1.140   .     S
C60    H58     1.140   .     S
C60    P4      1.879   .     S
P4     O15     1.577   .     S
P4     O16     1.491   .     D
P4     O14     1.613   .     S
O14    H59     1.110   .     S
O15    H60     1.110   .     S
C61    C63     1.500   .     S
C61    C62     1.409   .     S
C62    H61     1.140   .     S
C62    C76     1.409   .     D
C64    C65     1.396   .     S
C64    H62     1.140   .     S
C64    C78     1.412   .     D
C65    H63     1.140   .     S
C65    C66     1.415   .     D
C66    C67     1.413   .     S
C66    N5      1.415   .     S
C67    C68     1.394   .     D
C67    H64     1.140   .     S
C68    C78     1.413   .     S
C68    H65     1.140   .     S
N5     C69     1.299   .     D
C69    H66     1.140   .     S
C69    C70     1.476   .     S
C70    C71     1.425   .     S
C71    O17     1.378   .     S
C71    C72     1.405   1_545 D
C72    H67     1.140   .     S
C72    C71     1.405   1_565 D
C73    C74     1.542   .     S
C73    H68     1.140   1_565 S
C73    H69     1.140   1_565 S
H68    C73     1.140   1_545 S
C74    H70     1.140   .     S
C74    C75     1.551   .     S
C74    H71     1.140   .     S
H69    C73     1.140   1_545 S
C75    P5      1.879   .     S
C75    H72     1.140   1_565 S
C75    H73     1.140   1_565 S
P5     O19     1.577   .     S
P5     O18     1.613   .     S
P5     O20     1.491   .     D
O18    H74     1.110   .     S
O19    H75     1.110   .     S
H72    C75     1.140   1_545 S
H73    C75     1.140   1_545 S
C76    C78     1.500   .     S
C76    C77     1.409   .     S
C77    H76     1.140   .     S
C79    H77     1.140   .     S
C79    C80     1.396   .     S
C80    H78     1.140   .     S
C80    C81     1.415   .     D
C81    N6      1.415   .     S
C81    C82     1.413   .     S
C82    C83     1.394   .     D
C82    H79     1.140   .     S
C83    H80     1.140   .     S
N6     C84     1.299   .     D
C84    H81     1.140   .     S
C84    C85     1.476   .     S
C85    C86     1.425   .     D
C86    O21     1.378   .     S
C86    C87     1.405   1_655 S
C87    H82     1.140   .     S
C87    C86     1.405   1_455 S
C88    C89     1.542   .     S
C88    H83     1.140   1_455 S
C88    H84     1.140   1_455 S
H83    C88     1.140   1_655 S
C89    C90     1.551   .     S
C89    H86     1.140   .     S
C89    H85     1.140   .     S
H84    C88     1.140   1_655 S
C90    P6      1.879   .     S
C90    H87     1.140   1_455 S
C90    H88     1.140   1_455 S
P6     O23     1.577   .     S
P6     O24     1.491   .     D
P6     O22     1.613   .     S
O22    H89     1.110   .     S
O23    H90     1.110   .     S
H87    C90     1.140   1_655 S
H88    C90     1.140   1_655 S
