data_1125
_audit_creation_date              2023-09-08
_audit_creation_method            'Materials Studio'
_symmetry_space_group_name_H-M    'P1'
_symmetry_Int_Tables_number       1
_symmetry_cell_setting            triclinic
loop_
_symmetry_equiv_pos_as_xyz
  x,y,z
_cell_length_a                    25.3600
_cell_length_b                    29.8000
_cell_length_c                    3.5000
_cell_angle_alpha                 90.0000
_cell_angle_beta                  90.0000
_cell_angle_gamma                 90.0000
loop_
_atom_site_label
_atom_site_type_symbol
_atom_site_fract_x
_atom_site_fract_y
_atom_site_fract_z
_atom_site_U_iso_or_equiv
_atom_site_adp_type
_atom_site_occupancy
C1     C     0.44329   0.91931   0.00000   0.00000  Uiso   1.00
C2     C     0.47256   0.95906   0.00000   0.00000  Uiso   1.00
C3     C     0.36435   0.95988   0.00000   0.00000  Uiso   1.00
C4     C     0.38933   0.91854   0.00000   0.00000  Uiso   1.00
C5     C     0.35973   0.87484   0.00000   0.00000  Uiso   1.00
C6     C     0.38520   0.83316   0.00000   0.00000  Uiso   1.00
C7     C     0.35835   0.79323   0.00000   0.00000  Uiso   1.00
C8     C     0.30502   0.79269   0.00000   0.00000  Uiso   1.00
C9     C     0.27859   0.83315   0.00000   0.00000  Uiso   1.00
C10    C     0.30540   0.87354   0.00000   0.00000  Uiso   1.00
N11    N     0.77069   0.25439   0.00000   0.00000  Uiso   1.00
C12    C     0.72108   0.25079   0.00000   0.00000  Uiso   1.00
C13    C     0.94322   0.41884   0.00000   0.00000  Uiso   1.00
C14    C     0.97265   0.45877   0.00000   0.00000  Uiso   1.00
C15    C     0.86488   0.46015   0.00000   0.00000  Uiso   1.00
C16    C     0.88924   0.41859   0.00000   0.00000  Uiso   1.00
C17    C     0.85828   0.37562   0.00000   0.00000  Uiso   1.00
C18    C     0.88164   0.33301   0.00000   0.00000  Uiso   1.00
C19    C     0.85238   0.29395   0.00000   0.00000  Uiso   1.00
C20    C     0.79900   0.29560   0.00000   0.00000  Uiso   1.00
C21    C     0.77523   0.33744   0.00000   0.00000  Uiso   1.00
C22    C     0.80409   0.37634   0.00000   0.00000  Uiso   1.00
H23    H     0.46222   0.88841   0.00000   0.00000  Uiso   1.00
H24    H     0.32326   0.96197   0.00000   0.00000  Uiso   1.00
H25    H     0.42605   0.82943   0.00000   0.00000  Uiso   1.00
H26    H     0.37971   0.76235   0.00000   0.00000  Uiso   1.00
H27    H     0.23717   0.83367   0.00000   0.00000  Uiso   1.00
H28    H     0.28226   0.90310   0.00000   0.00000  Uiso   1.00
H29    H     0.69688   0.27980   0.00000   0.00000  Uiso   1.00
H30    H     0.96178   0.38752   0.00000   0.00000  Uiso   1.00
H31    H     0.82395   0.46292   0.00000   0.00000  Uiso   1.00
H32    H     0.92244   0.32837   0.00000   0.00000  Uiso   1.00
H33    H     0.87159   0.26205   0.00000   0.00000  Uiso   1.00
H34    H     0.73424   0.34125   0.00000   0.00000  Uiso   1.00
H35    H     0.78196   0.40640   0.00000   0.00000  Uiso   1.00
C36    C     0.55671   0.08069   0.00000   0.00000  Uiso   1.00
C37    C     0.52744   0.04094   0.00000   0.00000  Uiso   1.00
C38    C     0.63565   0.04012   0.00000   0.00000  Uiso   1.00
C39    C     0.61067   0.08146   0.00000   0.00000  Uiso   1.00
C40    C     0.64027   0.12516   0.00000   0.00000  Uiso   1.00
C41    C     0.61480   0.16684   0.00000   0.00000  Uiso   1.00
C42    C     0.64165   0.20677   0.00000   0.00000  Uiso   1.00
C43    C     0.69498   0.20731   0.00000   0.00000  Uiso   1.00
C44    C     0.72141   0.16685   0.00000   0.00000  Uiso   1.00
C45    C     0.69460   0.12646   0.00000   0.00000  Uiso   1.00
N46    N     0.22931   0.74561   0.00000   0.00000  Uiso   1.00
C47    C     0.27892   0.74921   0.00000   0.00000  Uiso   1.00
C48    C     0.05678   0.58116   0.00000   0.00000  Uiso   1.00
C49    C     0.02735   0.54123   0.00000   0.00000  Uiso   1.00
C50    C     0.13512   0.53985   0.00000   0.00000  Uiso   1.00
C51    C     0.11076   0.58141   0.00000   0.00000  Uiso   1.00
C52    C     0.14172   0.62438   0.00000   0.00000  Uiso   1.00
C53    C     0.11836   0.66699   0.00000   0.00000  Uiso   1.00
C54    C     0.14762   0.70605   0.00000   0.00000  Uiso   1.00
C55    C     0.20100   0.70440   0.00000   0.00000  Uiso   1.00
C56    C     0.22477   0.66256   0.00000   0.00000  Uiso   1.00
C57    C     0.19591   0.62366   0.00000   0.00000  Uiso   1.00
H58    H     0.53778   0.11159   0.00000   0.00000  Uiso   1.00
H59    H     0.67674   0.03803   0.00000   0.00000  Uiso   1.00
H60    H     0.57395   0.17057   0.00000   0.00000  Uiso   1.00
H61    H     0.62029   0.23765   0.00000   0.00000  Uiso   1.00
H62    H     0.76283   0.16633   0.00000   0.00000  Uiso   1.00
H63    H     0.71774   0.09690   0.00000   0.00000  Uiso   1.00
H64    H     0.30312   0.72020   0.00000   0.00000  Uiso   1.00
H65    H     0.03822   0.61248   0.00000   0.00000  Uiso   1.00
H66    H     0.17605   0.53708   0.00000   0.00000  Uiso   1.00
H67    H     0.07756   0.67163   0.00000   0.00000  Uiso   1.00
H68    H     0.12841   0.73795   0.00000   0.00000  Uiso   1.00
H69    H     0.26576   0.65875   0.00000   0.00000  Uiso   1.00
H70    H     0.21804   0.59360   0.00000   0.00000  Uiso   1.00
C71    C     0.55671   0.91931   0.00000   0.00000  Uiso   1.00
C72    C     0.52744   0.95906   0.00000   0.00000  Uiso   1.00
C73    C     0.63565   0.95988   0.00000   0.00000  Uiso   1.00
C74    C     0.61067   0.91854   0.00000   0.00000  Uiso   1.00
C75    C     0.64027   0.87484   0.00000   0.00000  Uiso   1.00
C76    C     0.61480   0.83316   0.00000   0.00000  Uiso   1.00
C77    C     0.64165   0.79323   0.00000   0.00000  Uiso   1.00
C78    C     0.69498   0.79269   0.00000   0.00000  Uiso   1.00
C79    C     0.72141   0.83315   0.00000   0.00000  Uiso   1.00
C80    C     0.69460   0.87354   0.00000   0.00000  Uiso   1.00
N81    N     0.22931   0.25439   0.00000   0.00000  Uiso   1.00
C82    C     0.27892   0.25079   0.00000   0.00000  Uiso   1.00
C83    C     0.05678   0.41884   0.00000   0.00000  Uiso   1.00
C84    C     0.02735   0.45877   0.00000   0.00000  Uiso   1.00
C85    C     0.13512   0.46015   0.00000   0.00000  Uiso   1.00
C86    C     0.11076   0.41859   0.00000   0.00000  Uiso   1.00
C87    C     0.14172   0.37562   0.00000   0.00000  Uiso   1.00
C88    C     0.11836   0.33301   0.00000   0.00000  Uiso   1.00
C89    C     0.14762   0.29395   0.00000   0.00000  Uiso   1.00
C90    C     0.20100   0.29560   0.00000   0.00000  Uiso   1.00
C91    C     0.22477   0.33744   0.00000   0.00000  Uiso   1.00
C92    C     0.19591   0.37634   0.00000   0.00000  Uiso   1.00
H93    H     0.53778   0.88841   0.00000   0.00000  Uiso   1.00
H94    H     0.67674   0.96197   0.00000   0.00000  Uiso   1.00
H95    H     0.57395   0.82943   0.00000   0.00000  Uiso   1.00
H96    H     0.62029   0.76235   0.00000   0.00000  Uiso   1.00
H97    H     0.76283   0.83367   0.00000   0.00000  Uiso   1.00
H98    H     0.71774   0.90310   0.00000   0.00000  Uiso   1.00
H99    H     0.30312   0.27980   0.00000   0.00000  Uiso   1.00
H100   H     0.03822   0.38752   0.00000   0.00000  Uiso   1.00
H101   H     0.17605   0.46292   0.00000   0.00000  Uiso   1.00
H102   H     0.07756   0.32837   0.00000   0.00000  Uiso   1.00
H103   H     0.12841   0.26205   0.00000   0.00000  Uiso   1.00
H104   H     0.26576   0.34125   0.00000   0.00000  Uiso   1.00
H105   H     0.21804   0.40640   0.00000   0.00000  Uiso   1.00
C106   C     0.44329   0.08069   0.00000   0.00000  Uiso   1.00
C107   C     0.47256   0.04094   0.00000   0.00000  Uiso   1.00
C108   C     0.36435   0.04012   0.00000   0.00000  Uiso   1.00
C109   C     0.38933   0.08146   0.00000   0.00000  Uiso   1.00
C110   C     0.35973   0.12516   0.00000   0.00000  Uiso   1.00
C111   C     0.38520   0.16684   0.00000   0.00000  Uiso   1.00
C112   C     0.35835   0.20677   0.00000   0.00000  Uiso   1.00
C113   C     0.30502   0.20731   0.00000   0.00000  Uiso   1.00
C114   C     0.27859   0.16685   0.00000   0.00000  Uiso   1.00
C115   C     0.30540   0.12646   0.00000   0.00000  Uiso   1.00
N116   N     0.77069   0.74561   0.00000   0.00000  Uiso   1.00
C117   C     0.72108   0.74921   0.00000   0.00000  Uiso   1.00
C118   C     0.94322   0.58116   0.00000   0.00000  Uiso   1.00
C119   C     0.97265   0.54123   0.00000   0.00000  Uiso   1.00
C120   C     0.86488   0.53985   0.00000   0.00000  Uiso   1.00
C121   C     0.88924   0.58141   0.00000   0.00000  Uiso   1.00
C122   C     0.85828   0.62438   0.00000   0.00000  Uiso   1.00
C123   C     0.88164   0.66699   0.00000   0.00000  Uiso   1.00
C124   C     0.85238   0.70605   0.00000   0.00000  Uiso   1.00
C125   C     0.79900   0.70440   0.00000   0.00000  Uiso   1.00
C126   C     0.77523   0.66256   0.00000   0.00000  Uiso   1.00
C127   C     0.80409   0.62366   0.00000   0.00000  Uiso   1.00
H128   H     0.46222   0.11159   0.00000   0.00000  Uiso   1.00
H129   H     0.32326   0.03803   0.00000   0.00000  Uiso   1.00
H130   H     0.42605   0.17057   0.00000   0.00000  Uiso   1.00
H131   H     0.37971   0.23765   0.00000   0.00000  Uiso   1.00
H132   H     0.23717   0.16633   0.00000   0.00000  Uiso   1.00
H133   H     0.28226   0.09690   0.00000   0.00000  Uiso   1.00
H134   H     0.69688   0.72020   0.00000   0.00000  Uiso   1.00
H135   H     0.96178   0.61248   0.00000   0.00000  Uiso   1.00
H136   H     0.82395   0.53708   0.00000   0.00000  Uiso   1.00
H137   H     0.92244   0.67163   0.00000   0.00000  Uiso   1.00
H138   H     0.87159   0.73795   0.00000   0.00000  Uiso   1.00
H139   H     0.73424   0.65875   0.00000   0.00000  Uiso   1.00
H140   H     0.78196   0.59360   0.00000   0.00000  Uiso   1.00
C141   C     0.94616   0.50000   0.00000   0.00000  Uiso   1.00
C142   C     0.89227   0.50000   0.00000   0.00000  Uiso   1.00
C143   C     0.05384   0.50000   0.00000   0.00000  Uiso   1.00
C144   C     0.10773   0.50000   0.00000   0.00000  Uiso   1.00
C145   C     0.44583   0.00000   0.00000   0.00000  Uiso   1.00
C146   C     0.39166   0.00000   0.00000   0.00000  Uiso   1.00
C147   C     0.55417   0.00000   0.00000   0.00000  Uiso   1.00
C148   C     0.60834   0.00000   0.00000   0.00000  Uiso   1.00
loop_
_geom_bond_atom_site_label_1
_geom_bond_atom_site_label_2
_geom_bond_distance
_geom_bond_site_symmetry_2
_ccdc_geom_bond_type
C1     C2      1.398   .     S
C1     C4      1.369   .     D
C1     H23     1.038   .     S
C2     C72     1.392   .     S
C2     C145    1.396   1_565 D
C3     C4      1.385   .     S
C3     H24     1.044   .     S
C3     C146    1.382   1_565 D
C4     C5      1.503   .     S
C5     C6      1.400   .     D
C5     C10     1.378   .     S
C6     C7      1.371   .     S
C6     H25     1.042   .     S
C7     C8      1.353   .     D
C7     H26     1.068   .     S
C8     C9      1.379   .     S
C8     C47     1.455   .     S
C9     C10     1.382   .     D
C9     H27     1.051   .     S
C10    H28     1.058   .     S
N11    C12     1.263   .     D
N11    C20     1.423   .     S
C12    H29     1.060   .     S
C12    C43     1.455   .     S
C13    C14     1.405   .     D
C13    C16     1.369   .     S
C13    H30     1.045   .     S
C14    C141    1.400   .     S
C14    C84     1.387   1_655 S
C15    C16     1.384   .     D
C15    H31     1.041   .     S
C15    C142    1.376   .     S
C16    C17     1.502   .     S
C17    C18     1.401   .     D
C17    C22     1.374   .     S
C18    C19     1.380   .     S
C18    H32     1.044   .     S
C19    C20     1.355   .     D
C19    H33     1.068   .     S
C20    C21     1.385   .     S
C21    C22     1.371   .     D
C21    H34     1.046   .     S
C22    H35     1.057   .     S
C36    C37     1.398   .     S
C36    C39     1.369   .     D
C36    H58     1.038   .     S
C37    C147    1.396   .     D
C37    C107    1.392   .     S
C38    C39     1.385   .     S
C38    H59     1.044   .     S
C38    C148    1.382   .     D
C39    C40     1.503   .     S
C40    C41     1.400   .     D
C40    C45     1.378   .     S
C41    C42     1.371   .     S
C41    H60     1.042   .     S
C42    C43     1.353   .     D
C42    H61     1.068   .     S
C43    C44     1.379   .     S
C44    C45     1.382   .     D
C44    H62     1.051   .     S
C45    H63     1.058   .     S
N46    C47     1.263   .     D
N46    C55     1.423   .     S
C47    H64     1.060   .     S
C48    C49     1.405   .     D
C48    C51     1.369   .     S
C48    H65     1.045   .     S
C49    C143    1.400   .     S
C49    C119    1.387   1_455 S
C50    C51     1.384   .     D
C50    H66     1.041   .     S
C50    C144    1.376   .     S
C51    C52     1.502   .     S
C52    C53     1.401   .     D
C52    C57     1.374   .     S
C53    C54     1.380   .     S
C53    H67     1.044   .     S
C54    C55     1.355   .     D
C54    H68     1.068   .     S
C55    C56     1.385   .     S
C56    C57     1.371   .     D
C56    H69     1.046   .     S
C57    H70     1.057   .     S
C71    C72     1.398   .     D
C71    C74     1.369   .     S
C71    H93     1.038   .     S
C72    C147    1.396   1_565 S
C73    C74     1.385   .     D
C73    H94     1.044   .     S
C73    C148    1.382   1_565 S
C74    C75     1.503   .     S
C75    C76     1.400   .     D
C75    C80     1.378   .     S
C76    C77     1.371   .     S
C76    H95     1.042   .     S
C77    C78     1.353   .     D
C77    H96     1.068   .     S
C78    C79     1.379   .     S
C78    C117    1.455   .     S
C79    C80     1.382   .     D
C79    H97     1.051   .     S
C80    H98     1.058   .     S
N81    C82     1.263   .     D
N81    C90     1.423   .     S
C82    H99     1.060   .     S
C82    C113    1.455   .     S
C83    C84     1.405   .     S
C83    C86     1.369   .     D
C83    H100    1.045   .     S
C84    C143    1.400   .     D
C84    C14     1.387   1_455 S
C85    C86     1.384   .     S
C85    H101    1.041   .     S
C85    C144    1.376   .     D
C86    C87     1.502   .     S
C87    C88     1.401   .     D
C87    C92     1.374   .     S
C88    C89     1.380   .     S
C88    H102    1.044   .     S
C89    C90     1.355   .     D
C89    H103    1.068   .     S
C90    C91     1.385   .     S
C91    C92     1.371   .     D
C91    H104    1.046   .     S
C92    H105    1.057   .     S
C106   C107    1.398   .     D
C106   C109    1.369   .     S
C106   H128    1.038   .     S
C107   C145    1.396   .     S
C108   C109    1.385   .     D
C108   H129    1.044   .     S
C108   C146    1.382   .     S
C109   C110    1.503   .     S
C110   C111    1.400   .     D
C110   C115    1.378   .     S
C111   C112    1.371   .     S
C111   H130    1.042   .     S
C112   C113    1.353   .     D
C112   H131    1.068   .     S
C113   C114    1.379   .     S
C114   C115    1.382   .     D
C114   H132    1.051   .     S
C115   H133    1.058   .     S
N116   C117    1.263   .     D
N116   C125    1.423   .     S
C117   H134    1.060   .     S
C118   C119    1.405   .     S
C118   C121    1.369   .     D
C118   H135    1.045   .     S
C119   C141    1.400   .     D
C119   C49     1.387   1_655 S
C120   C121    1.384   .     S
C120   H136    1.041   .     S
C120   C142    1.376   .     D
C121   C122    1.502   .     S
C122   C123    1.401   .     S
C122   C127    1.374   .     D
C123   C124    1.380   .     D
C123   H137    1.044   .     S
C124   C125    1.355   .     S
C124   H138    1.068   .     S
C125   C126    1.385   .     D
C126   C127    1.371   .     S
C126   H139    1.046   .     S
C127   H140    1.057   .     S
C141   C142    1.367   .     S
C143   C144    1.367   .     S
C145   C146    1.374   .     S
C145   C2      1.396   1_545 D
C146   C3      1.382   1_545 D
C147   C148    1.374   .     S
C147   C72     1.396   1_545 S
C148   C73     1.382   1_545 S
