data_1126
_audit_creation_date              2023-09-08
_audit_creation_method            'Materials Studio'
_symmetry_space_group_name_H-M    'P1'
_symmetry_Int_Tables_number       1
_symmetry_cell_setting            triclinic
loop_
_symmetry_equiv_pos_as_xyz
  x,y,z
_cell_length_a                    32.7583
_cell_length_b                    35.0361
_cell_length_c                    3.7678
_cell_angle_alpha                 90.0000
_cell_angle_beta                  90.0000
_cell_angle_gamma                 90.0000
loop_
_atom_site_label
_atom_site_type_symbol
_atom_site_fract_x
_atom_site_fract_y
_atom_site_fract_z
_atom_site_U_iso_or_equiv
_atom_site_adp_type
_atom_site_occupancy
C1     C     0.41283   0.96484   0.04912   0.00000  Uiso   1.00
C2     C     0.65157   0.92927  -0.10597   0.00000  Uiso   1.00
C3     C     0.67666   0.89709  -0.09093   0.00000  Uiso   1.00
C4     C     0.66353   0.86392   0.08343   0.00000  Uiso   1.00
C5     C     0.62525   0.86395   0.24990   0.00000  Uiso   1.00
C6     C     0.60075   0.89657   0.24455   0.00000  Uiso   1.00
C7     C     0.71419   0.72626   0.09724   0.00000  Uiso   1.00
C8     C     0.45598   0.96494   0.00679   0.00000  Uiso   1.00
C9     C     0.47873   0.06843  -0.05495   0.00000  Uiso   1.00
C10    C     0.11294   0.57054   0.05885   0.00000  Uiso   1.00
C11    C     0.73271   0.17127   0.09887   0.00000  Uiso   1.00
C12    C     0.74634   0.21086   0.09821   0.00000  Uiso   1.00
C13    C     0.71171   0.23382   0.09644   0.00000  Uiso   1.00
C14    C     0.67627   0.20869   0.09061   0.00000  Uiso   1.00
H15    H     0.46423   0.09542  -0.10665   0.00000  Uiso   1.00
H16    H     0.66212   0.95382  -0.25465   0.00000  Uiso   1.00
H17    H     0.70564   0.89772  -0.22825   0.00000  Uiso   1.00
H18    H     0.61494   0.83932   0.39785   0.00000  Uiso   1.00
H19    H     0.57261   0.89613   0.39239   0.00000  Uiso   1.00
H20    H     0.68725   0.70840   0.09618   0.00000  Uiso   1.00
N21    N     0.18899   0.66955   0.09311   0.00000  Uiso   1.00
O22    O     0.64090   0.21921   0.07015   0.00000  Uiso   1.00
O23    O     0.75502   0.14352   0.11709   0.00000  Uiso   1.00
C24    C     0.91283   0.46484   0.04912   0.00000  Uiso   1.00
C25    C     0.15157   0.42927  -0.10597   0.00000  Uiso   1.00
C26    C     0.17666   0.39709  -0.09093   0.00000  Uiso   1.00
C27    C     0.16353   0.36392   0.08343   0.00000  Uiso   1.00
C28    C     0.12525   0.36395   0.24990   0.00000  Uiso   1.00
C29    C     0.10075   0.39657   0.24455   0.00000  Uiso   1.00
C30    C     0.21419   0.22626   0.09724   0.00000  Uiso   1.00
C31    C     0.95598   0.46494   0.00679   0.00000  Uiso   1.00
C32    C     0.97873   0.56843  -0.05495   0.00000  Uiso   1.00
C33    C     0.61294   0.07054   0.05885   0.00000  Uiso   1.00
C34    C     0.23271   0.67127   0.09887   0.00000  Uiso   1.00
C35    C     0.24634   0.71086   0.09821   0.00000  Uiso   1.00
C36    C     0.21171   0.73382   0.09644   0.00000  Uiso   1.00
C37    C     0.17627   0.70869   0.09061   0.00000  Uiso   1.00
H38    H     0.96423   0.59542  -0.10665   0.00000  Uiso   1.00
H39    H     0.16212   0.45382  -0.25465   0.00000  Uiso   1.00
H40    H     0.20564   0.39772  -0.22825   0.00000  Uiso   1.00
H41    H     0.11494   0.33932   0.39785   0.00000  Uiso   1.00
H42    H     0.07261   0.39613   0.39239   0.00000  Uiso   1.00
H43    H     0.18725   0.20840   0.09618   0.00000  Uiso   1.00
N44    N     0.68899   0.16955   0.09311   0.00000  Uiso   1.00
O45    O     0.14090   0.71921   0.07015   0.00000  Uiso   1.00
O46    O     0.25502   0.64352   0.11709   0.00000  Uiso   1.00
C47    C     0.58717   0.03516   0.04912   0.00000  Uiso   1.00
C48    C     0.34843   0.07073  -0.10597   0.00000  Uiso   1.00
C49    C     0.32334   0.10291  -0.09093   0.00000  Uiso   1.00
C50    C     0.33647   0.13608   0.08343   0.00000  Uiso   1.00
C51    C     0.37475   0.13605   0.24990   0.00000  Uiso   1.00
C52    C     0.39925   0.10343   0.24455   0.00000  Uiso   1.00
C53    C     0.28581   0.27374   0.09724   0.00000  Uiso   1.00
C54    C     0.54402   0.03506   0.00679   0.00000  Uiso   1.00
C55    C     0.52127   0.93157  -0.05495   0.00000  Uiso   1.00
C56    C     0.88706   0.42946   0.05885   0.00000  Uiso   1.00
C57    C     0.26729   0.82873   0.09887   0.00000  Uiso   1.00
C58    C     0.25366   0.78914   0.09821   0.00000  Uiso   1.00
C59    C     0.28829   0.76618   0.09644   0.00000  Uiso   1.00
C60    C     0.32373   0.79131   0.09061   0.00000  Uiso   1.00
H61    H     0.53577   0.90458  -0.10665   0.00000  Uiso   1.00
H62    H     0.33788   0.04618  -0.25465   0.00000  Uiso   1.00
H63    H     0.29436   0.10228  -0.22825   0.00000  Uiso   1.00
H64    H     0.38506   0.16068   0.39785   0.00000  Uiso   1.00
H65    H     0.42739   0.10387   0.39239   0.00000  Uiso   1.00
H66    H     0.31275   0.29160   0.09618   0.00000  Uiso   1.00
N67    N     0.81101   0.33045   0.09311   0.00000  Uiso   1.00
O68    O     0.35910   0.78079   0.07015   0.00000  Uiso   1.00
O69    O     0.24498   0.85648   0.11709   0.00000  Uiso   1.00
C70    C     0.08717   0.53516   0.04912   0.00000  Uiso   1.00
C71    C     0.84843   0.57073  -0.10597   0.00000  Uiso   1.00
C72    C     0.82334   0.60291  -0.09093   0.00000  Uiso   1.00
C73    C     0.83647   0.63608   0.08343   0.00000  Uiso   1.00
C74    C     0.87475   0.63605   0.24990   0.00000  Uiso   1.00
C75    C     0.89925   0.60343   0.24455   0.00000  Uiso   1.00
C76    C     0.78581   0.77374   0.09724   0.00000  Uiso   1.00
C77    C     0.04402   0.53506   0.00679   0.00000  Uiso   1.00
C78    C     0.02127   0.43157  -0.05495   0.00000  Uiso   1.00
C79    C     0.38706   0.92946   0.05885   0.00000  Uiso   1.00
C80    C     0.76729   0.32873   0.09887   0.00000  Uiso   1.00
C81    C     0.75366   0.28914   0.09821   0.00000  Uiso   1.00
C82    C     0.78829   0.26618   0.09644   0.00000  Uiso   1.00
C83    C     0.82373   0.29131   0.09061   0.00000  Uiso   1.00
H84    H     0.03577   0.40458  -0.10665   0.00000  Uiso   1.00
H85    H     0.83788   0.54618  -0.25465   0.00000  Uiso   1.00
H86    H     0.79436   0.60228  -0.22825   0.00000  Uiso   1.00
H87    H     0.88506   0.66068   0.39785   0.00000  Uiso   1.00
H88    H     0.92739   0.60387   0.39239   0.00000  Uiso   1.00
H89    H     0.81275   0.79160   0.09618   0.00000  Uiso   1.00
N90    N     0.31101   0.83045   0.09311   0.00000  Uiso   1.00
O91    O     0.85910   0.28079   0.07015   0.00000  Uiso   1.00
O92    O     0.74498   0.35648   0.11709   0.00000  Uiso   1.00
C93    C     0.41283   0.03516   0.04912   0.00000  Uiso   1.00
C94    C     0.65157   0.07073  -0.10597   0.00000  Uiso   1.00
C95    C     0.67666   0.10291  -0.09093   0.00000  Uiso   1.00
C96    C     0.66353   0.13608   0.08343   0.00000  Uiso   1.00
C97    C     0.62525   0.13605   0.24990   0.00000  Uiso   1.00
C98    C     0.60075   0.10343   0.24455   0.00000  Uiso   1.00
C99    C     0.71419   0.27374   0.09724   0.00000  Uiso   1.00
C100   C     0.45598   0.03506   0.00679   0.00000  Uiso   1.00
C101   C     0.47873   0.93157  -0.05495   0.00000  Uiso   1.00
C102   C     0.11294   0.42946   0.05885   0.00000  Uiso   1.00
C103   C     0.73271   0.82873   0.09887   0.00000  Uiso   1.00
C104   C     0.74634   0.78914   0.09821   0.00000  Uiso   1.00
C105   C     0.71171   0.76618   0.09644   0.00000  Uiso   1.00
C106   C     0.67627   0.79131   0.09061   0.00000  Uiso   1.00
H107   H     0.46423   0.90458  -0.10665   0.00000  Uiso   1.00
H108   H     0.66212   0.04618  -0.25465   0.00000  Uiso   1.00
H109   H     0.70564   0.10228  -0.22825   0.00000  Uiso   1.00
H110   H     0.61494   0.16068   0.39785   0.00000  Uiso   1.00
H111   H     0.57261   0.10387   0.39239   0.00000  Uiso   1.00
H112   H     0.68725   0.29160   0.09618   0.00000  Uiso   1.00
N113   N     0.18899   0.33045   0.09311   0.00000  Uiso   1.00
O114   O     0.64090   0.78079   0.07015   0.00000  Uiso   1.00
O115   O     0.75502   0.85648   0.11709   0.00000  Uiso   1.00
C116   C     0.91283   0.53516   0.04912   0.00000  Uiso   1.00
C117   C     0.15157   0.57073  -0.10597   0.00000  Uiso   1.00
C118   C     0.17666   0.60291  -0.09093   0.00000  Uiso   1.00
C119   C     0.16353   0.63608   0.08343   0.00000  Uiso   1.00
C120   C     0.12525   0.63605   0.24990   0.00000  Uiso   1.00
C121   C     0.10075   0.60343   0.24455   0.00000  Uiso   1.00
C122   C     0.21419   0.77374   0.09724   0.00000  Uiso   1.00
C123   C     0.95598   0.53506   0.00679   0.00000  Uiso   1.00
C124   C     0.97873   0.43157  -0.05495   0.00000  Uiso   1.00
C125   C     0.61294   0.92946   0.05885   0.00000  Uiso   1.00
C126   C     0.23271   0.32873   0.09887   0.00000  Uiso   1.00
C127   C     0.24634   0.28914   0.09821   0.00000  Uiso   1.00
C128   C     0.21171   0.26618   0.09644   0.00000  Uiso   1.00
C129   C     0.17627   0.29131   0.09061   0.00000  Uiso   1.00
H130   H     0.96423   0.40458  -0.10665   0.00000  Uiso   1.00
H131   H     0.16212   0.54618  -0.25465   0.00000  Uiso   1.00
H132   H     0.20564   0.60228  -0.22825   0.00000  Uiso   1.00
H133   H     0.11494   0.66068   0.39785   0.00000  Uiso   1.00
H134   H     0.07261   0.60387   0.39239   0.00000  Uiso   1.00
H135   H     0.18725   0.79160   0.09618   0.00000  Uiso   1.00
N136   N     0.68899   0.83045   0.09311   0.00000  Uiso   1.00
O137   O     0.14090   0.28079   0.07015   0.00000  Uiso   1.00
O138   O     0.25502   0.35648   0.11709   0.00000  Uiso   1.00
C139   C     0.58717   0.96484   0.04912   0.00000  Uiso   1.00
C140   C     0.34843   0.92927  -0.10597   0.00000  Uiso   1.00
C141   C     0.32334   0.89709  -0.09093   0.00000  Uiso   1.00
C142   C     0.33647   0.86392   0.08343   0.00000  Uiso   1.00
C143   C     0.37475   0.86395   0.24990   0.00000  Uiso   1.00
C144   C     0.39925   0.89657   0.24455   0.00000  Uiso   1.00
C145   C     0.28581   0.72626   0.09724   0.00000  Uiso   1.00
C146   C     0.54402   0.96494   0.00679   0.00000  Uiso   1.00
C147   C     0.52127   0.06843  -0.05495   0.00000  Uiso   1.00
C148   C     0.88706   0.57054   0.05885   0.00000  Uiso   1.00
C149   C     0.26729   0.17127   0.09887   0.00000  Uiso   1.00
C150   C     0.25366   0.21086   0.09821   0.00000  Uiso   1.00
C151   C     0.28829   0.23382   0.09644   0.00000  Uiso   1.00
C152   C     0.32373   0.20869   0.09061   0.00000  Uiso   1.00
H153   H     0.53577   0.09542  -0.10665   0.00000  Uiso   1.00
H154   H     0.33788   0.95382  -0.25465   0.00000  Uiso   1.00
H155   H     0.29436   0.89772  -0.22825   0.00000  Uiso   1.00
H156   H     0.38506   0.83932   0.39785   0.00000  Uiso   1.00
H157   H     0.42739   0.89613   0.39239   0.00000  Uiso   1.00
H158   H     0.31275   0.70840   0.09618   0.00000  Uiso   1.00
N159   N     0.81101   0.66955   0.09311   0.00000  Uiso   1.00
O160   O     0.35910   0.21921   0.07015   0.00000  Uiso   1.00
O161   O     0.24498   0.14352   0.11709   0.00000  Uiso   1.00
C162   C     0.08717   0.46484   0.04912   0.00000  Uiso   1.00
C163   C     0.84843   0.42927  -0.10597   0.00000  Uiso   1.00
C164   C     0.82334   0.39709  -0.09093   0.00000  Uiso   1.00
C165   C     0.83647   0.36392   0.08343   0.00000  Uiso   1.00
C166   C     0.87475   0.36395   0.24990   0.00000  Uiso   1.00
C167   C     0.89925   0.39657   0.24455   0.00000  Uiso   1.00
C168   C     0.78581   0.22626   0.09724   0.00000  Uiso   1.00
C169   C     0.04402   0.46494   0.00679   0.00000  Uiso   1.00
C170   C     0.02127   0.56843  -0.05495   0.00000  Uiso   1.00
C171   C     0.38706   0.07054   0.05885   0.00000  Uiso   1.00
C172   C     0.76729   0.67127   0.09887   0.00000  Uiso   1.00
C173   C     0.75366   0.71086   0.09821   0.00000  Uiso   1.00
C174   C     0.78829   0.73382   0.09644   0.00000  Uiso   1.00
C175   C     0.82373   0.70869   0.09061   0.00000  Uiso   1.00
H176   H     0.03577   0.59542  -0.10665   0.00000  Uiso   1.00
H177   H     0.83788   0.45382  -0.25465   0.00000  Uiso   1.00
H178   H     0.79436   0.39772  -0.22825   0.00000  Uiso   1.00
H179   H     0.88506   0.33932   0.39785   0.00000  Uiso   1.00
H180   H     0.92739   0.39613   0.39239   0.00000  Uiso   1.00
H181   H     0.81275   0.20840   0.09618   0.00000  Uiso   1.00
N182   N     0.31101   0.16955   0.09311   0.00000  Uiso   1.00
O183   O     0.85910   0.71921   0.07015   0.00000  Uiso   1.00
O184   O     0.74498   0.64352   0.11709   0.00000  Uiso   1.00
C185   C     0.39273   0.00000   0.08769   0.00000  Uiso   1.00
C186   C     0.47721   0.00000   0.01202   0.00000  Uiso   1.00
C187   C     0.89273   0.50000   0.08769   0.00000  Uiso   1.00
C188   C     0.97721   0.50000   0.01202   0.00000  Uiso   1.00
C189   C     0.60727   0.00000   0.08769   0.00000  Uiso   1.00
C190   C     0.52279   0.00000   0.01202   0.00000  Uiso   1.00
C191   C     0.10727   0.50000   0.08769   0.00000  Uiso   1.00
C192   C     0.02279   0.50000   0.01202   0.00000  Uiso   1.00
H193   H     0.13962   0.50000   0.14723   0.00000  Uiso   1.00
H194   H     0.63962   0.00000   0.14723   0.00000  Uiso   1.00
H195   H     0.86038   0.50000   0.14723   0.00000  Uiso   1.00
H196   H     0.36038   0.00000   0.14723   0.00000  Uiso   1.00
loop_
_geom_bond_atom_site_label_1
_geom_bond_atom_site_label_2
_geom_bond_distance
_geom_bond_site_symmetry_2
_ccdc_geom_bond_type
C1     C8      1.422   .     D
C1     C79     1.500   .     S
C1     C185    1.404   1_565 S
C2     C3      1.396   .     S
C2     H16     1.083   .     S
C2     C125    1.410   .     D
C3     C4      1.403   .     D
C3     H17     1.081   .     S
C4     C5      1.402   .     S
C4     N136    1.439   .     S
C5     C6      1.397   .     D
C5     H18     1.081   .     S
C6     H19     1.077   .     S
C6     C125    1.406   .     S
C7     H20     1.082   .     S
C7     C173    1.401   .     S
C7     C105    1.401   .     D
C8     C101    1.406   .     S
C8     C186    1.412   1_565 S
C9     H15     1.076   .     S
C9     C100    1.406   .     S
C9     C147    1.394   .     D
C10    C70     1.500   .     S
C10    C117    1.410   .     S
C10    C121    1.406   .     D
C11    C12     1.457   .     S
C11    O23     1.218   .     D
C11    N44     1.434   .     S
C12    C13     1.391   .     D
C12    C168    1.401   .     S
C13    C14     1.457   .     S
C13    C99     1.401   .     S
C14    O22     1.218   .     D
C14    N44     1.433   .     S
N21    C119    1.439   .     S
N21    C34     1.434   .     S
N21    C37     1.433   .     S
C24    C31     1.422   .     S
C24    C187    1.404   .     D
C24    C56     1.500   .     S
C25    C26     1.396   .     S
C25    H39     1.083   .     S
C25    C102    1.410   .     D
C26    C27     1.403   .     D
C26    H40     1.081   .     S
C27    C28     1.402   .     S
C27    N113    1.439   .     S
C28    C29     1.397   .     D
C28    H41     1.081   .     S
C29    H42     1.077   .     S
C29    C102    1.406   .     S
C30    H43     1.082   .     S
C30    C150    1.401   .     D
C30    C128    1.401   .     S
C31    C188    1.412   .     D
C31    C124    1.406   .     S
C32    H38     1.076   .     S
C32    C123    1.406   .     S
C32    C170    1.394   1_655 D
C33    C47     1.500   .     S
C33    C94     1.410   .     D
C33    C98     1.406   .     S
C34    C35     1.457   .     S
C34    O46     1.218   .     D
C35    C36     1.391   .     S
C35    C145    1.401   .     D
C36    C37     1.457   .     S
C36    C122    1.401   .     D
C37    O45     1.218   .     D
N44    C96     1.439   .     S
C47    C54     1.422   .     S
C47    C189    1.404   .     D
C48    C49     1.396   .     S
C48    H62     1.083   .     S
C48    C171    1.410   .     D
C49    C50     1.403   .     D
C49    H63     1.081   .     S
C50    C51     1.402   .     S
C50    N182    1.439   .     S
C51    C52     1.397   .     D
C51    H64     1.081   .     S
C52    H65     1.077   .     S
C52    C171    1.406   .     S
C53    H66     1.082   .     S
C53    C127    1.401   .     S
C53    C151    1.401   .     D
C54    C190    1.412   .     D
C54    C147    1.406   .     S
C55    H61     1.076   .     S
C55    C146    1.406   .     S
C55    C101    1.394   .     D
C56    C163    1.410   .     D
C56    C167    1.406   .     S
C57    C58     1.457   .     S
C57    O69     1.218   .     D
C57    N90     1.434   .     S
C58    C59     1.391   .     D
C58    C122    1.401   .     S
C59    C60     1.457   .     S
C59    C145    1.401   .     S
C60    O68     1.218   .     D
C60    N90     1.433   .     S
N67    C165    1.439   .     S
N67    C80     1.434   .     S
N67    C83     1.433   .     S
C70    C77     1.422   .     D
C70    C191    1.404   .     S
C71    C72     1.396   .     S
C71    H85     1.083   .     S
C71    C148    1.410   .     D
C72    C73     1.403   .     D
C72    H86     1.081   .     S
C73    C74     1.402   .     S
C73    N159    1.439   .     S
C74    C75     1.397   .     D
C74    H87     1.081   .     S
C75    H88     1.077   .     S
C75    C148    1.406   .     S
C76    H89     1.082   .     S
C76    C104    1.401   .     D
C76    C174    1.401   .     S
C77    C192    1.412   .     S
C77    C170    1.406   .     S
C78    H84     1.076   .     S
C78    C169    1.406   .     S
C78    C124    1.394   1_455 D
C79    C140    1.410   .     D
C79    C144    1.406   .     S
C80    C81     1.457   .     S
C80    O92     1.218   .     D
C81    C82     1.391   .     S
C81    C99     1.401   .     D
C82    C83     1.457   .     S
C82    C168    1.401   .     D
C83    O91     1.218   .     D
N90    C142    1.439   .     S
C93    C100    1.422   .     S
C93    C185    1.404   .     D
C93    C171    1.500   .     S
C94    C95     1.396   .     S
C94    H108    1.083   .     S
C95    C96     1.403   .     D
C95    H109    1.081   .     S
C96    C97     1.402   .     S
C97    C98     1.397   .     D
C97    H110    1.081   .     S
C98    H111    1.077   .     S
C99    H112    1.082   .     S
C100   C186    1.412   .     D
C101   H107    1.076   .     S
C102   C162    1.500   .     S
C103   C104    1.457   .     S
C103   O115    1.218   .     D
C103   N136    1.434   .     S
C104   C105    1.391   .     S
C105   C106    1.457   .     S
C106   O114    1.218   .     D
C106   N136    1.433   .     S
N113   C126    1.434   .     S
N113   C129    1.433   .     S
C116   C123    1.422   .     D
C116   C187    1.404   .     S
C116   C148    1.500   .     S
C117   C118    1.396   .     D
C117   H131    1.083   .     S
C118   C119    1.403   .     S
C118   H132    1.081   .     S
C119   C120    1.402   .     D
C120   C121    1.397   .     S
C120   H133    1.081   .     S
C121   H134    1.077   .     S
C122   H135    1.082   .     S
C123   C188    1.412   .     S
C124   H130    1.076   .     S
C124   C78     1.394   1_655 D
C125   C139    1.500   .     S
C126   C127    1.457   .     S
C126   O138    1.218   .     D
C127   C128    1.391   .     D
C128   C129    1.457   .     S
C129   O137    1.218   .     D
C139   C146    1.422   .     D
C139   C189    1.404   1_565 S
C140   C141    1.396   .     S
C140   H154    1.083   .     S
C141   C142    1.403   .     D
C141   H155    1.081   .     S
C142   C143    1.402   .     S
C143   C144    1.397   .     D
C143   H156    1.081   .     S
C144   H157    1.077   .     S
C145   H158    1.082   .     S
C146   C190    1.412   1_565 S
C147   H153    1.076   .     S
C149   C150    1.457   .     S
C149   O161    1.218   .     D
C149   N182    1.434   .     S
C150   C151    1.391   .     S
C151   C152    1.457   .     S
C152   O160    1.218   .     D
C152   N182    1.433   .     S
N159   C172    1.434   .     S
N159   C175    1.433   .     S
C162   C169    1.422   .     S
C162   C191    1.404   .     D
C163   C164    1.396   .     S
C163   H177    1.083   .     S
C164   C165    1.403   .     D
C164   H178    1.081   .     S
C165   C166    1.402   .     S
C166   C167    1.397   .     D
C166   H179    1.081   .     S
C167   H180    1.077   .     S
C168   H181    1.082   .     S
C169   C192    1.412   .     D
C170   H176    1.076   .     S
C170   C32     1.394   1_455 D
C172   C173    1.457   .     S
C172   O184    1.218   .     D
C173   C174    1.391   .     D
C174   C175    1.457   .     S
C175   O183    1.218   .     D
C185   H196    1.083   .     S
C185   C1      1.404   1_545 S
C186   C190    1.493   .     S
C186   C8      1.412   1_545 S
C187   H195    1.083   .     S
C188   C192    1.493   1_655 S
C189   H194    1.083   .     S
C189   C139    1.404   1_545 S
C190   C146    1.412   1_545 S
C191   H193    1.083   .     S
C192   C188    1.493   1_455 S
