data_1128
_audit_creation_date              2023-09-08
_audit_creation_method            'Materials Studio'
_symmetry_space_group_name_H-M    'P1'
_symmetry_Int_Tables_number       1
_symmetry_cell_setting            triclinic
loop_
_symmetry_equiv_pos_as_xyz
  x,y,z
_cell_length_a                    25.6879
_cell_length_b                    25.6240
_cell_length_c                    5.0305
_cell_angle_alpha                 90.0000
_cell_angle_beta                  90.0000
_cell_angle_gamma                 120.0000
loop_
_atom_site_label
_atom_site_type_symbol
_atom_site_fract_x
_atom_site_fract_y
_atom_site_fract_z
_atom_site_U_iso_or_equiv
_atom_site_adp_type
_atom_site_occupancy
C1     C     9.25005  -6.01184  -0.58904   0.00000  Uiso   1.00
C2     C     9.28027  -6.04431  -0.59712   0.00000  Uiso   1.00
C3     C     9.34411  -6.01313  -0.60080   0.00000  Uiso   1.00
C4     C     9.24367  -6.11075  -0.59088   0.00000  Uiso   1.00
C5     C     9.25574  -6.14392  -0.40388   0.00000  Uiso   1.00
C6     C     9.22267  -6.20674  -0.40499   0.00000  Uiso   1.00
C7     C     9.17684  -6.23712  -0.59219   0.00000  Uiso   1.00
C8     C     9.16374  -6.20421  -0.77501   0.00000  Uiso   1.00
C9     C     9.19692  -6.14126  -0.77420   0.00000  Uiso   1.00
C10    C     9.37629  -6.04760  -0.60997   0.00000  Uiso   1.00
C11    C     9.36520  -6.08869  -0.81613   0.00000  Uiso   1.00
C12    C     9.39609  -6.12059  -0.82582   0.00000  Uiso   1.00
C13    C     9.43876  -6.11126  -0.63162   0.00000  Uiso   1.00
C14    C     9.44966  -6.07033  -0.42451   0.00000  Uiso   1.00
C15    C     9.41837  -6.03902  -0.41310   0.00000  Uiso   1.00
C16    C     9.14272  -6.30304  -0.60160   0.00000  Uiso   1.00
C17    C     9.72493  -6.27403  -0.42328   0.00000  Uiso   1.00
C18    C     9.69341  -6.24335  -0.43975   0.00000  Uiso   1.00
C19    C     9.63193  -6.27359  -0.49517   0.00000  Uiso   1.00
C20    C     9.60099  -6.33698  -0.53507   0.00000  Uiso   1.00
C21    C     9.63375  -6.36837  -0.52345   0.00000  Uiso   1.00
C22    C     9.69644  -6.33616  -0.46394   0.00000  Uiso   1.00
C23    C     9.73365  -6.36507  -0.42642   0.00000  Uiso   1.00
C24    C     9.60186  -6.23723  -0.50133   0.00000  Uiso   1.00
C25    C     9.77482  -6.34747  -0.21499   0.00000  Uiso   1.00
C26    C     9.81036  -6.37423  -0.17973   0.00000  Uiso   1.00
C27    C     9.80524  -6.41872  -0.35607   0.00000  Uiso   1.00
C28    C     9.76545  -6.43522  -0.57052   0.00000  Uiso   1.00
C29    C     9.73056  -6.40818  -0.60574   0.00000  Uiso   1.00
C30    C     9.61719  -6.19166  -0.31186   0.00000  Uiso   1.00
C31    C     9.58814  -6.15804  -0.30917   0.00000  Uiso   1.00
C32    C     9.54360  -6.16943  -0.49624   0.00000  Uiso   1.00
C33    C     9.52887  -6.21394  -0.68995   0.00000  Uiso   1.00
C34    C     9.55812  -6.24744  -0.69318   0.00000  Uiso   1.00
C35    C     9.60093  -6.43480  -0.54973   0.00000  Uiso   1.00
C36    C     9.53431  -6.37123  -0.56485   0.00000  Uiso   1.00
C37    C     9.55840  -6.47048  -0.35829   0.00000  Uiso   1.00
C38    C     9.52521  -6.53292  -0.38849   0.00000  Uiso   1.00
C39    C     9.53440  -6.56039  -0.61083   0.00000  Uiso   1.00
C40    C     9.57604  -6.52471  -0.80378   0.00000  Uiso   1.00
C41    C     9.60832  -6.46219  -0.77601   0.00000  Uiso   1.00
C42    C     9.50710  -6.40956  -0.78269   0.00000  Uiso   1.00
C43    C     9.44444  -6.44468  -0.79947   0.00000  Uiso   1.00
C44    C     9.40818  -6.44234  -0.59815   0.00000  Uiso   1.00
C45    C     9.43520  -6.40345  -0.38205   0.00000  Uiso   1.00
C46    C     9.49775  -6.36832  -0.36544   0.00000  Uiso   1.00
C47    C     9.84069  -6.44842  -0.31440   0.00000  Uiso   1.00
C48    C     9.51240  -6.13510  -0.48104   0.00000  Uiso   1.00
N49    N     9.47028  -6.14392  -0.64728   0.00000  Uiso   1.00
C50    C     9.01829  -6.69002  -0.38495   0.00000  Uiso   1.00
C51    C     9.05239  -6.62727  -0.40614   0.00000  Uiso   1.00
C52    C     9.02282  -6.59298  -0.41235   0.00000  Uiso   1.00
C53    C     9.11869  -6.59888  -0.42165   0.00000  Uiso   1.00
C54    C     9.14999  -6.61080  -0.22508   0.00000  Uiso   1.00
C55    C     9.21286  -6.58046  -0.22592   0.00000  Uiso   1.00
C56    C     9.24516  -6.53847  -0.42487   0.00000  Uiso   1.00
C57    C     9.21407  -6.52752  -0.62578   0.00000  Uiso   1.00
C58    C     9.15121  -6.55754  -0.62397   0.00000  Uiso   1.00
C59    C     9.05827  -6.52618  -0.42671   0.00000  Uiso   1.00
C60    C     9.10133  -6.49332  -0.23158   0.00000  Uiso   1.00
C61    C     9.13292  -6.43041  -0.23822   0.00000  Uiso   1.00
C62    C     9.12142  -6.39960  -0.43785   0.00000  Uiso   1.00
C63    C     9.07867  -6.43239  -0.63472   0.00000  Uiso   1.00
C64    C     9.04756  -6.49525  -0.62971   0.00000  Uiso   1.00
C65    C     9.31103  -6.50425  -0.41001   0.00000  Uiso   1.00
N66    N     9.15338  -6.33516  -0.43513   0.00000  Uiso   1.00
N67    N     9.34416  -6.47881  -0.61731   0.00000  Uiso   1.00
C68    C     9.28165  -6.94941  -0.57918   0.00000  Uiso   1.00
C69    C     9.37681  -6.94886  -0.59303   0.00000  Uiso   1.00
C70    C     9.34445  -6.91736  -0.57941   0.00000  Uiso   1.00
C71    C     9.37401  -6.85117  -0.56237   0.00000  Uiso   1.00
C72    C     9.35573  -6.82476  -0.36670   0.00000  Uiso   1.00
C73    C     9.38397  -6.76223  -0.34379   0.00000  Uiso   1.00
C74    C     9.43046  -6.72556  -0.51715   0.00000  Uiso   1.00
C75    C     9.44823  -6.75166  -0.71632   0.00000  Uiso   1.00
C76    C     9.41997  -6.81423  -0.73934   0.00000  Uiso   1.00
C77    C     9.44390  -6.91562  -0.59122   0.00000  Uiso   1.00
C78    C     9.47587  -6.87616  -0.38263   0.00000  Uiso   1.00
C79    C     9.53856  -6.84863  -0.37074   0.00000  Uiso   1.00
C80    C     9.57021  -6.86074  -0.56593   0.00000  Uiso   1.00
C81    C     9.53844  -6.89940  -0.77565   0.00000  Uiso   1.00
C82    C     9.47588  -6.92644  -0.78896   0.00000  Uiso   1.00
C83    C     9.46072  -6.66030  -0.48218   0.00000  Uiso   1.00
N84    N     9.50267  -6.62432  -0.64333   0.00000  Uiso   1.00
C85    C     9.95578  -6.71940  -0.37196   0.00000  Uiso   1.00
C86    C     9.95890  -6.62308  -0.39878   0.00000  Uiso   1.00
C87    C     9.92548  -6.68685  -0.37750   0.00000  Uiso   1.00
C88    C     9.85896  -6.72027  -0.35982   0.00000  Uiso   1.00
C89    C     9.82952  -6.70451  -0.16815   0.00000  Uiso   1.00
C90    C     9.76688  -6.73166  -0.16846   0.00000  Uiso   1.00
C91    C     9.73280  -6.77484  -0.36031   0.00000  Uiso   1.00
C92    C     9.76189  -6.79193  -0.54803   0.00000  Uiso   1.00
C93    C     9.82464  -6.76482  -0.54751   0.00000  Uiso   1.00
C94    C     9.92693  -6.58840  -0.41382   0.00000  Uiso   1.00
C95    C     9.93751  -6.54396  -0.22464   0.00000  Uiso   1.00
C96    C     9.90759  -6.51115  -0.24267   0.00000  Uiso   1.00
C97    C     9.86650  -6.52285  -0.44953   0.00000  Uiso   1.00
C98    C     9.85579  -6.56737  -0.63671   0.00000  Uiso   1.00
C99    C     9.88596  -6.59980  -0.61995   0.00000  Uiso   1.00
C100   C     9.66733  -6.80003  -0.36443   0.00000  Uiso   1.00
N101   N     9.83460  -6.49073  -0.47448   0.00000  Uiso   1.00
N102   N     9.63417  -6.83532  -0.55409   0.00000  Uiso   1.00
H103   H     9.19882  -6.03661  -0.59050   0.00000  Uiso   1.00
H104   H     9.29274  -6.11954  -0.24993   0.00000  Uiso   1.00
H105   H     9.23292  -6.23345  -0.25338   0.00000  Uiso   1.00
H106   H     9.12591  -6.22871  -0.92526   0.00000  Uiso   1.00
H107   H     9.18600  -6.11454  -0.92298   0.00000  Uiso   1.00
H108   H     9.33084  -6.09616  -0.97675   0.00000  Uiso   1.00
H109   H     9.38652  -6.15436  -0.99253   0.00000  Uiso   1.00
H110   H     9.48426  -6.06261  -0.26471   0.00000  Uiso   1.00
H111   H     9.42711  -6.00631  -0.24272   0.00000  Uiso   1.00
H112   H     9.10604  -6.32698  -0.75730   0.00000  Uiso   1.00
H113   H     9.77503  -6.24852  -0.37579   0.00000  Uiso   1.00
H114   H     9.71766  -6.19251  -0.40783   0.00000  Uiso   1.00
H115   H     9.77950  -6.31111  -0.07037   0.00000  Uiso   1.00
H116   H     9.84348  -6.35973  -0.00715   0.00000  Uiso   1.00
H117   H     9.76152  -6.47093  -0.71719   0.00000  Uiso   1.00
H118   H     9.69910  -6.42169  -0.78424   0.00000  Uiso   1.00
H119   H     9.65364  -6.18190  -0.15862   0.00000  Uiso   1.00
H120   H     9.60077  -6.12119  -0.15401   0.00000  Uiso   1.00
H121   H     9.49299  -6.22279  -0.84491   0.00000  Uiso   1.00
H122   H     9.54652  -6.28331  -0.85222   0.00000  Uiso   1.00
H123   H     9.55076  -6.44854  -0.17669   0.00000  Uiso   1.00
H124   H     9.49051  -6.56177  -0.23228   0.00000  Uiso   1.00
H125   H     9.58381  -6.54662  -0.98514   0.00000  Uiso   1.00
H126   H     9.64096  -6.43309  -0.93823   0.00000  Uiso   1.00
H127   H     9.53605  -6.41228  -0.94778   0.00000  Uiso   1.00
H128   H     9.42272  -6.47541  -0.97810   0.00000  Uiso   1.00
H129   H     9.40612  -6.40035  -0.21861   0.00000  Uiso   1.00
H130   H     9.51944  -6.33696  -0.18862   0.00000  Uiso   1.00
H131   H     9.87362  -6.43431  -0.14119   0.00000  Uiso   1.00
H132   H     9.52492  -6.09948  -0.31993   0.00000  Uiso   1.00
H133   H     9.04161  -6.71792  -0.37806   0.00000  Uiso   1.00
H134   H     9.12422  -6.64539  -0.06326   0.00000  Uiso   1.00
H135   H     9.23805  -6.58991  -0.06377   0.00000  Uiso   1.00
H136   H     9.23999  -6.49409  -0.79123   0.00000  Uiso   1.00
H137   H     9.12602  -6.54851  -0.78759   0.00000  Uiso   1.00
H138   H     9.11072  -6.51794  -0.06632   0.00000  Uiso   1.00
H139   H     9.16827  -6.40396  -0.08031   0.00000  Uiso   1.00
H140   H     9.06927  -6.40766  -0.79946   0.00000  Uiso   1.00
H141   H     9.01323  -6.52171  -0.79123   0.00000  Uiso   1.00
H142   H     9.33457  -6.49941  -0.21187   0.00000  Uiso   1.00
H143   H     9.25639  -6.92340  -0.57071   0.00000  Uiso   1.00
H144   H     9.31759  -6.85443  -0.22523   0.00000  Uiso   1.00
H145   H     9.36908  -6.74105  -0.18339   0.00000  Uiso   1.00
H146   H     9.48581  -6.72176  -0.85972   0.00000  Uiso   1.00
H147   H     9.43425  -6.83539  -0.90230   0.00000  Uiso   1.00
H148   H     9.45079  -6.86633  -0.22130   0.00000  Uiso   1.00
H149   H     9.56425  -6.81616  -0.20196   0.00000  Uiso   1.00
H150   H     9.56354  -6.90908  -0.93745   0.00000  Uiso   1.00
H151   H     9.45034  -6.95763  -0.96166   0.00000  Uiso   1.00
H152   H     9.44751  -6.64022  -0.31059   0.00000  Uiso   1.00
H153   H     9.92872  -6.77062  -0.35660   0.00000  Uiso   1.00
H154   H     9.85672  -6.66931  -0.01059   0.00000  Uiso   1.00
H155   H     9.74337  -6.71861  -0.01178   0.00000  Uiso   1.00
H156   H     9.73443  -6.82803  -0.70186   0.00000  Uiso   1.00
H157   H     9.84780  -6.77913  -0.70061   0.00000  Uiso   1.00
H158   H     9.97061  -6.53452  -0.05550   0.00000  Uiso   1.00
H159   H     9.91654  -6.47484  -0.08931   0.00000  Uiso   1.00
H160   H     9.82222  -6.57735  -0.80434   0.00000  Uiso   1.00
H161   H     9.87716  -6.63574  -0.77501   0.00000  Uiso   1.00
H162   H     9.64447  -6.78869  -0.19819   0.00000  Uiso   1.00
loop_
_geom_bond_atom_site_label_1
_geom_bond_atom_site_label_2
_geom_bond_distance
_geom_bond_site_symmetry_2
_ccdc_geom_bond_type
C1     C2      1.394   .     S
C1     H103    1.140   .     S
C1     C68     1.386   1_565 D
C2     C3      1.420   .     D
C2     C4      1.477   .     S
C3     C10     1.482   .     S
C3     C69     1.427   1_565 S
C4     C5      1.402   .     D
C4     C9      1.402   .     S
C5     C6      1.395   .     S
C5     H104    1.140   .     S
C6     C7      1.401   .     D
C6     H105    1.140   .     S
C7     C8      1.398   .     S
C7     C16     1.464   .     S
C8     C9      1.398   .     D
C8     H106    1.140   .     S
C9     H107    1.140   .     S
C10    C11     1.402   .     D
C10    C15     1.400   .     S
C11    C12     1.396   .     S
C11    H108    1.140   .     S
C12    C13     1.397   .     D
C12    H109    1.140   .     S
C13    C14     1.404   .     S
C13    N49     1.428   .     S
C14    C15     1.392   .     D
C14    H110    1.140   .     S
C15    H111    1.140   .     S
C16    N66     1.296   .     D
C16    H112    1.140   .     S
C17    C18     1.385   .     S
C17    C22     1.395   .     D
C17    H113    1.140   .     S
C18    C19     1.396   .     D
C18    H114    1.140   .     S
C19    C20     1.421   .     S
C19    C24     1.478   .     S
C20    C21     1.427   .     S
C20    C36     1.491   .     D
C21    C22     1.427   .     S
C21    C35     1.480   .     D
C22    C23     1.485   .     S
C23    C25     1.406   .     D
C23    C29     1.397   .     S
C24    C30     1.403   .     D
C24    C34     1.403   .     S
C25    C26     1.400   .     S
C25    H115    1.140   .     S
C26    C27     1.398   .     D
C26    H116    1.140   .     S
C27    C28     1.398   .     S
C27    C47     1.465   .     S
C28    C29     1.391   .     D
C28    H117    1.140   .     S
C29    H118    1.140   .     S
C30    C31     1.394   .     S
C30    H119    1.140   .     S
C31    C32     1.395   .     D
C31    H120    1.140   .     S
C32    C33     1.401   .     S
C32    C48     1.458   .     S
C33    C34     1.395   .     D
C33    H121    1.140   .     S
C34    H122    1.140   .     S
C35    C37     1.399   .     S
C35    C41     1.399   .     S
C36    C42     1.403   .     S
C36    C46     1.401   .     S
C37    C38     1.395   .     D
C37    H123    1.140   .     S
C38    C39     1.403   .     S
C38    H124    1.140   .     S
C39    C40     1.394   .     S
C39    N84     1.428   .     D
C40    C41     1.395   .     D
C40    H125    1.140   .     S
C41    H126    1.140   .     S
C42    C43     1.400   .     D
C42    H127    1.140   .     S
C43    C44     1.397   .     S
C43    H128    1.140   .     S
C44    C45     1.402   .     S
C44    N67     1.432   .     D
C45    C46     1.397   .     D
C45    H129    1.140   .     S
C46    H130    1.140   .     S
C47    N101    1.296   .     D
C47    H131    1.140   .     S
C48    N49     1.295   .     D
C48    H132    1.140   .     S
C50    C51     1.398   .     S
C50    H133    1.140   .     S
C50    C85     1.393   1_455 D
C51    C52     1.420   .     S
C51    C53     1.482   .     D
C52    C59     1.485   .     S
C52    C86     1.424   1_455 D
C53    C54     1.401   .     S
C53    C58     1.404   .     S
C54    C55     1.399   .     D
C54    H134    1.140   .     S
C55    C56     1.398   .     S
C55    H135    1.140   .     S
C56    C57     1.401   .     S
C56    C65     1.468   .     D
C57    C58     1.399   .     D
C57    H136    1.140   .     S
C58    H137    1.140   .     S
C59    C60     1.402   .     D
C59    C64     1.402   .     S
C60    C61     1.396   .     S
C60    H138    1.140   .     S
C61    C62     1.397   .     D
C61    H139    1.140   .     S
C62    C63     1.404   .     S
C62    N66     1.430   .     S
C63    C64     1.395   .     D
C63    H140    1.140   .     S
C64    H141    1.140   .     S
C65    N67     1.297   .     S
C65    H142    1.140   .     S
C68    C70     1.397   .     S
C68    H143    1.140   .     S
C68    C1      1.386   1_545 D
C69    C70     1.421   .     S
C69    C77     1.493   .     D
C69    C3      1.427   1_545 S
C70    C71     1.474   .     D
C71    C72     1.402   .     S
C71    C76     1.402   .     S
C72    C73     1.394   .     D
C72    H144    1.140   .     S
C73    C74     1.396   .     S
C73    H145    1.140   .     S
C74    C75     1.402   .     S
C74    C83     1.460   .     D
C75    C76     1.395   .     D
C75    H146    1.140   .     S
C76    H147    1.140   .     S
C77    C78     1.403   .     S
C77    C82     1.403   .     S
C78    C79     1.399   .     D
C78    H148    1.140   .     S
C79    C80     1.405   .     S
C79    H149    1.140   .     S
C80    C81     1.397   .     S
C80    N102    1.434   .     D
C81    C82     1.398   .     D
C81    H150    1.140   .     S
C82    H151    1.140   .     S
C83    N84     1.294   .     S
C83    H152    1.140   .     S
C85    C87     1.397   .     S
C85    H153    1.140   .     S
C85    C50     1.393   1_655 D
C86    C87     1.420   .     S
C86    C94     1.483   .     S
C86    C52     1.424   1_655 D
C87    C88     1.483   .     D
C88    C89     1.404   .     S
C88    C93     1.402   .     S
C89    C90     1.398   .     D
C89    H154    1.140   .     S
C90    C91     1.398   .     S
C90    H155    1.140   .     S
C91    C92     1.403   .     S
C91    C100    1.470   .     D
C92    C93     1.400   .     D
C92    H156    1.140   .     S
C93    H157    1.140   .     S
C94    C95     1.402   .     S
C94    C99     1.400   .     D
C95    C96     1.397   .     D
C95    H158    1.140   .     S
C96    C97     1.404   .     S
C96    H159    1.140   .     S
C97    C98     1.396   .     D
C97    N101    1.428   .     S
C98    C99     1.394   .     S
C98    H160    1.140   .     S
C99    H161    1.140   .     S
C100   N102    1.297   .     S
C100   H162    1.140   .     S
