data_1129
_audit_creation_date              2023-09-08
_audit_creation_method            'Materials Studio'
_symmetry_space_group_name_H-M    'P1'
_symmetry_Int_Tables_number       1
_symmetry_cell_setting            triclinic
loop_
_symmetry_equiv_pos_as_xyz
  x,y,z
_cell_length_a                    38.8218
_cell_length_b                    38.8218
_cell_length_c                    3.5319
_cell_angle_alpha                 90.0000
_cell_angle_beta                  90.0000
_cell_angle_gamma                 120.0000
loop_
_atom_site_label
_atom_site_type_symbol
_atom_site_fract_x
_atom_site_fract_y
_atom_site_fract_z
_atom_site_U_iso_or_equiv
_atom_site_adp_type
_atom_site_occupancy
C1     C     0.70732   0.35776   0.00000   0.00000  Uiso   1.00
N2     N     0.68242   0.37278   0.00000   0.00000  Uiso   1.00
C3     C     0.83384   0.43378   0.00000   0.00000  Uiso   1.00
C4     C     0.80843   0.44986   0.00000   0.00000  Uiso   1.00
C5     C     0.76683   0.42493   0.00000   0.00000  Uiso   1.00
C6     C     0.74919   0.38291   0.00000   0.00000  Uiso   1.00
C7     C     0.77516   0.36708   0.00000   0.00000  Uiso   1.00
C8     C     0.81677   0.39202   0.00000   0.00000  Uiso   1.00
H9     H     0.82038   0.48010   0.00000   0.00000  Uiso   1.00
H10    H     0.74949   0.43791   0.00000   0.00000  Uiso   1.00
H11    H     0.76395   0.33697   0.00000   0.00000  Uiso   1.00
H12    H     0.83429   0.37933   0.00000   0.00000  Uiso   1.00
N13    N     0.12669   0.53971   0.00000   0.00000  Uiso   1.00
C14    C     0.09421   0.54400   0.00000   0.00000  Uiso   1.00
C15    C     0.05433   0.51174   0.00000   0.00000  Uiso   1.00
C16    C     0.01995   0.51687   0.00000   0.00000  Uiso   1.00
C17    C     0.97630   0.44482   0.00000   0.00000  Uiso   1.00
C18    C     0.00928   0.43951   0.00000   0.00000  Uiso   1.00
C19    C     0.04774   0.47224   0.00000   0.00000  Uiso   1.00
O20    O     0.07679   0.46255   0.00000   0.00000  Uiso   1.00
H21    H     0.09983   0.57241   0.00000   0.00000  Uiso   1.00
H22    H     0.94957   0.41925   0.00000   0.00000  Uiso   1.00
H23    H     0.00518   0.41136   0.00000   0.00000  Uiso   1.00
H24    H     0.92978   0.56523   0.00000   0.00000  Uiso   1.00
C25    C     0.64224   0.34956   0.00000   0.00000  Uiso   1.00
N26    N     0.62722   0.30964   0.00000   0.00000  Uiso   1.00
C27    C     0.56622   0.40006   0.00000   0.00000  Uiso   1.00
C28    C     0.55014   0.35857   0.00000   0.00000  Uiso   1.00
C29    C     0.57507   0.34190   0.00000   0.00000  Uiso   1.00
C30    C     0.61709   0.36628   0.00000   0.00000  Uiso   1.00
C31    C     0.63292   0.40808   0.00000   0.00000  Uiso   1.00
C32    C     0.60798   0.42475   0.00000   0.00000  Uiso   1.00
H33    H     0.51990   0.34028   0.00000   0.00000  Uiso   1.00
H34    H     0.56209   0.31158   0.00000   0.00000  Uiso   1.00
H35    H     0.66303   0.42698   0.00000   0.00000  Uiso   1.00
H36    H     0.62067   0.45496   0.00000   0.00000  Uiso   1.00
N37    N     0.46029   0.58698   0.00000   0.00000  Uiso   1.00
C38    C     0.45600   0.55021   0.00000   0.00000  Uiso   1.00
C39    C     0.48826   0.54259   0.00000   0.00000  Uiso   1.00
C40    C     0.48313   0.50308   0.00000   0.00000  Uiso   1.00
C41    C     0.55518   0.53148   0.00000   0.00000  Uiso   1.00
C42    C     0.56049   0.56977   0.00000   0.00000  Uiso   1.00
C43    C     0.52776   0.57550   0.00000   0.00000  Uiso   1.00
O44    O     0.53745   0.61424   0.00000   0.00000  Uiso   1.00
H45    H     0.42759   0.52742   0.00000   0.00000  Uiso   1.00
H46    H     0.58075   0.53032   0.00000   0.00000  Uiso   1.00
H47    H     0.58864   0.59382   0.00000   0.00000  Uiso   1.00
H48    H     0.43477   0.36455   0.00000   0.00000  Uiso   1.00
C49    C     0.65044   0.29268   0.00000   0.00000  Uiso   1.00
N50    N     0.69036   0.31758   0.00000   0.00000  Uiso   1.00
C51    C     0.59994   0.16616   0.00000   0.00000  Uiso   1.00
C52    C     0.64143   0.19157   0.00000   0.00000  Uiso   1.00
C53    C     0.65810   0.23317   0.00000   0.00000  Uiso   1.00
C54    C     0.63372   0.25081   0.00000   0.00000  Uiso   1.00
C55    C     0.59192   0.22484   0.00000   0.00000  Uiso   1.00
C56    C     0.57525   0.18323   0.00000   0.00000  Uiso   1.00
H57    H     0.65972   0.17962   0.00000   0.00000  Uiso   1.00
H58    H     0.68842   0.25051   0.00000   0.00000  Uiso   1.00
H59    H     0.57302   0.23605   0.00000   0.00000  Uiso   1.00
H60    H     0.54504   0.16571   0.00000   0.00000  Uiso   1.00
N61    N     0.41302   0.87331   0.00000   0.00000  Uiso   1.00
C62    C     0.44979   0.90579   0.00000   0.00000  Uiso   1.00
C63    C     0.45741   0.94567   0.00000   0.00000  Uiso   1.00
C64    C     0.49692   0.98005   0.00000   0.00000  Uiso   1.00
C65    C     0.46852   0.02370   0.00000   0.00000  Uiso   1.00
C66    C     0.43023   0.99072   0.00000   0.00000  Uiso   1.00
C67    C     0.42450   0.95226   0.00000   0.00000  Uiso   1.00
O68    O     0.38576   0.92321   0.00000   0.00000  Uiso   1.00
H69    H     0.47258   0.90017   0.00000   0.00000  Uiso   1.00
H70    H     0.46968   0.05043   0.00000   0.00000  Uiso   1.00
H71    H     0.40618   0.99482   0.00000   0.00000  Uiso   1.00
H72    H     0.63545   0.07022   0.00000   0.00000  Uiso   1.00
C73    C     0.29268   0.64224   0.00000   0.00000  Uiso   1.00
N74    N     0.31758   0.62722   0.00000   0.00000  Uiso   1.00
C75    C     0.16616   0.56622   0.00000   0.00000  Uiso   1.00
C76    C     0.19157   0.55014   0.00000   0.00000  Uiso   1.00
C77    C     0.23317   0.57507   0.00000   0.00000  Uiso   1.00
C78    C     0.25081   0.61709   0.00000   0.00000  Uiso   1.00
C79    C     0.22484   0.63292   0.00000   0.00000  Uiso   1.00
C80    C     0.18323   0.60798   0.00000   0.00000  Uiso   1.00
H81    H     0.17962   0.51990   0.00000   0.00000  Uiso   1.00
H82    H     0.25051   0.56209   0.00000   0.00000  Uiso   1.00
H83    H     0.23605   0.66303   0.00000   0.00000  Uiso   1.00
H84    H     0.16571   0.62067   0.00000   0.00000  Uiso   1.00
N85    N     0.87331   0.46029   0.00000   0.00000  Uiso   1.00
C86    C     0.90579   0.45600   0.00000   0.00000  Uiso   1.00
C87    C     0.94567   0.48826   0.00000   0.00000  Uiso   1.00
C88    C     0.98005   0.48313   0.00000   0.00000  Uiso   1.00
C89    C     0.02370   0.55518   0.00000   0.00000  Uiso   1.00
C90    C     0.99072   0.56049   0.00000   0.00000  Uiso   1.00
C91    C     0.95226   0.52776   0.00000   0.00000  Uiso   1.00
O92    O     0.92321   0.53745   0.00000   0.00000  Uiso   1.00
H93    H     0.90017   0.42759   0.00000   0.00000  Uiso   1.00
H94    H     0.05043   0.58075   0.00000   0.00000  Uiso   1.00
H95    H     0.99482   0.58864   0.00000   0.00000  Uiso   1.00
H96    H     0.07022   0.43477   0.00000   0.00000  Uiso   1.00
C97    C     0.35776   0.65044   0.00000   0.00000  Uiso   1.00
N98    N     0.37278   0.69036   0.00000   0.00000  Uiso   1.00
C99    C     0.43378   0.59994   0.00000   0.00000  Uiso   1.00
C100   C     0.44986   0.64143   0.00000   0.00000  Uiso   1.00
C101   C     0.42493   0.65810   0.00000   0.00000  Uiso   1.00
C102   C     0.38291   0.63372   0.00000   0.00000  Uiso   1.00
C103   C     0.36708   0.59192   0.00000   0.00000  Uiso   1.00
C104   C     0.39202   0.57525   0.00000   0.00000  Uiso   1.00
H105   H     0.48010   0.65972   0.00000   0.00000  Uiso   1.00
H106   H     0.43791   0.68842   0.00000   0.00000  Uiso   1.00
H107   H     0.33697   0.57302   0.00000   0.00000  Uiso   1.00
H108   H     0.37933   0.54504   0.00000   0.00000  Uiso   1.00
N109   N     0.53971   0.41302   0.00000   0.00000  Uiso   1.00
C110   C     0.54400   0.44979   0.00000   0.00000  Uiso   1.00
C111   C     0.51174   0.45741   0.00000   0.00000  Uiso   1.00
C112   C     0.51687   0.49692   0.00000   0.00000  Uiso   1.00
C113   C     0.44482   0.46852   0.00000   0.00000  Uiso   1.00
C114   C     0.43951   0.43023   0.00000   0.00000  Uiso   1.00
C115   C     0.47224   0.42450   0.00000   0.00000  Uiso   1.00
O116   O     0.46255   0.38576   0.00000   0.00000  Uiso   1.00
H117   H     0.57241   0.47258   0.00000   0.00000  Uiso   1.00
H118   H     0.41925   0.46968   0.00000   0.00000  Uiso   1.00
H119   H     0.41136   0.40618   0.00000   0.00000  Uiso   1.00
H120   H     0.56523   0.63545   0.00000   0.00000  Uiso   1.00
C121   C     0.34956   0.70732   0.00000   0.00000  Uiso   1.00
N122   N     0.30964   0.68242   0.00000   0.00000  Uiso   1.00
C123   C     0.40006   0.83384   0.00000   0.00000  Uiso   1.00
C124   C     0.35857   0.80843   0.00000   0.00000  Uiso   1.00
C125   C     0.34190   0.76683   0.00000   0.00000  Uiso   1.00
C126   C     0.36628   0.74919   0.00000   0.00000  Uiso   1.00
C127   C     0.40808   0.77516   0.00000   0.00000  Uiso   1.00
C128   C     0.42475   0.81677   0.00000   0.00000  Uiso   1.00
H129   H     0.34028   0.82038   0.00000   0.00000  Uiso   1.00
H130   H     0.31158   0.74949   0.00000   0.00000  Uiso   1.00
H131   H     0.42698   0.76395   0.00000   0.00000  Uiso   1.00
H132   H     0.45496   0.83429   0.00000   0.00000  Uiso   1.00
N133   N     0.58698   0.12669   0.00000   0.00000  Uiso   1.00
C134   C     0.55021   0.09421   0.00000   0.00000  Uiso   1.00
C135   C     0.54259   0.05433   0.00000   0.00000  Uiso   1.00
C136   C     0.50308   0.01995   0.00000   0.00000  Uiso   1.00
C137   C     0.53148   0.97630   0.00000   0.00000  Uiso   1.00
C138   C     0.56977   0.00928   0.00000   0.00000  Uiso   1.00
C139   C     0.57550   0.04774   0.00000   0.00000  Uiso   1.00
O140   O     0.61424   0.07679   0.00000   0.00000  Uiso   1.00
H141   H     0.52742   0.09983   0.00000   0.00000  Uiso   1.00
H142   H     0.53032   0.94957   0.00000   0.00000  Uiso   1.00
H143   H     0.59382   0.00518   0.00000   0.00000  Uiso   1.00
H144   H     0.36455   0.92978   0.00000   0.00000  Uiso   1.00
loop_
_geom_bond_atom_site_label_1
_geom_bond_atom_site_label_2
_geom_bond_distance
_geom_bond_site_symmetry_2
_ccdc_geom_bond_type
C1     N2      1.356   .     S
C1     C6      1.417   .     S
C1     N50     1.356   .     D
N2     C25     1.356   .     D
C3     C4      1.407   .     D
C3     C8      1.412   .     S
C3     N85     1.353   .     S
C4     C5      1.408   .     S
C4     H9      1.024   .     S
C5     C6      1.419   .     D
C5     H10     1.023   .     S
C6     C7      1.419   .     S
C7     C8      1.408   .     D
C7     H11     1.023   .     S
C8     H12     1.020   .     S
N13    C14     1.352   .     D
N13    C75     1.353   .     S
C14    C15     1.424   .     S
C14    H21     1.012   .     S
C15    C16     1.445   .     D
C15    C19     1.423   .     S
C16    C89     1.420   .     S
C16    C88     1.444   1_455 S
C17    H22     1.016   .     S
C17    C88     1.420   .     D
C17    C18     1.395   1_655 S
C18    C19     1.395   .     D
C18    H23     1.023   .     S
C18    C17     1.395   1_455 S
C19    O20     1.356   .     S
O20    H96     0.976   .     S
H24    O92     0.976   .     S
C25    N26     1.356   .     S
C25    C30     1.417   .     S
N26    C49     1.356   .     D
C27    C28     1.407   .     D
C27    C32     1.412   .     S
C27    N109    1.353   .     S
C28    C29     1.408   .     S
C28    H33     1.024   .     S
C29    C30     1.419   .     D
C29    H34     1.023   .     S
C30    C31     1.419   .     S
C31    C32     1.408   .     D
C31    H35     1.023   .     S
C32    H36     1.020   .     S
N37    C38     1.352   .     D
N37    C99     1.353   .     S
C38    C39     1.424   .     S
C38    H45     1.012   .     S
C39    C40     1.445   .     D
C39    C43     1.423   .     S
C40    C113    1.420   .     S
C40    C112    1.444   .     S
C41    C42     1.395   .     S
C41    H46     1.016   .     S
C41    C112    1.420   .     D
C42    C43     1.395   .     D
C42    H47     1.023   .     S
C43    O44     1.356   .     S
O44    H120    0.976   .     S
H48    O116    0.976   .     S
C49    N50     1.356   .     S
C49    C54     1.417   .     S
C51    C52     1.407   .     S
C51    C56     1.412   .     D
C51    N133    1.353   .     S
C52    C53     1.408   .     D
C52    H57     1.024   .     S
C53    C54     1.419   .     S
C53    H58     1.023   .     S
C54    C55     1.419   .     D
C55    C56     1.408   .     S
C55    H59     1.023   .     S
C56    H60     1.020   .     S
N61    C62     1.352   .     D
N61    C123    1.353   .     S
C62    C63     1.424   .     S
C62    H69     1.012   .     S
C63    C64     1.445   .     S
C63    C67     1.423   .     D
C64    C137    1.420   .     S
C64    C136    1.444   1_565 D
C65    H70     1.016   .     S
C65    C136    1.420   .     S
C65    C66     1.395   1_545 D
C66    C67     1.395   .     S
C66    H71     1.023   .     S
C66    C65     1.395   1_565 D
C67    O68     1.356   .     S
O68    H144    0.976   .     S
H72    O140    0.976   .     S
C73    N74     1.356   .     D
C73    C78     1.417   .     S
C73    N122    1.356   .     S
N74    C97     1.356   .     S
C75    C76     1.407   .     D
C75    C80     1.412   .     S
C76    C77     1.408   .     S
C76    H81     1.024   .     S
C77    C78     1.419   .     D
C77    H82     1.023   .     S
C78    C79     1.419   .     S
C79    C80     1.408   .     D
C79    H83     1.023   .     S
C80    H84     1.020   .     S
N85    C86     1.352   .     D
C86    C87     1.424   .     S
C86    H93     1.012   .     S
C87    C88     1.445   .     S
C87    C91     1.423   .     D
C88    C16     1.444   1_655 S
C89    H94     1.016   .     S
C89    C90     1.395   1_455 D
C90    C91     1.395   .     S
C90    H95     1.023   .     S
C90    C89     1.395   1_655 D
C91    O92     1.356   .     S
C97    N98     1.356   .     D
C97    C102    1.417   .     S
N98    C121    1.356   .     S
C99    C100    1.407   .     D
C99    C104    1.412   .     S
C100   C101    1.408   .     S
C100   H105    1.024   .     S
C101   C102    1.419   .     D
C101   H106    1.023   .     S
C102   C103    1.419   .     S
C103   C104    1.408   .     D
C103   H107    1.023   .     S
C104   H108    1.020   .     S
N109   C110    1.352   .     D
C110   C111    1.424   .     S
C110   H117    1.012   .     S
C111   C112    1.445   .     S
C111   C115    1.423   .     D
C113   C114    1.395   .     D
C113   H118    1.016   .     S
C114   C115    1.395   .     S
C114   H119    1.023   .     S
C115   O116    1.356   .     S
C121   N122    1.356   .     D
C121   C126    1.417   .     S
C123   C124    1.407   .     S
C123   C128    1.412   .     D
C124   C125    1.408   .     D
C124   H129    1.024   .     S
C125   C126    1.419   .     S
C125   H130    1.023   .     S
C126   C127    1.419   .     D
C127   C128    1.408   .     S
C127   H131    1.023   .     S
C128   H132    1.020   .     S
N133   C134    1.352   .     D
C134   C135    1.424   .     S
C134   H141    1.012   .     S
C135   C136    1.445   .     S
C135   C139    1.423   .     D
C136   C64     1.444   1_545 D
C137   H142    1.016   .     S
C137   C138    1.395   1_565 D
C138   C139    1.395   .     S
C138   H143    1.023   .     S
C138   C137    1.395   1_545 D
C139   O140    1.356   .     S
