data_113
_audit_creation_date              2023-09-08
_audit_creation_method            'Materials Studio'
_symmetry_space_group_name_H-M    'P1'
_symmetry_Int_Tables_number       1
_symmetry_cell_setting            triclinic
loop_
_symmetry_equiv_pos_as_xyz
  x,y,z
_cell_length_a                    41.1020
_cell_length_b                    32.4036
_cell_length_c                    4.6700
_cell_angle_alpha                 90.0000
_cell_angle_beta                  90.0000
_cell_angle_gamma                 90.0000
loop_
_atom_site_label
_atom_site_type_symbol
_atom_site_fract_x
_atom_site_fract_y
_atom_site_fract_z
_atom_site_U_iso_or_equiv
_atom_site_adp_type
_atom_site_occupancy
C1     C     0.36479   0.36757  -0.30182   0.00000  Uiso   1.00
C2     C     0.63521   0.63243  -0.30182   0.00000  Uiso   1.00
C3     C     0.63521   0.36757   0.30182   0.00000  Uiso   1.00
C4     C     0.36479   0.63243   0.30182   0.00000  Uiso   1.00
C5     C     0.13521   0.13243   0.30182   0.00000  Uiso   1.00
C6     C     0.86479   0.86757   0.30182   0.00000  Uiso   1.00
C7     C     0.86479   0.13243  -0.30182   0.00000  Uiso   1.00
C8     C     0.13521   0.86757  -0.30182   0.00000  Uiso   1.00
C9     C     0.39294   0.39285  -0.28911   0.00000  Uiso   1.00
C10    C     0.60706   0.60715  -0.28911   0.00000  Uiso   1.00
C11    C     0.60706   0.39285   0.28911   0.00000  Uiso   1.00
C12    C     0.39294   0.60715   0.28911   0.00000  Uiso   1.00
C13    C     0.10706   0.10715   0.28911   0.00000  Uiso   1.00
C14    C     0.89294   0.89285   0.28911   0.00000  Uiso   1.00
C15    C     0.89294   0.10715  -0.28911   0.00000  Uiso   1.00
C16    C     0.10706   0.89285  -0.28911   0.00000  Uiso   1.00
H17    H     0.34964   0.36912  -0.49128   0.00000  Uiso   1.00
H18    H     0.65036   0.63088  -0.49128   0.00000  Uiso   1.00
H19    H     0.65036   0.36912   0.49128   0.00000  Uiso   1.00
H20    H     0.34964   0.63088   0.49128   0.00000  Uiso   1.00
H21    H     0.15036   0.13088   0.49128   0.00000  Uiso   1.00
H22    H     0.84964   0.86912   0.49128   0.00000  Uiso   1.00
H23    H     0.84964   0.13088  -0.49128   0.00000  Uiso   1.00
H24    H     0.15036   0.86912  -0.49128   0.00000  Uiso   1.00
H25    H     0.39808   0.41306  -0.46832   0.00000  Uiso   1.00
H26    H     0.60192   0.58694  -0.46832   0.00000  Uiso   1.00
H27    H     0.60192   0.41306   0.46832   0.00000  Uiso   1.00
H28    H     0.39808   0.58694   0.46832   0.00000  Uiso   1.00
H29    H     0.10192   0.08694   0.46832   0.00000  Uiso   1.00
H30    H     0.89808   0.91306   0.46832   0.00000  Uiso   1.00
H31    H     0.89808   0.08694  -0.46832   0.00000  Uiso   1.00
H32    H     0.10192   0.91306  -0.46832   0.00000  Uiso   1.00
C33    C     0.87662   0.84086  -0.16694   0.00000  Uiso   1.00
C34    C     0.12338   0.15914  -0.16694   0.00000  Uiso   1.00
C35    C     0.12338   0.84086   0.16694   0.00000  Uiso   1.00
C36    C     0.87662   0.15914   0.16694   0.00000  Uiso   1.00
C37    C     0.62338   0.65914   0.16694   0.00000  Uiso   1.00
C38    C     0.37662   0.34086   0.16694   0.00000  Uiso   1.00
C39    C     0.37662   0.65914  -0.16694   0.00000  Uiso   1.00
C40    C     0.62338   0.34086  -0.16694   0.00000  Uiso   1.00
C41    C     0.90534   0.86589  -0.17774   0.00000  Uiso   1.00
C42    C     0.09466   0.13411  -0.17774   0.00000  Uiso   1.00
C43    C     0.09466   0.86589   0.17774   0.00000  Uiso   1.00
C44    C     0.90534   0.13411   0.17774   0.00000  Uiso   1.00
C45    C     0.59466   0.63411   0.17774   0.00000  Uiso   1.00
C46    C     0.40534   0.36589   0.17774   0.00000  Uiso   1.00
C47    C     0.40534   0.63411  -0.17774   0.00000  Uiso   1.00
C48    C     0.59466   0.36589  -0.17774   0.00000  Uiso   1.00
H49    H     0.87112   0.82157  -0.34940   0.00000  Uiso   1.00
H50    H     0.12888   0.17843  -0.34940   0.00000  Uiso   1.00
H51    H     0.12888   0.82157   0.34940   0.00000  Uiso   1.00
H52    H     0.87112   0.17843   0.34940   0.00000  Uiso   1.00
H53    H     0.62888   0.67843   0.34940   0.00000  Uiso   1.00
H54    H     0.37112   0.32157   0.34940   0.00000  Uiso   1.00
H55    H     0.37112   0.67843  -0.34940   0.00000  Uiso   1.00
H56    H     0.62888   0.32157  -0.34940   0.00000  Uiso   1.00
H57    H     0.92007   0.86523  -0.36991   0.00000  Uiso   1.00
H58    H     0.07993   0.13477  -0.36991   0.00000  Uiso   1.00
H59    H     0.07993   0.86523   0.36991   0.00000  Uiso   1.00
H60    H     0.92007   0.13477   0.36991   0.00000  Uiso   1.00
H61    H     0.57993   0.63477   0.36991   0.00000  Uiso   1.00
H62    H     0.42007   0.36523   0.36991   0.00000  Uiso   1.00
H63    H     0.42007   0.63477  -0.36991   0.00000  Uiso   1.00
H64    H     0.57993   0.36523  -0.36991   0.00000  Uiso   1.00
N65    N     0.17350   0.18078   0.09669   0.00000  Uiso   1.00
N66    N     0.82650   0.81922   0.09669   0.00000  Uiso   1.00
N67    N     0.82650   0.18078  -0.09669   0.00000  Uiso   1.00
N68    N     0.17350   0.81922  -0.09669   0.00000  Uiso   1.00
N69    N     0.32650   0.31922  -0.09669   0.00000  Uiso   1.00
N70    N     0.67350   0.68078  -0.09669   0.00000  Uiso   1.00
N71    N     0.67350   0.31922   0.09669   0.00000  Uiso   1.00
N72    N     0.32650   0.68078   0.09669   0.00000  Uiso   1.00
C73    C     0.18863   0.20689  -0.09600   0.00000  Uiso   1.00
C74    C     0.81137   0.79311  -0.09600   0.00000  Uiso   1.00
C75    C     0.81137   0.20689   0.09600   0.00000  Uiso   1.00
C76    C     0.18863   0.79311   0.09600   0.00000  Uiso   1.00
C77    C     0.31137   0.29311   0.09600   0.00000  Uiso   1.00
C78    C     0.68863   0.70689   0.09600   0.00000  Uiso   1.00
C79    C     0.68863   0.29311  -0.09600   0.00000  Uiso   1.00
C80    C     0.31137   0.70689  -0.09600   0.00000  Uiso   1.00
C81    C     0.21920   0.22804  -0.04313   0.00000  Uiso   1.00
C82    C     0.78080   0.77196  -0.04313   0.00000  Uiso   1.00
C83    C     0.78080   0.22804   0.04313   0.00000  Uiso   1.00
C84    C     0.21920   0.77196   0.04313   0.00000  Uiso   1.00
C85    C     0.28080   0.27196   0.04313   0.00000  Uiso   1.00
C86    C     0.71920   0.72804   0.04313   0.00000  Uiso   1.00
C87    C     0.71920   0.27196  -0.04313   0.00000  Uiso   1.00
C88    C     0.28080   0.72804  -0.04313   0.00000  Uiso   1.00
C89    C     0.23675   0.22511   0.21645   0.00000  Uiso   1.00
C90    C     0.76325   0.77489   0.21645   0.00000  Uiso   1.00
C91    C     0.76325   0.22511  -0.21645   0.00000  Uiso   1.00
C92    C     0.23675   0.77489  -0.21645   0.00000  Uiso   1.00
C93    C     0.26325   0.27489  -0.21645   0.00000  Uiso   1.00
C94    C     0.73675   0.72511  -0.21645   0.00000  Uiso   1.00
C95    C     0.73675   0.27489   0.21645   0.00000  Uiso   1.00
C96    C     0.26325   0.72511   0.21645   0.00000  Uiso   1.00
C97    C     0.23330   0.25350  -0.25797   0.00000  Uiso   1.00
C98    C     0.76670   0.74650  -0.25797   0.00000  Uiso   1.00
C99    C     0.76670   0.25350   0.25797   0.00000  Uiso   1.00
C100   C     0.23330   0.74650   0.25797   0.00000  Uiso   1.00
C101   C     0.26670   0.24650   0.25797   0.00000  Uiso   1.00
C102   C     0.73330   0.75350   0.25797   0.00000  Uiso   1.00
C103   C     0.73330   0.24650  -0.25797   0.00000  Uiso   1.00
C104   C     0.26670   0.75350  -0.25797   0.00000  Uiso   1.00
C105   C     0.47325   0.41255  -0.00567   0.00000  Uiso   1.00
C106   C     0.52675   0.58745  -0.00567   0.00000  Uiso   1.00
C107   C     0.52675   0.41255   0.00567   0.00000  Uiso   1.00
C108   C     0.47325   0.58745   0.00567   0.00000  Uiso   1.00
C109   C     0.02675   0.08745   0.00567   0.00000  Uiso   1.00
C110   C     0.97325   0.91255   0.00567   0.00000  Uiso   1.00
C111   C     0.97325   0.08745  -0.00567   0.00000  Uiso   1.00
C112   C     0.02675   0.91255  -0.00567   0.00000  Uiso   1.00
C113   C     0.41389   0.39321  -0.04814   0.00000  Uiso   1.00
C114   C     0.58611   0.60679  -0.04814   0.00000  Uiso   1.00
C115   C     0.58611   0.39321   0.04814   0.00000  Uiso   1.00
C116   C     0.41389   0.60679   0.04814   0.00000  Uiso   1.00
C117   C     0.08611   0.10679   0.04814   0.00000  Uiso   1.00
C118   C     0.91389   0.89321   0.04814   0.00000  Uiso   1.00
C119   C     0.91389   0.10679  -0.04814   0.00000  Uiso   1.00
C120   C     0.08611   0.89321  -0.04814   0.00000  Uiso   1.00
C121   C     0.43990   0.42410  -0.02256   0.00000  Uiso   1.00
C122   C     0.56010   0.57590  -0.02256   0.00000  Uiso   1.00
C123   C     0.56010   0.42410   0.02256   0.00000  Uiso   1.00
C124   C     0.43990   0.57590   0.02256   0.00000  Uiso   1.00
C125   C     0.06010   0.07590   0.02256   0.00000  Uiso   1.00
C126   C     0.93990   0.92410   0.02256   0.00000  Uiso   1.00
C127   C     0.93990   0.07590  -0.02256   0.00000  Uiso   1.00
C128   C     0.06010   0.92410  -0.02256   0.00000  Uiso   1.00
C129   C     0.35542   0.34159  -0.07360   0.00000  Uiso   1.00
C130   C     0.64458   0.65841  -0.07360   0.00000  Uiso   1.00
C131   C     0.64458   0.34159   0.07360   0.00000  Uiso   1.00
C132   C     0.35542   0.65841   0.07360   0.00000  Uiso   1.00
C133   C     0.14458   0.15841   0.07360   0.00000  Uiso   1.00
C134   C     0.85542   0.84159   0.07360   0.00000  Uiso   1.00
C135   C     0.85542   0.15841  -0.07360   0.00000  Uiso   1.00
C136   C     0.14458   0.84159  -0.07360   0.00000  Uiso   1.00
C137   C     0.43125   0.46638  -0.01566   0.00000  Uiso   1.00
C138   C     0.56875   0.53362  -0.01566   0.00000  Uiso   1.00
C139   C     0.56875   0.46638   0.01566   0.00000  Uiso   1.00
C140   C     0.43125   0.53362   0.01566   0.00000  Uiso   1.00
C141   C     0.06875   0.03362   0.01566   0.00000  Uiso   1.00
C142   C     0.93125   0.96638   0.01566   0.00000  Uiso   1.00
C143   C     0.93125   0.03362  -0.01566   0.00000  Uiso   1.00
C144   C     0.06875   0.96638  -0.01566   0.00000  Uiso   1.00
C145   C     0.48297   0.37167  -0.00508   0.00000  Uiso   1.00
C146   C     0.51703   0.62833  -0.00508   0.00000  Uiso   1.00
C147   C     0.51703   0.37167   0.00508   0.00000  Uiso   1.00
C148   C     0.48297   0.62833   0.00508   0.00000  Uiso   1.00
C149   C     0.01703   0.12833   0.00508   0.00000  Uiso   1.00
C150   C     0.98297   0.87167   0.00508   0.00000  Uiso   1.00
C151   C     0.98297   0.12833  -0.00508   0.00000  Uiso   1.00
C152   C     0.01703   0.87167  -0.00508   0.00000  Uiso   1.00
C153   C     0.39899   0.47868  -0.00741   0.00000  Uiso   1.00
C154   C     0.60101   0.52132  -0.00741   0.00000  Uiso   1.00
C155   C     0.60101   0.47868   0.00741   0.00000  Uiso   1.00
C156   C     0.39899   0.52132   0.00741   0.00000  Uiso   1.00
C157   C     0.10101   0.02132   0.00741   0.00000  Uiso   1.00
C158   C     0.89899   0.97868   0.00741   0.00000  Uiso   1.00
C159   C     0.89899   0.02132  -0.00741   0.00000  Uiso   1.00
C160   C     0.10101   0.97868  -0.00741   0.00000  Uiso   1.00
H161   H     0.17732   0.21172  -0.30251   0.00000  Uiso   1.00
H162   H     0.82268   0.78828  -0.30251   0.00000  Uiso   1.00
H163   H     0.82268   0.21172   0.30251   0.00000  Uiso   1.00
H164   H     0.17732   0.78828   0.30251   0.00000  Uiso   1.00
H165   H     0.32268   0.28828   0.30251   0.00000  Uiso   1.00
H166   H     0.67732   0.71172   0.30251   0.00000  Uiso   1.00
H167   H     0.67732   0.28828  -0.30251   0.00000  Uiso   1.00
H168   H     0.32268   0.71172  -0.30251   0.00000  Uiso   1.00
H169   H     0.22738   0.20629   0.38948   0.00000  Uiso   1.00
H170   H     0.77262   0.79371   0.38948   0.00000  Uiso   1.00
H171   H     0.77262   0.20629  -0.38948   0.00000  Uiso   1.00
H172   H     0.22738   0.79371  -0.38948   0.00000  Uiso   1.00
H173   H     0.27262   0.29371  -0.38948   0.00000  Uiso   1.00
H174   H     0.72738   0.70629  -0.38948   0.00000  Uiso   1.00
H175   H     0.72738   0.29371   0.38948   0.00000  Uiso   1.00
H176   H     0.27262   0.70629   0.38948   0.00000  Uiso   1.00
H177   H     0.22108   0.25695  -0.46213   0.00000  Uiso   1.00
H178   H     0.77892   0.74305  -0.46213   0.00000  Uiso   1.00
H179   H     0.77892   0.25695   0.46213   0.00000  Uiso   1.00
H180   H     0.22108   0.74305   0.46213   0.00000  Uiso   1.00
H181   H     0.27892   0.24305   0.46213   0.00000  Uiso   1.00
H182   H     0.72108   0.75695   0.46213   0.00000  Uiso   1.00
H183   H     0.72108   0.24305  -0.46213   0.00000  Uiso   1.00
H184   H     0.27892   0.75695  -0.46213   0.00000  Uiso   1.00
H185   H     0.46774   0.34447  -0.01284   0.00000  Uiso   1.00
H186   H     0.53226   0.65553  -0.01284   0.00000  Uiso   1.00
H187   H     0.53226   0.34447   0.01284   0.00000  Uiso   1.00
H188   H     0.46774   0.65553   0.01284   0.00000  Uiso   1.00
H189   H     0.03226   0.15553   0.01284   0.00000  Uiso   1.00
H190   H     0.96774   0.84447   0.01284   0.00000  Uiso   1.00
H191   H     0.96774   0.15553  -0.01284   0.00000  Uiso   1.00
H192   H     0.03226   0.84447  -0.01284   0.00000  Uiso   1.00
H193   H     0.62280   0.54003  -0.00872   0.00000  Uiso   1.00
H194   H     0.37720   0.45997  -0.00872   0.00000  Uiso   1.00
H195   H     0.37720   0.54003   0.00872   0.00000  Uiso   1.00
H196   H     0.62280   0.45997   0.00872   0.00000  Uiso   1.00
H197   H     0.87720   0.95997   0.00872   0.00000  Uiso   1.00
H198   H     0.12280   0.04003   0.00872   0.00000  Uiso   1.00
H199   H     0.12280   0.95997  -0.00872   0.00000  Uiso   1.00
H200   H     0.87720   0.04003  -0.00872   0.00000  Uiso   1.00
N201   N     0.45171   0.50000   0.00000   0.00000  Uiso   1.00
N202   N     0.54829   0.50000   0.00000   0.00000  Uiso   1.00
N203   N     0.04829   0.00000   0.00000   0.00000  Uiso   1.00
N204   N     0.95171   0.00000   0.00000   0.00000  Uiso   1.00
Co205  Co    0.50000   0.50000   0.00000   0.00000  Uiso   1.00
Co206  Co    0.00000   0.00000   0.00000   0.00000  Uiso   1.00
N207   N     0.50000   0.56156   0.00000   0.00000  Uiso   1.00
N208   N     0.50000   0.43844   0.00000   0.00000  Uiso   1.00
N209   N     0.00000   0.93844   0.00000   0.00000  Uiso   1.00
N210   N     0.00000   0.06156   0.00000   0.00000  Uiso   1.00
loop_
_geom_bond_atom_site_label_1
_geom_bond_atom_site_label_2
_geom_bond_distance
_geom_bond_site_symmetry_2
_ccdc_geom_bond_type
C1     C9      1.419   .     S
C1     H17     1.083   .     S
C1     C129    1.412   .     D
C2     C10     1.419   .     D
C2     H18     1.083   .     S
C2     C130    1.412   .     S
C3     C11     1.419   .     D
C3     H19     1.083   .     S
C3     C131    1.412   .     S
C4     C12     1.419   .     D
C4     H20     1.083   .     S
C4     C132    1.412   .     S
C5     C13     1.419   .     S
C5     H21     1.083   .     S
C5     C133    1.412   .     D
C6     C14     1.419   .     D
C6     H22     1.083   .     S
C6     C134    1.412   .     S
C7     C15     1.419   .     D
C7     H23     1.083   .     S
C7     C135    1.412   .     S
C8     C16     1.419   .     S
C8     H24     1.083   .     S
C8     C136    1.412   .     D
C9     H25     1.083   .     S
C9     C113    1.417   .     D
C10    H26     1.083   .     S
C10    C114    1.417   .     S
C11    H27     1.083   .     S
C11    C115    1.417   .     S
C12    H28     1.083   .     S
C12    C116    1.417   .     S
C13    H29     1.083   .     S
C13    C117    1.417   .     D
C14    H30     1.083   .     S
C14    C118    1.417   .     S
C15    H31     1.083   .     S
C15    C119    1.417   .     S
C16    H32     1.083   .     S
C16    C120    1.417   .     D
C33    C41     1.433   .     S
C33    H49     1.081   .     S
C33    C134    1.422   .     D
C34    C42     1.433   .     D
C34    H50     1.081   .     S
C34    C133    1.422   .     S
C35    C43     1.433   .     D
C35    H51     1.081   .     S
C35    C136    1.422   .     S
C36    C44     1.433   .     S
C36    H52     1.081   .     S
C36    C135    1.422   .     D
C37    C45     1.433   .     S
C37    H53     1.081   .     S
C37    C130    1.422   .     D
C38    C46     1.433   .     D
C38    H54     1.081   .     S
C38    C129    1.422   .     S
C39    C47     1.433   .     S
C39    H55     1.081   .     S
C39    C132    1.422   .     D
C40    C48     1.433   .     S
C40    H56     1.081   .     S
C40    C131    1.422   .     D
C41    H57     1.083   .     S
C41    C118    1.421   .     D
C42    H58     1.083   .     S
C42    C117    1.421   .     S
C43    H59     1.083   .     S
C43    C120    1.421   .     S
C44    H60     1.083   .     S
C44    C119    1.421   .     D
C45    H61     1.083   .     S
C45    C114    1.421   .     D
C46    H62     1.083   .     S
C46    C113    1.421   .     S
C47    H63     1.083   .     S
C47    C116    1.421   .     D
C48    H64     1.083   .     S
C48    C115    1.421   .     D
N65    C73     1.383   .     D
N65    C133    1.396   .     S
N66    C74     1.383   .     D
N66    C134    1.396   .     S
N67    C75     1.383   .     D
N67    C135    1.396   .     S
N68    C76     1.383   .     D
N68    C136    1.396   .     S
N69    C77     1.383   .     D
N69    C129    1.396   .     S
N70    C78     1.383   .     D
N70    C130    1.396   .     S
N71    C79     1.383   .     D
N71    C131    1.396   .     S
N72    C80     1.383   .     D
N72    C132    1.396   .     S
C73    C81     1.452   .     S
C73    H161    1.082   .     S
C74    C82     1.452   .     S
C74    H162    1.082   .     S
C75    C83     1.452   .     S
C75    H163    1.082   .     S
C76    C84     1.452   .     S
C76    H164    1.082   .     S
C77    C85     1.452   .     S
C77    H165    1.082   .     S
C78    C86     1.452   .     S
C78    H166    1.082   .     S
C79    C87     1.452   .     S
C79    H167    1.082   .     S
C80    C88     1.452   .     S
C80    H168    1.082   .     S
C81    C89     1.414   .     S
C81    C97     1.422   .     D
C82    C90     1.414   .     D
C82    C98     1.422   .     S
C83    C91     1.414   .     D
C83    C99     1.422   .     S
C84    C92     1.414   .     D
C84    C100    1.422   .     S
C85    C93     1.414   .     D
C85    C101    1.422   .     S
C86    C94     1.414   .     S
C86    C102    1.422   .     D
C87    C95     1.414   .     S
C87    C103    1.422   .     D
C88    C96     1.414   .     S
C88    C104    1.422   .     D
C89    C101    1.426   .     D
C89    H169    1.083   .     S
C90    C102    1.426   .     S
C90    H170    1.083   .     S
C91    C103    1.426   .     S
C91    H171    1.083   .     S
C92    C104    1.426   .     S
C92    H172    1.083   .     S
C93    C97     1.426   .     S
C93    H173    1.083   .     S
C94    C98     1.426   .     D
C94    H174    1.083   .     S
C95    C99     1.426   .     D
C95    H175    1.083   .     S
C96    C100    1.426   .     D
C96    H176    1.083   .     S
C97    H177    1.083   .     S
C98    H178    1.083   .     S
C99    H179    1.083   .     S
C100   H180    1.083   .     S
C101   H181    1.083   .     S
C102   H182    1.083   .     S
C103   H183    1.083   .     S
C104   H184    1.083   .     S
C105   C121    1.423   .     S
C105   C145    1.384   .     S
C105   N208    1.383   .     D
C106   C122    1.423   .     S
C106   C146    1.384   .     S
C106   N207    1.383   .     D
C107   C123    1.423   .     D
C107   C147    1.384   .     S
C107   N208    1.383   .     S
C108   C124    1.423   .     D
C108   C148    1.384   .     S
C108   N207    1.383   .     S
C109   C125    1.423   .     S
C109   C149    1.384   .     S
C109   N210    1.383   .     D
C110   C126    1.423   .     S
C110   C150    1.384   .     S
C110   N209    1.383   1_655 D
C111   C127    1.423   .     D
C111   C151    1.384   .     S
C111   N210    1.383   1_655 S
C112   C128    1.423   .     D
C112   C152    1.384   .     S
C112   N209    1.383   .     S
C113   C121    1.469   .     S
C114   C122    1.469   .     S
C115   C123    1.469   .     S
C116   C124    1.469   .     S
C117   C125    1.469   .     S
C118   C126    1.469   .     S
C119   C127    1.469   .     S
C120   C128    1.469   .     S
C121   C137    1.416   .     D
C122   C138    1.416   .     D
C123   C139    1.416   .     S
C124   C140    1.416   .     S
C125   C141    1.416   .     D
C126   C142    1.416   .     D
C127   C143    1.416   .     S
C128   C144    1.416   .     S
C137   C153    1.385   .     S
C137   N201    1.378   .     S
C138   C154    1.385   .     S
C138   N202    1.378   .     S
C139   C155    1.385   .     S
C139   N202    1.378   .     D
C140   C156    1.385   .     S
C140   N201    1.378   .     D
C141   C157    1.385   .     S
C141   N203    1.378   .     S
C142   C158    1.385   .     S
C142   N204    1.378   1_565 S
C143   C159    1.385   .     S
C143   N204    1.378   .     D
C144   C160    1.385   .     S
C144   N203    1.378   1_565 D
C145   C147    1.401   .     D
C145   H185    1.082   .     S
C146   C148    1.401   .     D
C146   H186    1.082   .     S
C147   H187    1.082   .     S
C148   H188    1.082   .     S
C149   C151    1.401   1_455 D
C149   H189    1.082   .     S
C150   C152    1.401   1_655 D
C150   H190    1.082   .     S
C151   C149    1.401   1_655 D
C151   H191    1.082   .     S
C152   C150    1.401   1_455 D
C152   H192    1.082   .     S
C153   C156    1.383   .     D
C153   H194    1.082   .     S
C154   C155    1.383   .     D
C154   H193    1.082   .     S
C155   H196    1.082   .     S
C156   H195    1.082   .     S
C157   C160    1.383   1_545 D
C157   H198    1.082   .     S
C158   C159    1.383   1_565 D
C158   H197    1.082   .     S
C159   C158    1.383   1_545 D
C159   H200    1.082   .     S
C160   C157    1.383   1_565 D
C160   H199    1.082   .     S
N201   Co205   1.985   .     S
N202   Co205   1.985   .     S
N203   C144    1.378   1_545 D
N203   Co206   1.985   .     S
N204   C142    1.378   1_545 S
N204   Co206   1.985   1_655 S
Co205  N207    1.995   .     S
Co205  N208    1.995   .     S
Co206  N204    1.985   1_455 S
Co206  N209    1.995   1_545 S
Co206  N210    1.995   .     S
N209   C110    1.383   1_455 D
N209   Co206   1.995   1_565 S
N210   C111    1.383   1_455 S
