data_1130
_audit_creation_date              2023-09-08
_audit_creation_method            'Materials Studio'
_symmetry_space_group_name_H-M    'P1'
_symmetry_Int_Tables_number       1
_symmetry_cell_setting            triclinic
loop_
_symmetry_equiv_pos_as_xyz
  x,y,z
_cell_length_a                    30.0000
_cell_length_b                    30.0000
_cell_length_c                    5.0000
_cell_angle_alpha                 90.0000
_cell_angle_beta                  90.0000
_cell_angle_gamma                 120.0000
loop_
_atom_site_label
_atom_site_type_symbol
_atom_site_fract_x
_atom_site_fract_y
_atom_site_fract_z
_atom_site_U_iso_or_equiv
_atom_site_adp_type
_atom_site_occupancy
C11    C     1.35171  -0.28350  -1.34944   0.00000  Uiso   1.00
C22    C     1.29842  -0.31742  -1.34690   0.00000  Uiso   1.00
C33    C     1.27841  -0.37091  -1.35073   0.00000  Uiso   1.00
C44    C     1.31233  -0.39028  -1.35630   0.00000  Uiso   1.00
C55    C     1.36583  -0.35679  -1.35851   0.00000  Uiso   1.00
C66    C     1.38520  -0.30349  -1.35536   0.00000  Uiso   1.00
C77    C     1.40195  -0.37671  -1.36340   0.00000  Uiso   1.00
N88    N     1.38491  -0.42598  -1.36656   0.00000  Uiso   1.00
C99    C     1.41549  -0.45063  -1.36754   0.00000  Uiso   1.00
C1010  C     1.39110  -0.50327  -1.42231   0.00000  Uiso   1.00
C1111  C     1.41905  -0.52908  -1.42270   0.00000  Uiso   1.00
C1212  C     1.47201  -0.50179  -1.36515   0.00000  Uiso   1.00
N1313  N     1.49502  -0.45045  -1.31202   0.00000  Uiso   1.00
C1414  C     1.46854  -0.42459  -1.31043   0.00000  Uiso   1.00
C1515  C     1.50362  -0.52715  -1.36412   0.00000  Uiso   1.00
C1616  C     1.48257  -0.57944  -1.29834   0.00000  Uiso   1.00
C1717  C     1.51404  -0.60149  -1.29751   0.00000  Uiso   1.00
C1818  C     1.56644  -0.57151  -1.36385   0.00000  Uiso   1.00
C1919  C     1.58605  -0.51944  -1.42288   0.00000  Uiso   1.00
N2020  N     1.55477  -0.49873  -1.42177   0.00000  Uiso   1.00
N2121  N     1.60108  -0.59154  -1.36495   0.00000  Uiso   1.00
C2222  C     1.58820  -0.63985  -1.36568   0.00000  Uiso   1.00
C2323  C     1.62797  -0.65509  -1.36319   0.00000  Uiso   1.00
C2424  C     1.61301  -0.70747  -1.36490   0.00000  Uiso   1.00
C2525  C     1.65002  -0.72308  -1.36159   0.00000  Uiso   1.00
C2626  C     1.70238  -0.68568  -1.35718   0.00000  Uiso   1.00
C2727  C     1.71799  -0.63305  -1.35557   0.00000  Uiso   1.00
C2828  C     1.68060  -0.61807  -1.35834   0.00000  Uiso   1.00
C2929  C     1.37162  -0.22745  -1.34688   0.00000  Uiso   1.00
N3030  N     1.42088  -0.19521  -1.35054   0.00000  Uiso   1.00
C3131  C     1.44553  -0.13999  -1.35207   0.00000  Uiso   1.00
C3232  C     1.22237  -0.40704  -1.34951   0.00000  Uiso   1.00
N3333  N     1.19013  -0.39003  -1.34545   0.00000  Uiso   1.00
C3434  C     1.13489  -0.42057  -1.34284   0.00000  Uiso   1.00
C3535  C     1.77303  -0.59331  -1.35055   0.00000  Uiso   1.00
N3636  N     1.80842  -0.60625  -1.35237   0.00000  Uiso   1.00
C3737  C     1.86308  -0.57167  -1.34587   0.00000  Uiso   1.00
C3838  C     1.63474  -0.77812  -1.36233   0.00000  Uiso   1.00
N3939  N     1.58642  -0.81352  -1.35928   0.00000  Uiso   1.00
C4040  C     1.56636  -0.86819  -1.36130   0.00000  Uiso   1.00
C4141  C     1.49848  -0.11167  -1.30583   0.00000  Uiso   1.00
C4242  C     1.52429  -0.05791  -1.30749   0.00000  Uiso   1.00
C4343  C     1.49669  -0.03232  -1.35846   0.00000  Uiso   1.00
N4444  N     1.44506  -0.06073  -1.40339   0.00000  Uiso   1.00
C4545  C     1.41918  -0.11306  -1.40288   0.00000  Uiso   1.00
C4646  C     1.89566  -0.59073  -1.41319   0.00000  Uiso   1.00
N4747  N     1.94763  -0.55945  -1.40846   0.00000  Uiso   1.00
C4848  C     1.97024  -0.50883  -1.33884   0.00000  Uiso   1.00
C4949  C     1.93886  -0.48842  -1.26403   0.00000  Uiso   1.00
C5050  C     1.88534  -0.51991  -1.26686   0.00000  Uiso   1.00
C5151  C     1.51464  -0.90060  -1.29513   0.00000  Uiso   1.00
N5252  N     1.49393  -0.95258  -1.29612   0.00000  Uiso   1.00
C5353  C     1.52202  -0.97536  -1.36057   0.00000  Uiso   1.00
C5454  C     1.57393  -0.94417  -1.43383   0.00000  Uiso   1.00
C5555  C     1.59596  -0.89065  -1.43486   0.00000  Uiso   1.00
C5656  C     1.10657  -0.39583  -1.38555   0.00000  Uiso   1.00
C5757  C     1.05282  -0.42378  -1.38446   0.00000  Uiso   1.00
C5858  C     1.02720  -0.47714  -1.33814   0.00000  Uiso   1.00
N5959  N     1.05560  -0.50047  -1.29631   0.00000  Uiso   1.00
C6060  C     1.10794  -0.47399  -1.29592   0.00000  Uiso   1.00
H6161  H     1.27240  -0.30221  -1.34260   0.00000  Uiso   1.00
H6262  H     1.29711  -0.43150  -1.35900   0.00000  Uiso   1.00
H6363  H     1.42642  -0.27748  -1.35734   0.00000  Uiso   1.00
H6464  H     1.44275  -0.34928  -1.36819   0.00000  Uiso   1.00
H6565  H     1.35034  -0.52400  -1.46696   0.00000  Uiso   1.00
H6666  H     1.39960  -0.56957  -1.47255   0.00000  Uiso   1.00
H6767  H     1.48904  -0.38421  -1.26081   0.00000  Uiso   1.00
H6868  H     1.44262  -0.60275  -1.24105   0.00000  Uiso   1.00
H6969  H     1.49743  -0.64132  -1.23923   0.00000  Uiso   1.00
H7070  H     1.62640  -0.49544  -1.47069   0.00000  Uiso   1.00
H7171  H     1.54823  -0.66984  -1.37317   0.00000  Uiso   1.00
H7272  H     1.57247  -0.73618  -1.36848   0.00000  Uiso   1.00
H7373  H     1.73108  -0.69752  -1.35457   0.00000  Uiso   1.00
H7474  H     1.69243  -0.57753  -1.35669   0.00000  Uiso   1.00
H7575  H     1.34421  -0.21409  -1.33801   0.00000  Uiso   1.00
H7676  H     1.20903  -0.44782  -1.35712   0.00000  Uiso   1.00
H7777  H     1.78310  -0.55329  -1.35153   0.00000  Uiso   1.00
H7878  H     1.66472  -0.78815  -1.35897   0.00000  Uiso   1.00
H7979  H     1.51945  -0.13163  -1.26601   0.00000  Uiso   1.00
H8080  H     1.56507  -0.03680  -1.26410   0.00000  Uiso   1.00
H8181  H     1.37851  -0.13301  -1.44576   0.00000  Uiso   1.00
H8282  H     1.87939  -0.63063  -1.47086   0.00000  Uiso   1.00
H8383  H     1.95538  -0.44899  -1.19740   0.00000  Uiso   1.00
H8484  H     1.86195  -0.50391  -1.20169   0.00000  Uiso   1.00
H8585  H     1.49093  -0.88420  -1.24159   0.00000  Uiso   1.00
H8686  H     1.59692  -0.96085  -1.49655   0.00000  Uiso   1.00
H8787  H     1.63545  -0.86745  -1.49883   0.00000  Uiso   1.00
H8888  H     1.12654  -0.35479  -1.42251   0.00000  Uiso   1.00
H8989  H     1.03174  -0.40399  -1.42521   0.00000  Uiso   1.00
H9090  H     1.12784  -0.49486  -1.25598   0.00000  Uiso   1.00
loop_
_geom_bond_atom_site_label_1
_geom_bond_atom_site_label_2
_geom_bond_distance
_geom_bond_site_symmetry_2
_ccdc_geom_bond_type
C11    C22     1.402   .     D
C11    C66     1.404   .     S
C11    C2929   1.476   .     S
C22    C33     1.404   .     S
C22    H6161   1.084   .     S
C33    C44     1.402   .     D
C33    C3232   1.476   .     S
C44    C55     1.405   .     S
C44    H6262   1.083   .     S
C55    C66     1.402   .     D
C55    C77     1.476   .     S
C66    H6363   1.083   .     S
C77    N88     1.300   .     D
C77    H6464   1.081   .     S
N88    C99     1.438   .     S
C99    C1010   1.396   .     S
C99    C1414   1.408   .     D
C1010  C1111   1.397   .     D
C1010  H6565   1.082   .     S
C1111  C1212   1.406   .     S
C1111  H6666   1.081   .     S
C1212  N1313   1.362   .     D
C1212  C1515   1.483   .     S
N1313  C1414   1.360   .     S
C1414  H6767   1.078   .     S
C1515  C1616   1.406   .     S
C1515  N2020   1.362   .     D
C1616  C1717   1.398   .     D
C1616  H6868   1.081   .     S
C1717  C1818   1.406   .     S
C1717  H6969   1.080   .     S
C1818  C1919   1.398   .     D
C1818  N2121   1.437   .     S
C1919  N2020   1.360   .     S
C1919  H7070   1.081   .     S
N2121  C2222   1.300   .     D
C2222  C2323   1.476   .     S
C2222  H7171   1.082   .     S
C2323  C2424   1.402   .     S
C2323  C2828   1.405   .     D
C2424  C2525   1.404   .     D
C2424  H7272   1.083   .     S
C2525  C2626   1.402   .     S
C2525  C3838   1.476   .     S
C2626  C2727   1.405   .     D
C2626  H7373   1.083   .     S
C2727  C2828   1.402   .     S
C2727  C3535   1.476   .     S
C2828  H7474   1.083   .     S
C2929  N3030   1.300   .     D
C2929  H7575   1.081   .     S
N3030  C3131   1.437   .     S
C3131  C4141   1.396   .     D
C3131  C4545   1.407   .     S
C3232  N3333   1.300   .     D
C3232  H7676   1.081   .     S
N3333  C3434   1.438   .     S
C3434  C5656   1.396   .     D
C3434  C6060   1.408   .     S
C3535  N3636   1.300   .     D
C3535  H7777   1.082   .     S
N3636  C3737   1.437   .     S
C3737  C4646   1.398   .     D
C3737  C5050   1.406   .     S
C3838  N3939   1.300   .     D
C3838  H7878   1.082   .     S
N3939  C4040   1.437   .     S
C4040  C5151   1.398   .     D
C4040  C5555   1.406   .     S
C4141  C4242   1.397   .     S
C4141  H7979   1.082   .     S
C4242  C4343   1.406   .     D
C4242  H8080   1.082   .     S
C4343  N4444   1.362   .     S
C4343  C5353   1.483   1_565 S
N4444  C4545   1.360   .     D
C4545  H8181   1.078   .     S
C4646  N4747   1.360   .     S
C4646  H8282   1.082   .     S
N4747  C4848   1.363   .     D
C4848  C4949   1.406   .     S
C4848  C5858   1.483   1_655 S
C4949  C5050   1.398   .     D
C4949  H8383   1.081   .     S
C5050  H8484   1.080   .     S
C5151  N5252   1.360   .     S
C5151  H8585   1.081   .     S
N5252  C5353   1.363   .     D
C5353  C5454   1.406   .     S
C5353  C4343   1.483   1_545 S
C5454  C5555   1.398   .     D
C5454  H8686   1.081   .     S
C5555  H8787   1.080   .     S
C5656  C5757   1.397   .     S
C5656  H8888   1.082   .     S
C5757  C5858   1.406   .     D
C5757  H8989   1.081   .     S
C5858  N5959   1.362   .     S
C5858  C4848   1.483   1_455 S
N5959  C6060   1.360   .     D
C6060  H9090   1.078   .     S
