data_1131
_audit_creation_date              2023-09-08
_audit_creation_method            'Materials Studio'
_symmetry_space_group_name_H-M    'P1'
_symmetry_Int_Tables_number       1
_symmetry_cell_setting            triclinic
loop_
_symmetry_equiv_pos_as_xyz
  x,y,z
_cell_length_a                    49.5000
_cell_length_b                    48.4000
_cell_length_c                    6.2000
_cell_angle_alpha                 109.0000
_cell_angle_beta                  52.6000
_cell_angle_gamma                 122.8000
loop_
_atom_site_label
_atom_site_type_symbol
_atom_site_fract_x
_atom_site_fract_y
_atom_site_fract_z
_atom_site_U_iso_or_equiv
_atom_site_adp_type
_atom_site_occupancy
C11    C     0.51224   0.55869   1.28532   0.00000  Uiso   1.00
C22    C     0.55756   0.49673   1.32873   0.00000  Uiso   1.00
C33    C     0.49741   0.44039   1.31399   0.00000  Uiso   1.00
C44    C     0.45289   0.50098   1.24250   0.00000  Uiso   1.00
C55    C     0.53950   0.57298   1.10111   0.00000  Uiso   1.00
C66    C     0.54434   0.60203   1.09834   0.00000  Uiso   1.00
C77    C     0.52204   0.61752   1.27578   0.00000  Uiso   1.00
C88    C     0.49477   0.60344   1.46200   0.00000  Uiso   1.00
C99    C     0.49005   0.57450   1.46752   0.00000  Uiso   1.00
C1010  C     0.55406   0.48475   1.51050   0.00000  Uiso   1.00
C1111  C     0.58018   0.48273   1.50694   0.00000  Uiso   1.00
C1212  C     0.61048   0.49385   1.33178   0.00000  Uiso   1.00
C1313  C     0.61419   0.50698   1.15696   0.00000  Uiso   1.00
C1414  C     0.58805   0.50840   1.15634   0.00000  Uiso   1.00
C1515  C     0.45791   0.51312   1.05510   0.00000  Uiso   1.00
C1616  C     0.43269   0.51510   1.04345   0.00000  Uiso   1.00
C1717  C     0.40166   0.50372   1.21165   0.00000  Uiso   1.00
C1818  C     0.39653   0.48986   1.38498   0.00000  Uiso   1.00
C1919  C     0.42174   0.48859   1.40208   0.00000  Uiso   1.00
C2020  C     0.47486   0.43034   1.53890   0.00000  Uiso   1.00
C2121  C     0.47150   0.40258   1.55432   0.00000  Uiso   1.00
C2222  C     0.48988   0.38360   1.34350   0.00000  Uiso   1.00
C2323  C     0.51235   0.39351   1.11627   0.00000  Uiso   1.00
C2424  C     0.51608   0.42159   1.10253   0.00000  Uiso   1.00
N2525  N     0.52857   0.64779   1.26803   0.00000  Uiso   1.00
N2626  N     0.63645   0.49137   1.33958   0.00000  Uiso   1.00
N2727  N     0.48550   0.35537   1.37305   0.00000  Uiso   1.00
N2828  N     0.37467   0.50544   1.21421   0.00000  Uiso   1.00
C2929  C     0.66609   0.50074   1.19470   0.00000  Uiso   1.00
C3030  C     0.37459   0.52000   1.09018   0.00000  Uiso   1.00
C3131  C     0.69064   0.49667   1.22049   0.00000  Uiso   1.00
C3232  C     0.34464   0.51967   1.11340   0.00000  Uiso   1.00
C3333  C     0.68334   0.48287   1.40409   0.00000  Uiso   1.00
C3434  C     0.70717   0.47956   1.42473   0.00000  Uiso   1.00
C3535  C     0.73886   0.48990   1.26158   0.00000  Uiso   1.00
C3636  C     0.74587   0.50325   1.07522   0.00000  Uiso   1.00
C3737  C     0.72212   0.50681   1.05669   0.00000  Uiso   1.00
C3838  C     0.34535   0.53406   0.96426   0.00000  Uiso   1.00
C3939  C     0.31748   0.53456   0.98618   0.00000  Uiso   1.00
C4040  C     0.28819   0.52063   1.15776   0.00000  Uiso   1.00
C4141  C     0.28744   0.50598   1.30564   0.00000  Uiso   1.00
C4242  C     0.31538   0.50547   1.28335   0.00000  Uiso   1.00
C4343  C     0.76455   0.48711   1.28658   0.00000  Uiso   1.00
C4444  C     0.25868   0.52195   1.18563   0.00000  Uiso   1.00
C4545  C     0.25790   0.54994   1.21053   0.00000  Uiso   1.00
C4646  C     0.23016   0.55154   1.24119   0.00000  Uiso   1.00
C4747  C     0.20261   0.52513   1.24467   0.00000  Uiso   1.00
C4848  C     0.20333   0.49700   1.21724   0.00000  Uiso   1.00
C4949  C     0.23105   0.49547   1.18944   0.00000  Uiso   1.00
C5050  C     0.17342   0.52777   1.28325   0.00000  Uiso   1.00
N5151  N     0.14894   0.50300   1.24223   0.00000  Uiso   1.00
C5252  C     0.11955   0.50369   1.28177   0.00000  Uiso   1.00
C5353  C     0.10829   0.52878   1.48005   0.00000  Uiso   1.00
C5454  C     0.07894   0.52808   1.52111   0.00000  Uiso   1.00
C5555  C     0.06111   0.50314   1.35337   0.00000  Uiso   1.00
C5656  C     0.07238   0.47794   1.15683   0.00000  Uiso   1.00
C5757  C     0.10104   0.47806   1.12520   0.00000  Uiso   1.00
C5858  C     0.75909   0.46169   1.34909   0.00000  Uiso   1.00
C5959  C     0.78310   0.45937   1.37529   0.00000  Uiso   1.00
C6060  C     0.81326   0.48215   1.33626   0.00000  Uiso   1.00
C6161  C     0.81893   0.50743   1.27197   0.00000  Uiso   1.00
C6262  C     0.79484   0.51001   1.24923   0.00000  Uiso   1.00
C6363  C     0.83828   0.47925   1.36563   0.00000  Uiso   1.00
N6464  N     0.86730   0.49797   1.30196   0.00000  Uiso   1.00
C6565  C     0.89334   0.49748   1.32460   0.00000  Uiso   1.00
C6666  C     0.88924   0.48475   1.50357   0.00000  Uiso   1.00
C6767  C     0.91537   0.48509   1.51997   0.00000  Uiso   1.00
C6868  C     0.94615   0.49773   1.35569   0.00000  Uiso   1.00
C6969  C     0.95003   0.51083   1.18002   0.00000  Uiso   1.00
C7070  C     0.92392   0.51117   1.16911   0.00000  Uiso   1.00
C7171  C     0.05630   0.56095   1.37529   0.00000  Uiso   1.00
C7272  C     0.08674   0.56203   1.18436   0.00000  Uiso   1.00
C7373  C     0.11168   0.59094   1.18371   0.00000  Uiso   1.00
C7474  C     0.10711   0.61974   1.37184   0.00000  Uiso   1.00
C7575  C     0.07646   0.61880   1.56056   0.00000  Uiso   1.00
C7676  C     0.05155   0.58988   1.56191   0.00000  Uiso   1.00
N7777  N     0.13379   0.64888   1.36100   0.00000  Uiso   1.00
C7878  C     0.94944   0.44204   0.37708   0.00000  Uiso   1.00
C7979  C     0.93155   0.43392   0.61601   0.00000  Uiso   1.00
C8080  C     0.90554   0.40590   0.62080   0.00000  Uiso   1.00
C8181  C     0.89728   0.38457   0.38558   0.00000  Uiso   1.00
C8282  C     0.91554   0.39241   0.14396   0.00000  Uiso   1.00
C8383  C     0.94119   0.42089   0.14069   0.00000  Uiso   1.00
N8484  N     0.87001   0.35609   0.40435   0.00000  Uiso   1.00
C8585  C     0.50770   0.66018   1.34383   0.00000  Uiso   1.00
C8686  C     0.51659   0.69167   1.32773   0.00000  Uiso   1.00
C8787  C     0.49541   0.33183   1.18144   0.00000  Uiso   1.00
C8888  C     0.48941   0.30362   1.23476   0.00000  Uiso   1.00
C8989  C     0.54734   0.71362   1.29590   0.00000  Uiso   1.00
C9090  C     0.55452   0.74335   1.28929   0.00000  Uiso   1.00
C9191  C     0.53127   0.75177   1.30968   0.00000  Uiso   1.00
C9292  C     0.50063   0.72960   1.33961   0.00000  Uiso   1.00
C9393  C     0.49339   0.70021   1.35057   0.00000  Uiso   1.00
C9494  C     0.47585   0.30185   1.49884   0.00000  Uiso   1.00
C9595  C     0.47079   0.27495   1.53996   0.00000  Uiso   1.00
C9696  C     0.47895   0.24873   1.31804   0.00000  Uiso   1.00
C9797  C     0.49226   0.25072   1.05406   0.00000  Uiso   1.00
C9898  C     0.49765   0.27769   1.01390   0.00000  Uiso   1.00
C9999  C     0.53855   0.78352   1.30405   0.00000  Uiso   1.00
C100100 C     0.47372   0.21964   1.35981   0.00000  Uiso   1.00
C101101 C     0.45010   0.21110   1.59097   0.00000  Uiso   1.00
C102102 C     0.44551   0.18439   1.63096   0.00000  Uiso   1.00
C103103 C     0.46390   0.16476   1.43955   0.00000  Uiso   1.00
C104104 C     0.48726   0.17282   1.20704   0.00000  Uiso   1.00
C105105 C     0.49227   0.19988   1.16892   0.00000  Uiso   1.00
C106106 C     0.55769   0.81133   1.44637   0.00000  Uiso   1.00
C107107 C     0.56322   0.84108   1.45196   0.00000  Uiso   1.00
C108108 C     0.55003   0.84403   1.31354   0.00000  Uiso   1.00
C109109 C     0.53132   0.81623   1.16735   0.00000  Uiso   1.00
C110110 C     0.52566   0.78647   1.16273   0.00000  Uiso   1.00
C111111 C     0.45864   0.13665   1.49022   0.00000  Uiso   1.00
N112112 N     0.47234   0.11561   1.30414   0.00000  Uiso   1.00
C113113 C     0.47025   0.08781   1.32437   0.00000  Uiso   1.00
C114114 C     0.55525   0.87610   1.33119   0.00000  Uiso   1.00
N115115 N     0.54309   0.87944   1.20619   0.00000  Uiso   1.00
C116116 C     0.54375   0.90804   1.21193   0.00000  Uiso   1.00
C117117 C     0.45612   0.08143   1.57104   0.00000  Uiso   1.00
C118118 C     0.45805   0.05570   1.57955   0.00000  Uiso   1.00
C119119 C     0.47401   0.03583   1.34270   0.00000  Uiso   1.00
C120120 C     0.48647   0.04138   1.09572   0.00000  Uiso   1.00
C121121 C     0.48485   0.06708   1.08798   0.00000  Uiso   1.00
C122122 C     0.55329   0.93840   1.39948   0.00000  Uiso   1.00
C123123 C     0.54831   0.96409   1.41922   0.00000  Uiso   1.00
C124124 C     0.53471   0.96008   1.24643   0.00000  Uiso   1.00
C125125 C     0.52760   0.93020   1.04741   0.00000  Uiso   1.00
C126126 C     0.53148   0.90470   1.03501   0.00000  Uiso   1.00
C127127 C     0.43483   0.96787   1.43052   0.00000  Uiso   1.00
C128128 C     0.56977   0.03288   0.29234   0.00000  Uiso   1.00
C129129 C     0.41845   0.96457   1.28361   0.00000  Uiso   1.00
C130130 C     0.38844   0.94100   1.28488   0.00000  Uiso   1.00
C131131 C     0.37411   0.92033   1.43277   0.00000  Uiso   1.00
C132132 C     0.38984   0.92492   1.59023   0.00000  Uiso   1.00
C133133 C     0.41904   0.94861   1.59425   0.00000  Uiso   1.00
C134134 C     0.59187   0.03781   0.04432   0.00000  Uiso   1.00
C135135 C     0.62063   0.06299   0.03637   0.00000  Uiso   1.00
C136136 C     0.62817   0.08421   0.27511   0.00000  Uiso   1.00
C137137 C     0.60672   0.07840   0.52285   0.00000  Uiso   1.00
C138138 C     0.57786   0.05314   0.53078   0.00000  Uiso   1.00
N139139 N     0.65643   0.11191   0.25659   0.00000  Uiso   1.00
C140140 C     0.66751   0.13443   0.45313   0.00000  Uiso   1.00
C141141 C     0.69633   0.16268   0.40868   0.00000  Uiso   1.00
C142142 C     0.86264   0.33074   0.20221   0.00000  Uiso   1.00
C143143 C     0.83383   0.30245   0.24544   0.00000  Uiso   1.00
N144144 N     0.34541   0.89359   1.40484   0.00000  Uiso   1.00
C145145 C     0.13485   0.67702   1.54278   0.00000  Uiso   1.00
C146146 C     0.16336   0.70607   1.51923   0.00000  Uiso   1.00
C147147 C     0.32542   0.88005   1.59150   0.00000  Uiso   1.00
C148148 C     0.29755   0.85048   1.55675   0.00000  Uiso   1.00
C149149 C     0.71285   0.16760   0.15526   0.00000  Uiso   1.00
C150150 C     0.73937   0.19484   0.12332   0.00000  Uiso   1.00
C151151 C     0.75052   0.21805   0.34334   0.00000  Uiso   1.00
C152152 C     0.73390   0.21269   0.59604   0.00000  Uiso   1.00
C153153 C     0.70727   0.18569   0.62810   0.00000  Uiso   1.00
C154154 C     0.81021   0.30271   0.50155   0.00000  Uiso   1.00
C155155 C     0.78329   0.27575   0.53303   0.00000  Uiso   1.00
C156156 C     0.77923   0.24737   0.31002   0.00000  Uiso   1.00
C157157 C     0.80320   0.24738   0.05436   0.00000  Uiso   1.00
C158158 C     0.82977   0.27444   0.02267   0.00000  Uiso   1.00
C159159 C     0.19153   0.70624   1.29437   0.00000  Uiso   1.00
C160160 C     0.21785   0.73433   1.28816   0.00000  Uiso   1.00
C161161 C     0.21671   0.76292   1.50746   0.00000  Uiso   1.00
C162162 C     0.18815   0.76257   1.72772   0.00000  Uiso   1.00
C163163 C     0.16211   0.73476   1.73349   0.00000  Uiso   1.00
C164164 C     0.27639   0.84080   1.78587   0.00000  Uiso   1.00
C165165 C     0.25074   0.81266   1.76707   0.00000  Uiso   1.00
C166166 C     0.24504   0.79283   1.51772   0.00000  Uiso   1.00
C167167 C     0.26638   0.80227   1.28581   0.00000  Uiso   1.00
C168168 C     0.29225   0.83083   1.30534   0.00000  Uiso   1.00
H169169 H     0.55701   0.56147   0.95747   0.00000  Uiso   1.00
H170170 H     0.56552   0.61258   0.95542   0.00000  Uiso   1.00
H171171 H     0.47752   0.61512   1.60774   0.00000  Uiso   1.00
H172172 H     0.46910   0.56446   1.61513   0.00000  Uiso   1.00
H173173 H     0.53114   0.47679   1.65445   0.00000  Uiso   1.00
H174174 H     0.57691   0.47236   1.64083   0.00000  Uiso   1.00
H175175 H     0.63693   0.51598   1.01836   0.00000  Uiso   1.00
H176176 H     0.59169   0.51836   1.01761   0.00000  Uiso   1.00
H177177 H     0.48147   0.52149   0.91982   0.00000  Uiso   1.00
H178178 H     0.43778   0.52541   0.90237   0.00000  Uiso   1.00
H179179 H     0.37272   0.48052   1.51131   0.00000  Uiso   1.00
H180180 H     0.41685   0.47842   1.54436   0.00000  Uiso   1.00
H181181 H     0.46032   0.44444   1.70572   0.00000  Uiso   1.00
H182182 H     0.45440   0.39561   1.73162   0.00000  Uiso   1.00
H183183 H     0.52751   0.38010   0.95173   0.00000  Uiso   1.00
H184184 H     0.53371   0.42884   0.92744   0.00000  Uiso   1.00
H185185 H     0.67375   0.51181   1.05028   0.00000  Uiso   1.00
H186186 H     0.39638   0.53295   0.96906   0.00000  Uiso   1.00
H187187 H     0.70075   0.46930   1.57160   0.00000  Uiso   1.00
H188188 H     0.76973   0.51064   0.94027   0.00000  Uiso   1.00
H189189 H     0.72841   0.51744   0.91266   0.00000  Uiso   1.00
H190190 H     0.36754   0.54484   0.82922   0.00000  Uiso   1.00
H191191 H     0.31877   0.54560   0.86664   0.00000  Uiso   1.00
H192192 H     0.26529   0.49552   1.44288   0.00000  Uiso   1.00
H193193 H     0.27868   0.57082   1.21165   0.00000  Uiso   1.00
H194194 H     0.18231   0.47637   1.22047   0.00000  Uiso   1.00
H195195 H     0.23101   0.47352   1.16834   0.00000  Uiso   1.00
H196196 H     0.17326   0.55098   1.33835   0.00000  Uiso   1.00
H197197 H     0.12197   0.54865   1.60562   0.00000  Uiso   1.00
H198198 H     0.07050   0.54741   1.67931   0.00000  Uiso   1.00
H199199 H     0.05926   0.45842   1.02397   0.00000  Uiso   1.00
H200200 H     0.10942   0.45855   0.97327   0.00000  Uiso   1.00
H201201 H     0.73632   0.44333   1.37502   0.00000  Uiso   1.00
H202202 H     0.77814   0.43963   1.42495   0.00000  Uiso   1.00
H203203 H     0.79988   0.53027   1.20650   0.00000  Uiso   1.00
H204204 H     0.83200   0.46046   1.43350   0.00000  Uiso   1.00
H205205 H     0.86605   0.47544   1.63700   0.00000  Uiso   1.00
H206206 H     0.91134   0.47596   1.66567   0.00000  Uiso   1.00
H207207 H     0.97331   0.52067   1.04929   0.00000  Uiso   1.00
H208208 H     0.92740   0.52187   1.03684   0.00000  Uiso   1.00
H209209 H     0.09125   0.54031   1.03736   0.00000  Uiso   1.00
H210210 H     0.13491   0.59102   1.03678   0.00000  Uiso   1.00
H211211 H     0.07133   0.64019   1.70624   0.00000  Uiso   1.00
H212212 H     0.02845   0.59007   1.71148   0.00000  Uiso   1.00
H213213 H     0.93720   0.44979   0.80134   0.00000  Uiso   1.00
H214214 H     0.89156   0.40064   0.80925   0.00000  Uiso   1.00
H215215 H     0.90981   0.37699  -0.04102   0.00000  Uiso   1.00
H216216 H     0.95472   0.42647  -0.04647   0.00000  Uiso   1.00
H217217 H     0.48285   0.64689   1.40971   0.00000  Uiso   1.00
H218218 H     0.50760   0.33170   0.97286   0.00000  Uiso   1.00
H219219 H     0.56568   0.70778   1.27876   0.00000  Uiso   1.00
H220220 H     0.57841   0.75964   1.26433   0.00000  Uiso   1.00
H221221 H     0.48199   0.73527   1.35993   0.00000  Uiso   1.00
H222222 H     0.46938   0.32148   1.67359   0.00000  Uiso   1.00
H223223 H     0.46082   0.27506   1.74741   0.00000  Uiso   1.00
H224224 H     0.49814   0.23116   0.87537   0.00000  Uiso   1.00
H225225 H     0.43474   0.22485   1.74169   0.00000  Uiso   1.00
H226226 H     0.50197   0.15833   1.05642   0.00000  Uiso   1.00
H227227 H     0.51121   0.20548   0.99077   0.00000  Uiso   1.00
H228228 H     0.56775   0.81015   1.56012   0.00000  Uiso   1.00
H229229 H     0.52081   0.81763   1.05856   0.00000  Uiso   1.00
H230230 H     0.51127   0.76564   1.04685   0.00000  Uiso   1.00
H231231 H     0.44271   0.13405   1.68718   0.00000  Uiso   1.00
H232232 H     0.56894   0.89663   1.45453   0.00000  Uiso   1.00
H233233 H     0.44502   0.09699   1.75951   0.00000  Uiso   1.00
H234234 H     0.44879   0.05251   1.77397   0.00000  Uiso   1.00
H235235 H     0.49957   0.02702   0.91133   0.00000  Uiso   1.00
H236236 H     0.49631   0.07185   0.89818   0.00000  Uiso   1.00
H237237 H     0.56300   0.94204   1.53937   0.00000  Uiso   1.00
H238238 H     0.55312   0.98638   1.57989   0.00000  Uiso   1.00
H239239 H     0.51634   0.92588   0.91545   0.00000  Uiso   1.00
H240240 H     0.52335   0.88152   0.89493   0.00000  Uiso   1.00
H241241 H     0.42945   0.97911   1.15850   0.00000  Uiso   1.00
H242242 H     0.37654   0.93833   1.16621   0.00000  Uiso   1.00
H243243 H     0.38056   0.90894   1.69804   0.00000  Uiso   1.00
H244244 H     0.43055   0.95023   1.71117   0.00000  Uiso   1.00
H245245 H     0.58598   0.02342  -0.14105   0.00000  Uiso   1.00
H246246 H     0.63665   0.06699  -0.15565   0.00000  Uiso   1.00
H247247 H     0.61125   0.09397   0.71273   0.00000  Uiso   1.00
H248248 H     0.56089   0.05072   0.72644   0.00000  Uiso   1.00
H249249 H     0.65568   0.13345   0.65811   0.00000  Uiso   1.00
H250250 H     0.87813   0.32914  -0.00572   0.00000  Uiso   1.00
H251251 H     0.11474   0.68010   1.72569   0.00000  Uiso   1.00
H252252 H     0.32873   0.89042   1.78705   0.00000  Uiso   1.00
H253253 H     0.70505   0.15038  -0.01781   0.00000  Uiso   1.00
H254254 H     0.75080   0.19774  -0.07436   0.00000  Uiso   1.00
H255255 H     0.74162   0.22918   0.77040   0.00000  Uiso   1.00
H256256 H     0.81251   0.32396   0.67687   0.00000  Uiso   1.00
H257257 H     0.76544   0.27748   0.73274   0.00000  Uiso   1.00
H258258 H     0.80189   0.22628  -0.12262   0.00000  Uiso   1.00
H259259 H     0.23936   0.73351   1.11541   0.00000  Uiso   1.00
H260260 H     0.18587   0.78403   1.89760   0.00000  Uiso   1.00
H261261 H     0.14081   0.73568   1.90885   0.00000  Uiso   1.00
H262262 H     0.23548   0.80615   1.94922   0.00000  Uiso   1.00
H263263 H     0.26284   0.78774   1.09022   0.00000  Uiso   1.00
H264264 H     0.30837   0.83741   1.12443   0.00000  Uiso   1.00
C265265 C     0.47977   0.50099   0.27290   0.00000  Uiso   1.00
C266266 C     0.50764   0.52773   0.28796   0.00000  Uiso   1.00
C267267 C     0.53212   0.52519   0.30813   0.00000  Uiso   1.00
C268268 C     0.52989   0.49735   0.31577   0.00000  Uiso   1.00
C269269 C     0.50184   0.47089   0.30604   0.00000  Uiso   1.00
C270270 C     0.47733   0.47329   0.28556   0.00000  Uiso   1.00
H271271 H     0.55314   0.54562   0.32409   0.00000  Uiso   1.00
H272272 H     0.45630   0.45283   0.27138   0.00000  Uiso   1.00
C273273 C     0.48663   1.01663   0.35890   0.00000  Uiso   1.00
C274274 C     0.51889   1.03034   0.33450   0.00000  Uiso   1.00
C275275 C     0.53585   1.01448   0.31472   0.00000  Uiso   1.00
C276276 C     0.46979   0.98582   0.38103   0.00000  Uiso   1.00
C277277 C     0.48741   0.96972   0.34873   0.00000  Uiso   1.00
C278278 C     0.51996   0.98265   0.30912   0.00000  Uiso   1.00
H279279 H     0.53141   1.05413   0.32656   0.00000  Uiso   1.00
H280280 H     0.47552   0.94556   0.34628   0.00000  Uiso   1.00
C281281 C     0.97450   0.49889   0.37325   0.00000  Uiso   1.00
C282282 C     1.00073   0.52714   0.38049   0.00000  Uiso   1.00
C283283 C     1.02930   0.53006   0.37885   0.00000  Uiso   1.00
C284284 C     0.97628   0.47276   0.37814   0.00000  Uiso   1.00
C285285 C     1.00461   0.47566   0.38023   0.00000  Uiso   1.00
C286286 C     1.03136   0.50341   0.37386   0.00000  Uiso   1.00
H287287 H     0.99909   0.54721   0.38222   0.00000  Uiso   1.00
H288288 H     1.00599   0.45571   0.38298   0.00000  Uiso   1.00
H289289 H     0.31425   0.49425   0.40063   0.00000  Uiso   1.00
H290290 H     0.23020   0.57351   0.26249   0.00000  Uiso   1.00
H291291 H     0.46946   0.68397   0.37615   0.00000  Uiso   1.00
H292292 H     0.19319   0.68456   0.12548   0.00000  Uiso   1.00
H293293 H     0.27982   0.85510   0.98224   0.00000  Uiso   1.00
H294294 H     0.57748   0.86195   0.56887   0.00000  Uiso   1.00
H295295 H     0.65918   0.47477   0.53190   0.00000  Uiso   1.00
H296296 H     0.84200   0.52536   0.24205   0.00000  Uiso   1.00
H297297 H     0.50815   0.27814  -0.19260   0.00000  Uiso   1.00
H298298 H     0.42731   0.17895   0.81270   0.00000  Uiso   1.00
H299299 H     0.69512   1.18277   0.82658   0.00000  Uiso   1.00
H300300 H     0.84749   1.27333  -0.17768   0.00000  Uiso   1.00
loop_
_geom_bond_atom_site_label_1
_geom_bond_atom_site_label_2
_geom_bond_distance
_geom_bond_site_symmetry_2
_ccdc_geom_bond_type
C11    C55     1.111   .     D
C11    C99     1.382   .     S
C11    C266266  1.393   1_556 S
C22    C1010   1.310   .     D
C22    C1414   1.118   .     S
C22    C268268  1.436   1_556 S
C33    C2020   1.179   .     D
C33    C2424   1.436   .     S
C33    C269269  1.383   1_556 S
C44    C1515   1.301   .     D
C44    C1919   1.117   .     S
C44    C265265  1.453   1_556 S
C55    C66     1.296   .     S
C55    H169169  1.057   .     S
C66    C77     1.369   .     D
C66    H170170  0.855   .     S
C77    C88     1.114   .     S
C77    N2525   1.329   .     S
C88    C99     1.298   .     D
C88    H171171  1.057   .     S
C99    H172172  0.860   .     S
C1010  C1111   1.335   .     S
C1010  H173173  0.867   .     S
C1111  C1212   1.116   .     D
C1111  H174174  0.994   .     S
C1212  C1313   1.301   .     S
C1212  N2626   1.384   .     S
C1313  C1414   1.335   .     D
C1313  H175175  0.856   .     S
C1414  H176176  0.996   .     S
C1515  C1616   1.348   .     S
C1515  H177177  0.865   .     S
C1616  C1717   1.123   .     D
C1616  H178178  0.979   .     S
C1717  C1818   1.274   .     S
C1717  N2828   1.373   .     S
C1818  C1919   1.349   .     D
C1818  H179179  0.860   .     S
C1919  H180180  0.987   .     S
C2020  C2121   1.290   .     S
C2020  H181181  1.105   .     S
C2121  C2222   1.435   .     D
C2121  H182182  0.917   .     S
C2222  C2323   1.188   .     S
C2222  N2727   1.320   .     S
C2323  C2424   1.293   .     D
C2323  H183183  1.092   .     S
C2424  H184184  0.910   .     S
N2525  C8585   1.243   .     D
N2626  C2929   1.053   .     D
N2727  C8787   1.402   .     D
N2828  C3030   1.203   .     D
C2929  C3131   1.434   .     S
C2929  H185185  0.955   .     S
C3030  C3232   1.391   .     S
C3030  H186186  0.843   .     S
C3131  C3333   1.267   .     D
C3131  C3737   1.129   .     S
C3232  C3838   1.302   .     D
C3232  C4242   1.104   .     S
C3333  C3434   1.355   .     S
C3333  H295295  0.869   1_556 S
C3434  C3535   1.134   .     D
C3434  H187187  0.974   .     S
C3535  C3636   1.276   .     S
C3535  C4343   1.449   .     S
C3636  C3737   1.350   .     D
C3636  H188188  0.872   .     S
C3737  H189189  0.973   .     S
C3838  C3939   1.315   .     S
C3838  H190190  0.852   .     S
C3939  C4040   1.106   .     D
C3939  H191191  1.001   .     S
C4040  C4141   1.303   .     S
C4040  C4444   1.398   .     S
C4141  C4242   1.317   .     D
C4141  H192192  0.853   .     S
C4242  H289289  1.001   1_556 S
C4343  C5858   1.249   .     D
C4343  C6262   1.215   .     S
C4444  C4545   1.332   .     D
C4444  C4949   1.263   .     S
C4545  C4646   1.310   .     S
C4545  H193193  0.978   .     S
C4646  C4747   1.260   .     D
C4646  H290290  1.027   1_556 S
C4747  C4848   1.334   .     S
C4747  C5050   1.386   .     S
C4848  C4949   1.316   .     D
C4848  H194194  0.971   .     S
C4949  H195195  1.026   .     S
C5050  N5151   1.254   .     D
C5050  H196196  1.065   .     S
N5151  C5252   1.339   .     S
C5252  C5353   1.492   .     D
C5252  C5757   1.545   .     S
C5353  C5454   1.296   .     S
C5353  H197197  1.199   .     S
C5454  C5555   1.569   .     D
C5454  H198198  1.158   .     S
C5555  C5656   1.492   .     S
C5555  C286286  1.406   1_456 S
C5656  C5757   1.306   .     D
C5656  H199199  1.213   .     S
C5757  H200200  1.150   .     S
C5858  C5959   1.357   .     S
C5858  H201201  0.935   .     S
C5959  C6060   1.206   .     D
C5959  H202202  0.956   .     S
C6060  C6161   1.243   .     S
C6060  C6363   1.437   .     S
C6161  C6262   1.354   .     D
C6161  H296296  0.930   1_556 S
C6262  H203203  0.958   .     S
C6363  N6464   1.084   .     D
C6363  H204204  0.941   .     S
N6464  C6565   1.392   .     S
C6565  C6666   1.299   .     D
C6565  C7070   1.103   .     S
C6666  C6767   1.349   .     S
C6666  H205205  0.857   .     S
C6767  C6868   1.115   .     D
C6767  H206206  0.998   .     S
C6868  C6969   1.300   .     S
C6868  C281281  1.442   1_556 S
C6969  C7070   1.344   .     D
C6969  H207207  0.857   .     S
C7070  H208208  0.989   .     S
C7171  C7272   1.209   .     S
C7171  C7676   1.525   .     S
C7171  C283283  1.357   1_456 D
C7272  C7373   1.268   .     D
C7272  H209209  1.170   .     S
C7373  C7474   1.522   .     S
C7373  H210210  0.937   .     S
C7474  C7575   1.215   .     S
C7474  N7777   1.294   .     D
C7575  C7676   1.267   .     D
C7575  H211211  1.162   .     S
C7676  H212212  0.941   .     S
N7777  C145145  1.457   .     S
C7878  C7979   1.242   .     S
C7878  C8383   1.631   .     S
C7878  C284284  1.356   .     D
C7979  C8080   1.259   .     D
C7979  H213213  1.254   .     S
C8080  C8181   1.627   .     S
C8080  H214214  0.964   .     S
C8181  C8282   1.249   .     S
C8181  N8484   1.278   .     D
C8282  C8383   1.266   .     D
C8282  H215215  1.250   .     S
C8383  H216216  0.965   .     S
N8484  C142142  1.509   .     S
C8585  C8686   1.359   .     S
C8585  H217217  0.893   .     S
C8686  C8989   1.226   .     D
C8686  C9393   1.337   .     S
C8787  C8888   1.341   .     S
C8787  H218218  1.043   .     S
C8888  C9494   1.354   .     D
C8888  C9898   1.541   .     S
C8989  C9090   1.290   .     S
C8989  H219219  1.028   .     S
C9090  C9191   1.343   .     D
C9090  H220220  0.944   .     S
C9191  C9292   1.229   .     S
C9191  C9999   1.383   .     S
C9292  C9393   1.280   .     D
C9292  H221221  1.026   .     S
C9393  H291291  0.944   1_556 S
C9494  C9595   1.268   .     S
C9494  H222222  1.190   .     S
C9595  C9696   1.552   .     D
C9595  H223223  1.061   .     S
C9696  C9797   1.359   .     S
C9696  C100100  1.370   .     S
C9797  C9898   1.261   .     D
C9797  H224224  1.197   .     S
C9898  H297297  1.052   1_556 S
C9999  C106106  1.532   .     D
C9999  C110110  1.433   .     S
C100100 C101101  1.191   .     D
C100100 C105105  1.433   .     S
C101101 C102102  1.267   .     S
C101101 H225225  1.084   .     S
C102102 C103103  1.425   .     D
C102102 H298298  0.924   1_556 S
C103103 C104104  1.192   .     S
C103103 C111111  1.346   .     S
C104104 C105105  1.269   .     D
C104104 H226226  1.093   .     S
C105105 H227227  0.913   .     S
C106106 C107107  1.304   .     S
C106106 H228228  1.110   .     S
C107107 C108108  1.430   .     D
C107107 H294294  1.190   1_556 S
C108108 C109109  1.538   .     S
C108108 C114114  1.406   .     S
C109109 C110110  1.304   .     D
C109109 H229229  1.107   .     S
C110110 H230230  1.188   .     S
C111111 N112112  1.364   .     D
C111111 H231231  0.976   .     S
N112112 C113113  1.334   .     S
C113113 C117117  1.303   .     D
C113113 C121121  1.489   .     S
C114114 N115115  1.320   .     D
C114114 H232232  1.199   .     S
N115115 C116116  1.356   .     S
C116116 C122122  1.593   .     D
C116116 C126126  1.478   .     S
C117117 C118118  1.319   .     S
C117117 H233233  1.153   .     S
C118118 C119119  1.483   .     D
C118118 H234234  1.030   .     S
C119119 C120120  1.318   .     S
C119119 C273273  1.425   1_546 S
C120120 C121121  1.307   .     D
C120120 H235235  1.132   .     S
C121121 H236236  0.992   .     S
C122122 C123123  1.348   .     S
C122122 H237237  1.153   .     S
C123123 C124124  1.496   .     D
C123123 H238238  1.234   .     S
C124124 C125125  1.598   .     S
C124124 C278278  1.456   1_556 S
C125125 C126126  1.320   .     D
C125125 H239239  1.158   .     S
C126126 H240240  1.215   .     S
C127127 C129129  1.475   .     S
C127127 C133133  1.172   .     S
C127127 C276276  1.320   1_556 D
C128128 C134134  1.237   .     S
C128128 C138138  1.630   .     S
C128128 C275275  1.345   1_545 D
C129129 C130130  1.290   .     D
C129129 H241241  0.906   .     S
C130130 C131131  1.176   .     S
C130130 H242242  1.135   .     S
C131131 C132132  1.484   .     S
C131131 N144144  1.373   .     D
C132132 C133133  1.278   .     D
C132132 H243243  0.914   .     S
C133133 H244244  1.128   .     S
C134134 C135135  1.260   .     D
C134134 H245245  1.248   .     S
C135135 C136136  1.628   .     S
C135135 H246246  0.959   .     S
C136136 C137137  1.242   .     S
C136136 N139139  1.281   .     D
C137137 C138138  1.265   .     D
C137137 H247247  1.251   .     S
C138138 H248248  0.969   .     S
N139139 C140140  1.508   .     S
C140140 C141141  1.279   .     D
C140140 H249249  1.032   .     S
C141141 C149149  1.291   .     S
C141141 C153153  1.625   .     S
C142142 C143143  1.280   .     D
C142142 H250250  1.027   .     S
C143143 C154154  1.279   .     S
C143143 C158158  1.615   .     S
N144144 C147147  1.072   .     S
C145145 C146146  1.313   .     D
C145145 H251251  0.989   .     S
C146146 C159159  1.234   .     S
C146146 C163163  1.578   .     S
C147147 C148148  1.421   .     D
C147147 H252252  1.227   .     S
C148148 C164164  1.195   .     S
C148148 C168168  1.632   .     S
C149149 C150150  1.216   .     D
C149149 H253253  1.252   .     S
C150150 C151151  1.635   .     S
C150150 H254254  1.013   .     S
C151151 C152152  1.291   .     S
C151151 C156156  1.314   .     D
C152152 C153153  1.212   .     D
C152152 H255255  1.249   .     S
C153153 H299299  1.009   1_545 S
C154154 C155155  1.218   .     D
C154154 H256256  1.244   .     S
C155155 C156156  1.625   .     S
C155155 H257257  1.002   .     S
C156156 C157157  1.279   .     S
C157157 C158158  1.213   .     D
C157157 H258258  1.239   .     S
C158158 H300300  1.000   1_545 S
C159159 C160160  1.265   .     D
C159159 H292292  1.216   1_556 S
C160160 C161161  1.592   .     S
C160160 H259259  0.957   .     S
C161161 C162162  1.228   .     S
C161161 C166166  1.384   .     D
C162162 C163163  1.253   .     D
C162162 H260260  1.213   .     S
C163163 H261261  0.960   .     S
C164164 C165165  1.298   .     D
C164164 H293293  1.251   1_556 S
C165165 C166166  1.631   .     S
C165165 H262262  0.940   .     S
C166166 C167167  1.205   .     S
C167167 C168168  1.314   .     D
C167167 H263263  1.251   .     S
C168168 H264264  0.931   .     S
C265265 C266266  1.315   .     S
C265265 C270270  1.304   .     D
C265265 C44     1.453   1_554 S
C266266 C267267  1.362   .     D
C266266 C11     1.393   1_554 S
C267267 C268268  1.305   .     S
C267267 H271271  1.008   .     S
C268268 C269269  1.303   .     D
C268268 C22     1.436   1_554 S
C269269 C270270  1.361   .     S
C269269 C33     1.383   1_554 S
C270270 H272272  1.005   .     S
C273273 C274274  1.279   .     D
C273273 C276276  1.259   .     S
C273273 C119119  1.425   1_564 S
C274274 C275275  1.349   .     S
C274274 H279279  0.969   .     S
C275275 C278278  1.296   .     S
C275275 C128128  1.345   1_565 D
C276276 C277277  1.353   .     S
C276276 C127127  1.320   1_554 D
C277277 C278278  1.255   .     D
C277277 H280280  0.984   .     S
C278278 C124124  1.456   1_554 S
C281281 C282282  1.290   .     D
C281281 C284284  1.326   .     S
C281281 C6868   1.442   1_554 S
C282282 C283283  1.337   .     S
C282282 H287287  1.014   .     S
C283283 C286286  1.337   .     S
C283283 C7171   1.357   1_654 D
C284284 C285285  1.339   .     S
C285285 C286286  1.266   .     D
C285285 H288288  1.010   .     S
C286286 C5555   1.406   1_654 S
H289289 C4242   1.001   1_554 S
H290290 C4646   1.027   1_554 S
H291291 C9393   0.944   1_554 S
H292292 C159159  1.216   1_554 S
H293293 C164164  1.251   1_554 S
H294294 C107107  1.190   1_554 S
H295295 C3333   0.869   1_554 S
H296296 C6161   0.930   1_554 S
H297297 C9898   1.052   1_554 S
H298298 C102102  0.924   1_554 S
H299299 C153153  1.009   1_565 S
H300300 C158158  1.000   1_565 S
