data_1132
_audit_creation_date              2023-09-08
_audit_creation_method            'Materials Studio'
_symmetry_space_group_name_H-M    'P1'
_symmetry_Int_Tables_number       1
_symmetry_cell_setting            triclinic
loop_
_symmetry_equiv_pos_as_xyz
  x,y,z
_cell_length_a                    26.0622
_cell_length_b                    26.8979
_cell_length_c                    4.1258
_cell_angle_alpha                 109.5630
_cell_angle_beta                  86.8445
_cell_angle_gamma                 95.6624
loop_
_atom_site_label
_atom_site_type_symbol
_atom_site_fract_x
_atom_site_fract_y
_atom_site_fract_z
_atom_site_U_iso_or_equiv
_atom_site_adp_type
_atom_site_occupancy
C11    C     0.53716   0.60919   0.00663   0.00000  Uiso   1.00
C22    C     0.50256   0.56321  -0.04231   0.00000  Uiso   1.00
C33    C     0.41624   0.51877  -0.14081   0.00000  Uiso   1.00
C44    C     0.52041   0.66187   0.02840   0.00000  Uiso   1.00
C55    C     0.55096   0.69452  -0.12403   0.00000  Uiso   1.00
C66    C     0.53739   0.74506  -0.08852   0.00000  Uiso   1.00
C77    C     0.49244   0.76392   0.09604   0.00000  Uiso   1.00
C88    C     0.46211   0.73187   0.25218   0.00000  Uiso   1.00
C99    C     0.47647   0.68181   0.22435   0.00000  Uiso   1.00
C1010  C     0.47637   0.81626   0.12160   0.00000  Uiso   1.00
C1111  C     0.93191   0.48119  -0.15886   0.00000  Uiso   1.00
C1212  C     0.98373   0.47395  -0.13051   0.00000  Uiso   1.00
N1313  N     0.09790   0.46992  -0.08390   0.00000  Uiso   1.00
N1414  N     0.14995   0.46580  -0.03147   0.00000  Uiso   1.00
O1515  O     0.09134   0.53436   0.42275   0.00000  Uiso   1.00
C1616  C     0.53147   0.92696  -0.14667   0.00000  Uiso   1.00
C1717  C     0.52224   0.97565  -0.17504   0.00000  Uiso   1.00
N1818  N     0.49902   0.08729  -0.06336   0.00000  Uiso   1.00
N1919  N     0.48901   0.13550  -0.10019   0.00000  Uiso   1.00
O2020  O     0.42002   0.04961  -0.23334   0.00000  Uiso   1.00
C2121  C     0.46633   0.38097  -0.01526   0.00000  Uiso   1.00
C2222  C     0.50253   0.42506  -0.00536   0.00000  Uiso   1.00
C2323  C     0.59036   0.46738   0.04377   0.00000  Uiso   1.00
C2424  C     0.48058   0.32840  -0.00773   0.00000  Uiso   1.00
C2525  C     0.45381   0.28080  -0.21043   0.00000  Uiso   1.00
C2626  C     0.46643   0.23165  -0.20573   0.00000  Uiso   1.00
C2727  C     0.50715   0.22877  -0.00608   0.00000  Uiso   1.00
C2828  C     0.53400   0.27564   0.19462   0.00000  Uiso   1.00
C2929  C     0.51932   0.32466   0.20455   0.00000  Uiso   1.00
C3030  C     0.52033   0.17775   0.01200   0.00000  Uiso   1.00
C3131  C     0.60843   0.55958   0.05799   0.00000  Uiso   1.00
C3232  C     0.57353   0.51459   0.03110   0.00000  Uiso   1.00
C3333  C     0.55614   0.42312   0.00912   0.00000  Uiso   1.00
C3434  C     0.66492   0.56042   0.09879   0.00000  Uiso   1.00
C3535  C     0.68977   0.59987   0.37357   0.00000  Uiso   1.00
C3636  C     0.74281   0.60136   0.41410   0.00000  Uiso   1.00
C3737  C     0.77209   0.56348   0.18004   0.00000  Uiso   1.00
C3838  C     0.74766   0.52497  -0.10154   0.00000  Uiso   1.00
C3939  C     0.69461   0.52385  -0.14382   0.00000  Uiso   1.00
C4040  C     0.82750   0.56410   0.23976   0.00000  Uiso   1.00
C4141  C     0.44276   0.91466   0.03624   0.00000  Uiso   1.00
C4242  C     0.43326   0.96319   0.00523   0.00000  Uiso   1.00
C4343  C     0.39596   0.43129  -0.07686   0.00000  Uiso   1.00
C4444  C     0.43173   0.47440  -0.07712   0.00000  Uiso   1.00
C4545  C     0.45105   0.56180  -0.12985   0.00000  Uiso   1.00
C4646  C     0.33953   0.43145  -0.11606   0.00000  Uiso   1.00
C4747  C     0.31326   0.39040  -0.37523   0.00000  Uiso   1.00
C4848  C     0.26053   0.39087  -0.41978   0.00000  Uiso   1.00
C4949  C     0.23290   0.43176  -0.20026   0.00000  Uiso   1.00
C5050  C     0.25870   0.47187   0.06704   0.00000  Uiso   1.00
C5151  C     0.31152   0.47165   0.10848   0.00000  Uiso   1.00
C5252  C     0.17777   0.43297  -0.25828   0.00000  Uiso   1.00
C5353  C     0.94146   0.56599   0.29306   0.00000  Uiso   1.00
C5454  C     0.99330   0.55910   0.32105   0.00000  Uiso   1.00
C5555  C     0.47296  -0.00565  -0.09839   0.00000  Uiso   1.00
C5656  C     0.01531   0.51302   0.11071   0.00000  Uiso   1.00
C5757  C     0.52031   0.51673  -0.01220   0.00000  Uiso   1.00
C5858  C     0.58942   0.60621   0.05490   0.00000  Uiso   1.00
C5959  C     0.48474   0.47215  -0.02786   0.00000  Uiso   1.00
C6060  C     0.41376   0.38604  -0.04241   0.00000  Uiso   1.00
C6161  C     0.91010   0.52657   0.05500   0.00000  Uiso   1.00
N6262  N     0.85620   0.53077   0.02156   0.00000  Uiso   1.00
C6363  C     0.07036   0.50639   0.15826   0.00000  Uiso   1.00
C6464  C     0.49225   0.89637  -0.03825   0.00000  Uiso   1.00
N6565  N     0.50380   0.84585  -0.02762   0.00000  Uiso   1.00
C6666  C     0.46224   0.04528  -0.13641   0.00000  Uiso   1.00
H6767  H     0.37703   0.52056  -0.20369   0.00000  Uiso   1.00
H6868  H     0.58519   0.68076  -0.27429   0.00000  Uiso   1.00
H6969  H     0.56118   0.76899  -0.21358   0.00000  Uiso   1.00
H7070  H     0.42790   0.74611   0.40232   0.00000  Uiso   1.00
H7171  H     0.45393   0.65919   0.36381   0.00000  Uiso   1.00
H7272  H     0.44158   0.82932   0.26770   0.00000  Uiso   1.00
H7373  H     0.90807   0.45098  -0.34487   0.00000  Uiso   1.00
H7474  H     0.99820   0.43732  -0.29332   0.00000  Uiso   1.00
H7575  H     0.08183   0.44857  -0.32119   0.00000  Uiso   1.00
H7676  H     0.56918   0.91231  -0.21359   0.00000  Uiso   1.00
H7777  H     0.55312   0.99778  -0.26782   0.00000  Uiso   1.00
H7878  H     0.53342   0.08437   0.04457   0.00000  Uiso   1.00
H7979  H     0.63045   0.46358   0.07585   0.00000  Uiso   1.00
H8080  H     0.42409   0.28129  -0.38234   0.00000  Uiso   1.00
H8181  H     0.44521   0.19564  -0.36375   0.00000  Uiso   1.00
H8282  H     0.56442   0.27446   0.36000   0.00000  Uiso   1.00
H8383  H     0.53826   0.35968   0.38196   0.00000  Uiso   1.00
H8484  H     0.55487   0.17657   0.14297   0.00000  Uiso   1.00
H8585  H     0.57332   0.38708  -0.01995   0.00000  Uiso   1.00
H8686  H     0.66786   0.62897   0.56061   0.00000  Uiso   1.00
H8787  H     0.76083   0.63136   0.63341   0.00000  Uiso   1.00
H8888  H     0.76983   0.49605  -0.28914   0.00000  Uiso   1.00
H8989  H     0.67664   0.49464  -0.36642   0.00000  Uiso   1.00
H9090  H     0.84291   0.59160   0.47743   0.00000  Uiso   1.00
H9191  H     0.41119   0.89150   0.11223   0.00000  Uiso   1.00
H9292  H     0.39502   0.97704   0.06558   0.00000  Uiso   1.00
H9393  H     0.43716   0.59379  -0.19478   0.00000  Uiso   1.00
H9494  H     0.33384   0.35842  -0.54657   0.00000  Uiso   1.00
H9595  H     0.24140   0.35958  -0.62765   0.00000  Uiso   1.00
H9696  H     0.23795   0.50370   0.24093   0.00000  Uiso   1.00
H9797  H     0.33069   0.50321   0.31317   0.00000  Uiso   1.00
H9898  H     0.16072   0.40671  -0.49495   0.00000  Uiso   1.00
H9999  H     0.92653   0.60220   0.45733   0.00000  Uiso   1.00
H100100 H     1.01655   0.58981   0.50960   0.00000  Uiso   1.00
H101101 H     0.61606   0.64115   0.09457   0.00000  Uiso   1.00
H102102 H     0.38563   0.35391  -0.03768   0.00000  Uiso   1.00
loop_
_geom_bond_atom_site_label_1
_geom_bond_atom_site_label_2
_geom_bond_distance
_geom_bond_site_symmetry_2
_ccdc_geom_bond_type
C11    C22     1.420   .     D
C11    C44     1.496   .     S
C11    C5858   1.401   .     S
C22    C4545   1.403   .     S
C22    C5757   1.420   .     S
C33    C4444   1.405   .     S
C33    C4545   1.388   .     D
C33    H6767   1.078   .     S
C44    C55     1.406   .     D
C44    C99     1.408   .     S
C55    C66     1.397   .     S
C55    H6868   1.081   .     S
C66    C77     1.404   .     D
C66    H6969   1.083   .     S
C77    C88     1.402   .     S
C77    C1010   1.477   .     S
C88    C99     1.399   .     D
C88    H7070   1.083   .     S
C99    H7171   1.083   .     S
C1010  N6565   1.300   .     D
C1010  H7272   1.082   .     S
C1111  C1212   1.400   .     D
C1111  C6161   1.397   .     S
C1111  H7373   1.082   .     S
C1212  H7474   1.080   .     S
C1212  C5656   1.411   1_655 S
N1313  N1414   1.406   .     S
N1313  C6363   1.371   .     S
N1313  H7575   1.042   .     S
N1414  C5252   1.296   .     D
O1515  C6363   1.221   .     D
C1616  C1717   1.398   .     S
C1616  C6464   1.397   .     D
C1616  H7676   1.082   .     S
C1717  H7777   1.083   .     S
C1717  C5555   1.407   1_565 D
N1818  N1919   1.406   .     S
N1818  C6666   1.370   .     S
N1818  H7878   1.044   .     S
N1919  C3030   1.295   .     D
O2020  C6666   1.220   .     D
C2121  C2222   1.432   .     S
C2121  C2424   1.508   .     S
C2121  C6060   1.404   .     D
C2222  C3333   1.409   .     D
C2222  C5959   1.424   .     S
C2323  C3232   1.402   .     D
C2323  C3333   1.387   .     S
C2323  H7979   1.079   .     S
C2424  C2525   1.413   .     D
C2424  C2929   1.405   .     S
C2525  C2626   1.400   .     S
C2525  H8080   1.083   .     S
C2626  C2727   1.402   .     D
C2626  H8181   1.086   .     S
C2727  C2828   1.398   .     S
C2727  C3030   1.474   .     S
C2828  C2929   1.396   .     D
C2828  H8282   1.084   .     S
C2929  H8383   1.074   .     S
C3030  H8484   1.084   .     S
C3131  C3232   1.417   .     S
C3131  C3434   1.488   .     S
C3131  C5858   1.397   .     D
C3232  C5757   1.417   .     S
C3333  H8585   1.075   .     S
C3434  C3535   1.404   .     S
C3434  C3939   1.405   .     D
C3535  C3636   1.397   .     D
C3535  H8686   1.081   .     S
C3636  C3737   1.402   .     S
C3636  H8787   1.083   .     S
C3737  C3838   1.405   .     D
C3737  C4040   1.476   .     S
C3838  C3939   1.399   .     S
C3838  H8888   1.084   .     S
C3939  H8989   1.082   .     S
C4040  N6262   1.301   .     D
C4040  H9090   1.081   .     S
C4141  C4242   1.400   .     D
C4141  C6464   1.407   .     S
C4141  H9191   1.079   .     S
C4242  H9292   1.085   .     S
C4242  C5555   1.406   1_565 S
C4343  C4444   1.415   .     D
C4343  C4646   1.489   .     S
C4343  C6060   1.397   .     S
C4444  C5959   1.418   .     S
C4545  H9393   1.082   .     S
C4646  C4747   1.404   .     D
C4646  C5151   1.404   .     S
C4747  C4848   1.398   .     S
C4747  H9494   1.081   .     S
C4848  C4949   1.402   .     D
C4848  H9595   1.083   .     S
C4949  C5050   1.405   .     S
C4949  C5252   1.475   .     S
C5050  C5151   1.397   .     D
C5050  H9696   1.085   .     S
C5151  H9797   1.080   .     S
C5252  H9898   1.083   .     S
C5353  C5454   1.398   .     S
C5353  C6161   1.406   .     D
C5353  H9999   1.078   .     S
C5454  H100100  1.085   .     S
C5454  C5656   1.408   1_655 D
C5555  C6666   1.484   .     S
C5555  C1717   1.407   1_545 D
C5555  C4242   1.406   1_545 S
C5656  C6363   1.495   .     S
C5656  C1212   1.411   1_455 S
C5656  C5454   1.408   1_455 D
C5757  C5959   1.427   .     D
C5858  H101101  1.083   .     S
C6060  H102102  1.081   .     S
C6161  N6262   1.438   .     S
C6464  N6565   1.436   .     S
