data_1133
_audit_creation_date              2023-09-08
_audit_creation_method            'Materials Studio'
_symmetry_space_group_name_H-M    'P1'
_symmetry_Int_Tables_number       1
_symmetry_cell_setting            triclinic
loop_
_symmetry_equiv_pos_as_xyz
  x,y,z
_cell_length_a                    38.4962
_cell_length_b                    42.6997
_cell_length_c                    3.7970
_cell_angle_alpha                 90.0000
_cell_angle_beta                  90.0000
_cell_angle_gamma                 90.0000
loop_
_atom_site_label
_atom_site_type_symbol
_atom_site_fract_x
_atom_site_fract_y
_atom_site_fract_z
_atom_site_U_iso_or_equiv
_atom_site_adp_type
_atom_site_occupancy
C1     C     0.51803   0.44357   0.06609   0.00000  Uiso   1.00
C2     C     0.53696   0.47117   0.00680   0.00000  Uiso   1.00
C3     C     0.42626   0.47126  -0.02667   0.00000  Uiso   1.00
C4     C     0.40379   0.44269  -0.04239   0.00000  Uiso   1.00
C5     C     0.41370   0.41572  -0.22985   0.00000  Uiso   1.00
C6     C     0.39225   0.38935  -0.23998   0.00000  Uiso   1.00
C7     C     0.35969   0.38973  -0.07536   0.00000  Uiso   1.00
C8     C     0.34882   0.41705   0.09824   0.00000  Uiso   1.00
C9     C     0.37064   0.44315   0.11534   0.00000  Uiso   1.00
C10    C     0.33748   0.36162  -0.09007   0.00000  Uiso   1.00
C11    C     0.72698   0.72392   0.07244   0.00000  Uiso   1.00
C12    C     0.71423   0.75480   0.06881   0.00000  Uiso   1.00
C13    C     0.73676   0.78044   0.06496   0.00000  Uiso   1.00
C14    C     0.70193   0.69715   0.07694   0.00000  Uiso   1.00
N15    N     0.69038   0.64041   0.10206   0.00000  Uiso   1.00
O16    O     0.17094   0.20292   0.05824   0.00000  Uiso   1.00
N17    N     0.21277   0.16654   0.11290   0.00000  Uiso   1.00
H18    H     0.53058   0.42154   0.11938   0.00000  Uiso   1.00
H19    H     0.43777   0.41504  -0.37476   0.00000  Uiso   1.00
H20    H     0.40085   0.36879  -0.38262   0.00000  Uiso   1.00
H21    H     0.32368   0.41816   0.22539   0.00000  Uiso   1.00
H22    H     0.36175   0.46359   0.25822   0.00000  Uiso   1.00
H23    H     0.34470   0.34289  -0.26736   0.00000  Uiso   1.00
H24    H     0.68655   0.75932   0.06722   0.00000  Uiso   1.00
H25    H     0.72516   0.80340   0.05290   0.00000  Uiso   1.00
H26    H     0.23817   0.16180   0.18969   0.00000  Uiso   1.00
C27    C     0.01803   0.94357   0.06609   0.00000  Uiso   1.00
C28    C     0.03696   0.97117   0.00680   0.00000  Uiso   1.00
C29    C     0.92626   0.97126  -0.02667   0.00000  Uiso   1.00
C30    C     0.90379   0.94269  -0.04239   0.00000  Uiso   1.00
C31    C     0.91370   0.91572  -0.22985   0.00000  Uiso   1.00
C32    C     0.89225   0.88935  -0.23998   0.00000  Uiso   1.00
C33    C     0.85969   0.88973  -0.07536   0.00000  Uiso   1.00
C34    C     0.84882   0.91705   0.09824   0.00000  Uiso   1.00
C35    C     0.87064   0.94315   0.11534   0.00000  Uiso   1.00
C36    C     0.83748   0.86162  -0.09007   0.00000  Uiso   1.00
C37    C     0.22698   0.22392   0.07244   0.00000  Uiso   1.00
C38    C     0.21423   0.25480   0.06881   0.00000  Uiso   1.00
C39    C     0.23676   0.28044   0.06496   0.00000  Uiso   1.00
C40    C     0.20193   0.19715   0.07694   0.00000  Uiso   1.00
N41    N     0.19038   0.14041   0.10206   0.00000  Uiso   1.00
O42    O     0.67094   0.70292   0.05824   0.00000  Uiso   1.00
N43    N     0.71277   0.66654   0.11290   0.00000  Uiso   1.00
H44    H     0.03058   0.92154   0.11938   0.00000  Uiso   1.00
H45    H     0.93777   0.91504  -0.37476   0.00000  Uiso   1.00
H46    H     0.90085   0.86879  -0.38262   0.00000  Uiso   1.00
H47    H     0.82368   0.91816   0.22539   0.00000  Uiso   1.00
H48    H     0.86175   0.96359   0.25822   0.00000  Uiso   1.00
H49    H     0.84470   0.84289  -0.26736   0.00000  Uiso   1.00
H50    H     0.18655   0.25932   0.06722   0.00000  Uiso   1.00
H51    H     0.22516   0.30340   0.05290   0.00000  Uiso   1.00
H52    H     0.73817   0.66180   0.18969   0.00000  Uiso   1.00
C53    C     0.48197   0.55643   0.06609   0.00000  Uiso   1.00
C54    C     0.46304   0.52883   0.00680   0.00000  Uiso   1.00
C55    C     0.57374   0.52874  -0.02667   0.00000  Uiso   1.00
C56    C     0.59621   0.55731  -0.04239   0.00000  Uiso   1.00
C57    C     0.58630   0.58428  -0.22985   0.00000  Uiso   1.00
C58    C     0.60775   0.61065  -0.23998   0.00000  Uiso   1.00
C59    C     0.64031   0.61027  -0.07536   0.00000  Uiso   1.00
C60    C     0.65118   0.58295   0.09824   0.00000  Uiso   1.00
C61    C     0.62936   0.55685   0.11534   0.00000  Uiso   1.00
C62    C     0.66252   0.63838  -0.09007   0.00000  Uiso   1.00
C63    C     0.27302   0.27608   0.07244   0.00000  Uiso   1.00
C64    C     0.28577   0.24520   0.06881   0.00000  Uiso   1.00
C65    C     0.26324   0.21956   0.06496   0.00000  Uiso   1.00
C66    C     0.29807   0.30285   0.07694   0.00000  Uiso   1.00
N67    N     0.30962   0.35959   0.10206   0.00000  Uiso   1.00
O68    O     0.82906   0.79708   0.05824   0.00000  Uiso   1.00
N69    N     0.78723   0.83346   0.11290   0.00000  Uiso   1.00
H70    H     0.46942   0.57846   0.11938   0.00000  Uiso   1.00
H71    H     0.56223   0.58496  -0.37476   0.00000  Uiso   1.00
H72    H     0.59915   0.63121  -0.38262   0.00000  Uiso   1.00
H73    H     0.67632   0.58184   0.22539   0.00000  Uiso   1.00
H74    H     0.63825   0.53641   0.25822   0.00000  Uiso   1.00
H75    H     0.65530   0.65711  -0.26736   0.00000  Uiso   1.00
H76    H     0.31345   0.24068   0.06722   0.00000  Uiso   1.00
H77    H     0.27484   0.19660   0.05290   0.00000  Uiso   1.00
H78    H     0.76183   0.83820   0.18969   0.00000  Uiso   1.00
C79    C     0.98197   0.05643   0.06609   0.00000  Uiso   1.00
C80    C     0.96304   0.02883   0.00680   0.00000  Uiso   1.00
C81    C     0.07374   0.02874  -0.02667   0.00000  Uiso   1.00
C82    C     0.09621   0.05731  -0.04239   0.00000  Uiso   1.00
C83    C     0.08630   0.08428  -0.22985   0.00000  Uiso   1.00
C84    C     0.10775   0.11065  -0.23998   0.00000  Uiso   1.00
C85    C     0.14031   0.11027  -0.07536   0.00000  Uiso   1.00
C86    C     0.15118   0.08295   0.09824   0.00000  Uiso   1.00
C87    C     0.12936   0.05685   0.11534   0.00000  Uiso   1.00
C88    C     0.16252   0.13838  -0.09007   0.00000  Uiso   1.00
C89    C     0.77302   0.77608   0.07244   0.00000  Uiso   1.00
C90    C     0.78577   0.74520   0.06881   0.00000  Uiso   1.00
C91    C     0.76324   0.71956   0.06496   0.00000  Uiso   1.00
C92    C     0.79807   0.80285   0.07694   0.00000  Uiso   1.00
N93    N     0.80962   0.85959   0.10206   0.00000  Uiso   1.00
O94    O     0.32906   0.29708   0.05824   0.00000  Uiso   1.00
N95    N     0.28723   0.33346   0.11290   0.00000  Uiso   1.00
H96    H     0.96942   0.07846   0.11938   0.00000  Uiso   1.00
H97    H     0.06223   0.08496  -0.37476   0.00000  Uiso   1.00
H98    H     0.09915   0.13121  -0.38262   0.00000  Uiso   1.00
H99    H     0.17632   0.08184   0.22539   0.00000  Uiso   1.00
H100   H     0.13825   0.03641   0.25822   0.00000  Uiso   1.00
H101   H     0.15530   0.15711  -0.26736   0.00000  Uiso   1.00
H102   H     0.81345   0.74068   0.06722   0.00000  Uiso   1.00
H103   H     0.77484   0.69660   0.05290   0.00000  Uiso   1.00
H104   H     0.26183   0.33820   0.18969   0.00000  Uiso   1.00
C105   C     0.51803   0.55643   0.06609   0.00000  Uiso   1.00
C106   C     0.53696   0.52883   0.00680   0.00000  Uiso   1.00
C107   C     0.42626   0.52874  -0.02667   0.00000  Uiso   1.00
C108   C     0.40379   0.55731  -0.04239   0.00000  Uiso   1.00
C109   C     0.41370   0.58428  -0.22985   0.00000  Uiso   1.00
C110   C     0.39225   0.61065  -0.23998   0.00000  Uiso   1.00
C111   C     0.35969   0.61027  -0.07536   0.00000  Uiso   1.00
C112   C     0.34882   0.58295   0.09824   0.00000  Uiso   1.00
C113   C     0.37064   0.55685   0.11534   0.00000  Uiso   1.00
C114   C     0.33748   0.63838  -0.09007   0.00000  Uiso   1.00
C115   C     0.72698   0.27608   0.07244   0.00000  Uiso   1.00
C116   C     0.71423   0.24520   0.06881   0.00000  Uiso   1.00
C117   C     0.73676   0.21956   0.06496   0.00000  Uiso   1.00
C118   C     0.70193   0.30285   0.07694   0.00000  Uiso   1.00
N119   N     0.69038   0.35959   0.10206   0.00000  Uiso   1.00
O120   O     0.17094   0.79708   0.05824   0.00000  Uiso   1.00
N121   N     0.21277   0.83346   0.11290   0.00000  Uiso   1.00
H122   H     0.53058   0.57846   0.11938   0.00000  Uiso   1.00
H123   H     0.43777   0.58496  -0.37476   0.00000  Uiso   1.00
H124   H     0.40085   0.63121  -0.38262   0.00000  Uiso   1.00
H125   H     0.32368   0.58184   0.22539   0.00000  Uiso   1.00
H126   H     0.36175   0.53641   0.25822   0.00000  Uiso   1.00
H127   H     0.34470   0.65711  -0.26736   0.00000  Uiso   1.00
H128   H     0.68655   0.24068   0.06722   0.00000  Uiso   1.00
H129   H     0.72516   0.19660   0.05290   0.00000  Uiso   1.00
H130   H     0.23817   0.83820   0.18969   0.00000  Uiso   1.00
C131   C     0.01803   0.05643   0.06609   0.00000  Uiso   1.00
C132   C     0.03696   0.02883   0.00680   0.00000  Uiso   1.00
C133   C     0.92626   0.02874  -0.02667   0.00000  Uiso   1.00
C134   C     0.90379   0.05731  -0.04239   0.00000  Uiso   1.00
C135   C     0.91370   0.08428  -0.22985   0.00000  Uiso   1.00
C136   C     0.89225   0.11065  -0.23998   0.00000  Uiso   1.00
C137   C     0.85969   0.11027  -0.07536   0.00000  Uiso   1.00
C138   C     0.84882   0.08295   0.09824   0.00000  Uiso   1.00
C139   C     0.87064   0.05685   0.11534   0.00000  Uiso   1.00
C140   C     0.83748   0.13838  -0.09007   0.00000  Uiso   1.00
C141   C     0.22698   0.77608   0.07244   0.00000  Uiso   1.00
C142   C     0.21423   0.74520   0.06881   0.00000  Uiso   1.00
C143   C     0.23676   0.71956   0.06496   0.00000  Uiso   1.00
C144   C     0.20193   0.80285   0.07694   0.00000  Uiso   1.00
N145   N     0.19038   0.85959   0.10206   0.00000  Uiso   1.00
O146   O     0.67094   0.29708   0.05824   0.00000  Uiso   1.00
N147   N     0.71277   0.33346   0.11290   0.00000  Uiso   1.00
H148   H     0.03058   0.07846   0.11938   0.00000  Uiso   1.00
H149   H     0.93777   0.08496  -0.37476   0.00000  Uiso   1.00
H150   H     0.90085   0.13121  -0.38262   0.00000  Uiso   1.00
H151   H     0.82368   0.08184   0.22539   0.00000  Uiso   1.00
H152   H     0.86175   0.03641   0.25822   0.00000  Uiso   1.00
H153   H     0.84470   0.15711  -0.26736   0.00000  Uiso   1.00
H154   H     0.18655   0.74068   0.06722   0.00000  Uiso   1.00
H155   H     0.22516   0.69660   0.05290   0.00000  Uiso   1.00
H156   H     0.73817   0.33820   0.18969   0.00000  Uiso   1.00
C157   C     0.48197   0.44357   0.06609   0.00000  Uiso   1.00
C158   C     0.46304   0.47117   0.00680   0.00000  Uiso   1.00
C159   C     0.57374   0.47126  -0.02667   0.00000  Uiso   1.00
C160   C     0.59621   0.44269  -0.04239   0.00000  Uiso   1.00
C161   C     0.58630   0.41572  -0.22985   0.00000  Uiso   1.00
C162   C     0.60775   0.38935  -0.23998   0.00000  Uiso   1.00
C163   C     0.64031   0.38973  -0.07536   0.00000  Uiso   1.00
C164   C     0.65118   0.41705   0.09824   0.00000  Uiso   1.00
C165   C     0.62936   0.44315   0.11534   0.00000  Uiso   1.00
C166   C     0.66252   0.36162  -0.09007   0.00000  Uiso   1.00
C167   C     0.27302   0.72392   0.07244   0.00000  Uiso   1.00
C168   C     0.28577   0.75480   0.06881   0.00000  Uiso   1.00
C169   C     0.26324   0.78044   0.06496   0.00000  Uiso   1.00
C170   C     0.29807   0.69715   0.07694   0.00000  Uiso   1.00
N171   N     0.30962   0.64041   0.10206   0.00000  Uiso   1.00
O172   O     0.82906   0.20292   0.05824   0.00000  Uiso   1.00
N173   N     0.78723   0.16654   0.11290   0.00000  Uiso   1.00
H174   H     0.46942   0.42154   0.11938   0.00000  Uiso   1.00
H175   H     0.56223   0.41504  -0.37476   0.00000  Uiso   1.00
H176   H     0.59915   0.36879  -0.38262   0.00000  Uiso   1.00
H177   H     0.67632   0.41816   0.22539   0.00000  Uiso   1.00
H178   H     0.63825   0.46359   0.25822   0.00000  Uiso   1.00
H179   H     0.65530   0.34289  -0.26736   0.00000  Uiso   1.00
H180   H     0.31345   0.75932   0.06722   0.00000  Uiso   1.00
H181   H     0.27484   0.80340   0.05290   0.00000  Uiso   1.00
H182   H     0.76183   0.16180   0.18969   0.00000  Uiso   1.00
C183   C     0.98197   0.94357   0.06609   0.00000  Uiso   1.00
C184   C     0.96304   0.97117   0.00680   0.00000  Uiso   1.00
C185   C     0.07374   0.97126  -0.02667   0.00000  Uiso   1.00
C186   C     0.09621   0.94269  -0.04239   0.00000  Uiso   1.00
C187   C     0.08630   0.91572  -0.22985   0.00000  Uiso   1.00
C188   C     0.10775   0.88935  -0.23998   0.00000  Uiso   1.00
C189   C     0.14031   0.88973  -0.07536   0.00000  Uiso   1.00
C190   C     0.15118   0.91705   0.09824   0.00000  Uiso   1.00
C191   C     0.12936   0.94315   0.11534   0.00000  Uiso   1.00
C192   C     0.16252   0.86162  -0.09007   0.00000  Uiso   1.00
C193   C     0.77302   0.22392   0.07244   0.00000  Uiso   1.00
C194   C     0.78577   0.25480   0.06881   0.00000  Uiso   1.00
C195   C     0.76324   0.28044   0.06496   0.00000  Uiso   1.00
C196   C     0.79807   0.19715   0.07694   0.00000  Uiso   1.00
N197   N     0.80962   0.14041   0.10206   0.00000  Uiso   1.00
O198   O     0.32906   0.70292   0.05824   0.00000  Uiso   1.00
N199   N     0.28723   0.66654   0.11290   0.00000  Uiso   1.00
H200   H     0.96942   0.92154   0.11938   0.00000  Uiso   1.00
H201   H     0.06223   0.91504  -0.37476   0.00000  Uiso   1.00
H202   H     0.09915   0.86879  -0.38262   0.00000  Uiso   1.00
H203   H     0.17632   0.91816   0.22539   0.00000  Uiso   1.00
H204   H     0.13825   0.96359   0.25822   0.00000  Uiso   1.00
H205   H     0.15530   0.84289  -0.26736   0.00000  Uiso   1.00
H206   H     0.81345   0.25932   0.06722   0.00000  Uiso   1.00
H207   H     0.77484   0.30340   0.05290   0.00000  Uiso   1.00
H208   H     0.26183   0.66180   0.18969   0.00000  Uiso   1.00
C209   C     0.48148   0.50000   0.00127   0.00000  Uiso   1.00
C210   C     0.40923   0.50000  -0.04677   0.00000  Uiso   1.00
C211   C     0.98148   0.00000   0.00127   0.00000  Uiso   1.00
C212   C     0.90923   0.00000  -0.04677   0.00000  Uiso   1.00
C213   C     0.51852   0.50000   0.00127   0.00000  Uiso   1.00
C214   C     0.59077   0.50000  -0.04677   0.00000  Uiso   1.00
C215   C     0.01852   0.00000   0.00127   0.00000  Uiso   1.00
C216   C     0.09077   0.00000  -0.04677   0.00000  Uiso   1.00
loop_
_geom_bond_atom_site_label_1
_geom_bond_atom_site_label_2
_geom_bond_distance
_geom_bond_site_symmetry_2
_ccdc_geom_bond_type
C1     C2      1.404   .     S
C1     H18     1.077   .     S
C1     C157    1.388   .     D
C2     C213    1.421   .     D
C2     C159    1.422   .     S
C3     C4      1.497   .     S
C3     C210    1.393   .     D
C3     C158    1.422   .     S
C4     C5      1.407   .     D
C4     C9      1.410   .     S
C5     C6      1.397   .     S
C5     H19     1.078   .     S
C6     C7      1.401   .     D
C6     H20     1.083   .     S
C7     C8      1.404   .     S
C7     C10     1.475   .     S
C8     C9      1.397   .     D
C8     H21     1.083   .     S
C9     H22     1.083   .     S
C10    H23     1.082   .     S
C10    N67     1.300   .     D
C11    C12     1.407   .     D
C11    C14     1.496   .     S
C11    C91     1.409   .     S
C12    C13     1.397   .     S
C12    H24     1.083   .     S
C13    H25     1.078   .     S
C13    C89     1.409   .     D
C14    N43     1.379   .     S
C14    O42     1.220   .     D
N15    C62     1.300   .     D
N15    N43     1.410   .     S
O16    C40     1.220   .     D
N17    H26     1.040   .     S
N17    C40     1.379   .     S
N17    N41     1.410   .     S
C27    C28     1.404   .     D
C27    H44     1.077   .     S
C27    C183    1.388   1_455 S
C28    C185    1.422   .     S
C28    C215    1.421   1_565 S
C29    C30     1.497   .     S
C29    C184    1.422   .     S
C29    C212    1.393   1_565 D
C30    C31     1.407   .     D
C30    C35     1.410   .     S
C31    C32     1.397   .     S
C31    H45     1.078   .     S
C32    C33     1.401   .     D
C32    H46     1.083   .     S
C33    C34     1.404   .     S
C33    C36     1.475   .     S
C34    C35     1.397   .     D
C34    H47     1.083   .     S
C35    H48     1.083   .     S
C36    H49     1.082   .     S
C36    N93     1.300   .     D
C37    C38     1.407   .     D
C37    C40     1.496   .     S
C37    C65     1.409   .     S
C38    C39     1.397   .     S
C38    H50     1.083   .     S
C39    H51     1.078   .     S
C39    C63     1.409   .     D
N41    C88     1.300   .     D
N43    H52     1.040   .     S
C53    C54     1.404   .     D
C53    H70     1.077   .     S
C53    C105    1.388   .     S
C54    C209    1.421   .     S
C54    C107    1.422   .     S
C55    C56     1.497   .     S
C55    C214    1.393   .     D
C55    C106    1.422   .     S
C56    C57     1.407   .     D
C56    C61     1.410   .     S
C57    C58     1.397   .     S
C57    H71     1.078   .     S
C58    C59     1.401   .     D
C58    H72     1.083   .     S
C59    C60     1.404   .     S
C59    C62     1.475   .     S
C60    C61     1.397   .     D
C60    H73     1.083   .     S
C61    H74     1.083   .     S
C62    H75     1.082   .     S
C63    C64     1.407   .     S
C63    C66     1.496   .     S
C64    C65     1.397   .     D
C64    H76     1.083   .     S
C65    H77     1.078   .     S
C66    N95     1.379   .     S
C66    O94     1.220   .     D
N67    N95     1.410   .     S
O68    C92     1.220   .     D
N69    H78     1.040   .     S
N69    C92     1.379   .     S
N69    N93     1.410   .     S
C79    C80     1.404   .     S
C79    H96     1.077   .     S
C79    C131    1.388   1_655 D
C80    C211    1.421   .     D
C80    C133    1.422   .     S
C81    C82     1.497   .     S
C81    C216    1.393   .     D
C81    C132    1.422   .     S
C82    C83     1.407   .     S
C82    C87     1.410   .     D
C83    C84     1.397   .     D
C83    H97     1.078   .     S
C84    C85     1.401   .     S
C84    H98     1.083   .     S
C85    C86     1.404   .     D
C85    C88     1.475   .     S
C86    C87     1.397   .     S
C86    H99     1.083   .     S
C87    H100    1.083   .     S
C88    H101    1.082   .     S
C89    C90     1.407   .     S
C89    C92     1.496   .     S
C90    C91     1.397   .     D
C90    H102    1.083   .     S
C91    H103    1.078   .     S
N95    H104    1.040   .     S
C105   C106    1.404   .     D
C105   H122    1.077   .     S
C106   C213    1.421   .     S
C107   C108    1.497   .     S
C107   C210    1.393   .     D
C108   C109    1.407   .     S
C108   C113    1.410   .     D
C109   C110    1.397   .     D
C109   H123    1.078   .     S
C110   C111    1.401   .     S
C110   H124    1.083   .     S
C111   C112    1.404   .     D
C111   C114    1.475   .     S
C112   C113    1.397   .     S
C112   H125    1.083   .     S
C113   H126    1.083   .     S
C114   H127    1.082   .     S
C114   N171    1.300   .     D
C115   C116    1.407   .     S
C115   C118    1.496   .     S
C115   C195    1.409   .     D
C116   C117    1.397   .     D
C116   H128    1.083   .     S
C117   H129    1.078   .     S
C117   C193    1.409   .     S
C118   N147    1.379   .     S
C118   O146    1.220   .     D
N119   C166    1.300   .     D
N119   N147    1.410   .     S
O120   C144    1.220   .     D
N121   H130    1.040   .     S
N121   C144    1.379   .     S
N121   N145    1.410   .     S
C131   C132    1.404   .     S
C131   H148    1.077   .     S
C131   C79     1.388   1_455 D
C132   C215    1.421   .     D
C133   C134    1.497   .     S
C133   C212    1.393   .     D
C134   C135    1.407   .     D
C134   C139    1.410   .     S
C135   C136    1.397   .     S
C135   H149    1.078   .     S
C136   C137    1.401   .     D
C136   H150    1.083   .     S
C137   C138    1.404   .     S
C137   C140    1.475   .     S
C138   C139    1.397   .     D
C138   H151    1.083   .     S
C139   H152    1.083   .     S
C140   H153    1.082   .     S
C140   N197    1.300   .     D
C141   C142    1.407   .     D
C141   C144    1.496   .     S
C141   C169    1.409   .     S
C142   C143    1.397   .     S
C142   H154    1.083   .     S
C143   H155    1.078   .     S
C143   C167    1.409   .     D
N145   C192    1.300   .     D
N147   H156    1.040   .     S
C157   C158    1.404   .     S
C157   H174    1.077   .     S
C158   C209    1.421   .     D
C159   C160    1.497   .     S
C159   C214    1.393   .     D
C160   C161    1.407   .     D
C160   C165    1.410   .     S
C161   C162    1.397   .     S
C161   H175    1.078   .     S
C162   C163    1.401   .     D
C162   H176    1.083   .     S
C163   C164    1.404   .     S
C163   C166    1.475   .     S
C164   C165    1.397   .     D
C164   H177    1.083   .     S
C165   H178    1.083   .     S
C166   H179    1.082   .     S
C167   C168    1.407   .     S
C167   C170    1.496   .     S
C168   C169    1.397   .     D
C168   H180    1.083   .     S
C169   H181    1.078   .     S
C170   N199    1.379   .     S
C170   O198    1.220   .     D
N171   N199    1.410   .     S
O172   C196    1.220   .     D
N173   H182    1.040   .     S
N173   C196    1.379   .     S
N173   N197    1.410   .     S
C183   C184    1.404   .     D
C183   H200    1.077   .     S
C183   C27     1.388   1_655 S
C184   C211    1.421   1_565 S
C185   C186    1.497   .     S
C185   C216    1.393   1_565 D
C186   C187    1.407   .     D
C186   C191    1.410   .     S
C187   C188    1.397   .     S
C187   H201    1.078   .     S
C188   C189    1.401   .     D
C188   H202    1.083   .     S
C189   C190    1.404   .     S
C189   C192    1.475   .     S
C190   C191    1.397   .     D
C190   H203    1.083   .     S
C191   H204    1.083   .     S
C192   H205    1.082   .     S
C193   C194    1.407   .     D
C193   C196    1.496   .     S
C194   C195    1.397   .     S
C194   H206    1.083   .     S
C195   H207    1.078   .     S
N199   H208    1.040   .     S
C209   C213    1.426   .     S
C211   C184    1.421   1_545 S
C211   C215    1.426   1_655 S
C212   C29     1.393   1_545 D
C215   C28     1.421   1_545 S
C215   C211    1.426   1_455 S
C216   C185    1.393   1_545 D
