data_1134
_audit_creation_date              2023-09-08
_audit_creation_method            'Materials Studio'
_symmetry_space_group_name_H-M    'P1'
_symmetry_Int_Tables_number       1
_symmetry_cell_setting            triclinic
loop_
_symmetry_equiv_pos_as_xyz
  x,y,z
_cell_length_a                    29.7800
_cell_length_b                    29.7800
_cell_length_c                    3.4500
_cell_angle_alpha                 90.0000
_cell_angle_beta                  90.0000
_cell_angle_gamma                 120.0000
loop_
_atom_site_label
_atom_site_type_symbol
_atom_site_fract_x
_atom_site_fract_y
_atom_site_fract_z
_atom_site_U_iso_or_equiv
_atom_site_adp_type
_atom_site_occupancy
C1     C     0.05853   0.49902   0.00000   0.00000  Uiso   1.00
C2     C     0.85175   0.48652   0.00000   0.00000  Uiso   1.00
C3     C     0.79798   0.45393   0.00000   0.00000  Uiso   1.00
C4     C     0.77617   0.39975   0.00000   0.00000  Uiso   1.00
C5     C     0.80943   0.37896   0.00000   0.00000  Uiso   1.00
C6     C     0.86321   0.41158   0.00000   0.00000  Uiso   1.00
C7     C     0.71914   0.36516   0.00000   0.00000  Uiso   1.00
C8     C     0.53430   0.41912   0.00000   0.00000  Uiso   1.00
N9     N     0.02684   0.51689   0.00000   0.00000  Uiso   1.00
N10    N     0.68716   0.38540   0.00000   0.00000  Uiso   1.00
C11    C     0.50098   0.55951   0.00000   0.00000  Uiso   1.00
C12    C     0.51348   0.36524   0.00000   0.00000  Uiso   1.00
C13    C     0.54607   0.34404   0.00000   0.00000  Uiso   1.00
C14    C     0.60025   0.37642   0.00000   0.00000  Uiso   1.00
C15    C     0.62104   0.43047   0.00000   0.00000  Uiso   1.00
C16    C     0.58842   0.45163   0.00000   0.00000  Uiso   1.00
C17    C     0.63484   0.35398   0.00000   0.00000  Uiso   1.00
C18    C     0.58088   0.11518   0.00000   0.00000  Uiso   1.00
N19    N     0.48311   0.50995   0.00000   0.00000  Uiso   1.00
N20    N     0.61460   0.30175   0.00000   0.00000  Uiso   1.00
C21    C     0.44049   0.94147   0.00000   0.00000  Uiso   1.00
C22    C     0.63476   0.14825   0.00000   0.00000  Uiso   1.00
C23    C     0.65596   0.20202   0.00000   0.00000  Uiso   1.00
C24    C     0.62358   0.22383   0.00000   0.00000  Uiso   1.00
C25    C     0.56953   0.19057   0.00000   0.00000  Uiso   1.00
C26    C     0.54837   0.13679   0.00000   0.00000  Uiso   1.00
C27    C     0.64602   0.28086   0.00000   0.00000  Uiso   1.00
C28    C     0.88482   0.46570   0.00000   0.00000  Uiso   1.00
N29    N     0.49005   0.97316   0.00000   0.00000  Uiso   1.00
N30    N     0.69825   0.31284   0.00000   0.00000  Uiso   1.00
C31    C     0.94147   0.50098   0.00000   0.00000  Uiso   1.00
C32    C     0.14825   0.51348   0.00000   0.00000  Uiso   1.00
C33    C     0.20202   0.54607   0.00000   0.00000  Uiso   1.00
C34    C     0.22383   0.60025   0.00000   0.00000  Uiso   1.00
C35    C     0.19057   0.62104   0.00000   0.00000  Uiso   1.00
C36    C     0.13679   0.58842   0.00000   0.00000  Uiso   1.00
C37    C     0.28086   0.63484   0.00000   0.00000  Uiso   1.00
C38    C     0.46570   0.58088   0.00000   0.00000  Uiso   1.00
N39    N     0.97316   0.48311   0.00000   0.00000  Uiso   1.00
N40    N     0.31284   0.61460   0.00000   0.00000  Uiso   1.00
C41    C     0.49902   0.44049   0.00000   0.00000  Uiso   1.00
C42    C     0.48652   0.63476   0.00000   0.00000  Uiso   1.00
C43    C     0.45393   0.65596   0.00000   0.00000  Uiso   1.00
C44    C     0.39975   0.62358   0.00000   0.00000  Uiso   1.00
C45    C     0.37896   0.56953   0.00000   0.00000  Uiso   1.00
C46    C     0.41158   0.54837   0.00000   0.00000  Uiso   1.00
C47    C     0.36516   0.64602   0.00000   0.00000  Uiso   1.00
C48    C     0.41912   0.88482   0.00000   0.00000  Uiso   1.00
N49    N     0.51689   0.49005   0.00000   0.00000  Uiso   1.00
N50    N     0.38540   0.69825   0.00000   0.00000  Uiso   1.00
C51    C     0.55951   0.05853   0.00000   0.00000  Uiso   1.00
C52    C     0.36524   0.85175   0.00000   0.00000  Uiso   1.00
C53    C     0.34404   0.79798   0.00000   0.00000  Uiso   1.00
C54    C     0.37642   0.77617   0.00000   0.00000  Uiso   1.00
C55    C     0.43047   0.80943   0.00000   0.00000  Uiso   1.00
C56    C     0.45163   0.86321   0.00000   0.00000  Uiso   1.00
C57    C     0.35398   0.71914   0.00000   0.00000  Uiso   1.00
C58    C     0.11518   0.53430   0.00000   0.00000  Uiso   1.00
N59    N     0.50995   0.02684   0.00000   0.00000  Uiso   1.00
N60    N     0.30175   0.68716   0.00000   0.00000  Uiso   1.00
H61    H     0.04279   0.45538   0.00000   0.00000  Uiso   1.00
H62    H     0.86904   0.53039   0.00000   0.00000  Uiso   1.00
H63    H     0.77139   0.47122   0.00000   0.00000  Uiso   1.00
H64    H     0.79258   0.33515   0.00000   0.00000  Uiso   1.00
H65    H     0.88982   0.39433   0.00000   0.00000  Uiso   1.00
H66    H     0.54462   0.58741   0.00000   0.00000  Uiso   1.00
H67    H     0.46961   0.33865   0.00000   0.00000  Uiso   1.00
H68    H     0.52878   0.30017   0.00000   0.00000  Uiso   1.00
H69    H     0.66485   0.45744   0.00000   0.00000  Uiso   1.00
H70    H     0.60567   0.49550   0.00000   0.00000  Uiso   1.00
H71    H     0.41259   0.95721   0.00000   0.00000  Uiso   1.00
H72    H     0.66135   0.13096   0.00000   0.00000  Uiso   1.00
H73    H     0.69983   0.22861   0.00000   0.00000  Uiso   1.00
H74    H     0.54256   0.20742   0.00000   0.00000  Uiso   1.00
H75    H     0.50450   0.11018   0.00000   0.00000  Uiso   1.00
H76    H     0.95721   0.54462   0.00000   0.00000  Uiso   1.00
H77    H     0.13096   0.46961   0.00000   0.00000  Uiso   1.00
H78    H     0.22861   0.52878   0.00000   0.00000  Uiso   1.00
H79    H     0.20742   0.66485   0.00000   0.00000  Uiso   1.00
H80    H     0.11018   0.60567   0.00000   0.00000  Uiso   1.00
H81    H     0.45538   0.41259   0.00000   0.00000  Uiso   1.00
H82    H     0.53039   0.66135   0.00000   0.00000  Uiso   1.00
H83    H     0.47122   0.69983   0.00000   0.00000  Uiso   1.00
H84    H     0.33515   0.54256   0.00000   0.00000  Uiso   1.00
H85    H     0.39433   0.50450   0.00000   0.00000  Uiso   1.00
H86    H     0.58741   0.04279   0.00000   0.00000  Uiso   1.00
H87    H     0.33865   0.86904   0.00000   0.00000  Uiso   1.00
H88    H     0.30017   0.77139   0.00000   0.00000  Uiso   1.00
H89    H     0.45744   0.79258   0.00000   0.00000  Uiso   1.00
H90    H     0.49550   0.88982   0.00000   0.00000  Uiso   1.00
loop_
_geom_bond_atom_site_label_1
_geom_bond_atom_site_label_2
_geom_bond_distance
_geom_bond_site_symmetry_2
_ccdc_geom_bond_type
C1     N9      1.295   .     D
C1     C58     1.476   .     S
C1     H61     1.140   .     S
C2     C3      1.397   .     S
C2     C28     1.402   .     D
C2     H62     1.140   .     S
C3     C4      1.406   .     D
C3     H63     1.140   .     S
C4     C5      1.406   .     S
C4     C7      1.482   .     S
C5     C6      1.397   .     D
C5     H64     1.140   .     S
C6     C28     1.405   .     S
C6     H65     1.140   .     S
C7     N10     1.358   .     S
C7     N30     1.358   .     D
C8     C41     1.476   .     S
C8     C12     1.401   .     D
C8     C16     1.405   .     S
N9     N39     1.400   1_455 S
N10    C17     1.358   .     D
C11    N19     1.295   .     D
C11    C38     1.476   .     S
C11    H66     1.140   .     S
C12    C13     1.398   .     S
C12    H67     1.140   .     S
C13    C14     1.406   .     D
C13    H68     1.140   .     S
C14    C15     1.406   .     S
C14    C17     1.482   .     S
C15    C16     1.397   .     D
C15    H69     1.140   .     S
C16    H70     1.140   .     S
C17    N20     1.358   .     S
C18    C51     1.476   .     S
C18    C22     1.402   .     D
C18    C26     1.405   .     S
N19    N49     1.400   .     S
N20    C27     1.358   .     D
C21    N29     1.295   .     D
C21    C48     1.476   .     S
C21    H71     1.140   .     S
C22    C23     1.397   .     S
C22    H72     1.140   .     S
C23    C24     1.406   .     D
C23    H73     1.140   .     S
C24    C25     1.406   .     S
C24    C27     1.482   .     S
C25    C26     1.397   .     D
C25    H74     1.140   .     S
C26    H75     1.140   .     S
C27    N30     1.358   .     S
C28    C31     1.476   .     S
N29    N59     1.400   1_565 S
C31    N39     1.295   .     D
C31    H76     1.140   .     S
C32    C33     1.397   .     S
C32    C58     1.402   .     D
C32    H77     1.140   .     S
C33    C34     1.406   .     D
C33    H78     1.140   .     S
C34    C35     1.406   .     S
C34    C37     1.482   .     S
C35    C36     1.397   .     D
C35    H79     1.140   .     S
C36    C58     1.405   .     S
C36    H80     1.140   .     S
C37    N40     1.358   .     S
C37    N60     1.358   .     D
C38    C42     1.401   .     D
C38    C46     1.405   .     S
N39    N9      1.400   1_655 S
N40    C47     1.358   .     D
C41    N49     1.295   .     D
C41    H81     1.140   .     S
C42    C43     1.398   .     S
C42    H82     1.140   .     S
C43    C44     1.406   .     D
C43    H83     1.140   .     S
C44    C45     1.406   .     S
C44    C47     1.482   .     S
C45    C46     1.397   .     D
C45    H84     1.140   .     S
C46    H85     1.140   .     S
C47    N50     1.358   .     S
C48    C52     1.402   .     S
C48    C56     1.405   .     D
N50    C57     1.358   .     D
C51    N59     1.295   .     D
C51    H86     1.140   .     S
C52    C53     1.397   .     D
C52    H87     1.140   .     S
C53    C54     1.406   .     S
C53    H88     1.140   .     S
C54    C55     1.406   .     D
C54    C57     1.482   .     S
C55    C56     1.397   .     S
C55    H89     1.140   .     S
C56    H90     1.140   .     S
C57    N60     1.358   .     S
N59    N29     1.400   1_545 S
