data_1135
_audit_creation_date              2023-09-08
_audit_creation_method            'Materials Studio'
_symmetry_space_group_name_H-M    'P1'
_symmetry_Int_Tables_number       1
_symmetry_cell_setting            triclinic
loop_
_symmetry_equiv_pos_as_xyz
  x,y,z
_cell_length_a                    32.9300
_cell_length_b                    32.9300
_cell_length_c                    3.8700
_cell_angle_alpha                 90.0000
_cell_angle_beta                  90.0000
_cell_angle_gamma                 120.0000
loop_
_atom_site_label
_atom_site_type_symbol
_atom_site_fract_x
_atom_site_fract_y
_atom_site_fract_z
_atom_site_U_iso_or_equiv
_atom_site_adp_type
_atom_site_occupancy
C1     C     1.66782   0.29274   0.07303   0.00000  Uiso   1.00
C2     C     1.70071   0.37262  -0.11785   0.00000  Uiso   1.00
C3     C     1.62134   0.33057   0.14245   0.00000  Uiso   1.00
C4     C     1.63270   0.20635   0.11045   0.00000  Uiso   1.00
C5     C     1.57232   0.36800   0.22470   0.00000  Uiso   1.00
C6     C     1.78673   0.42334  -0.27714   0.00000  Uiso   1.00
C7     C     1.60927   0.41326   0.34797   0.00000  Uiso   1.00
C8     C     1.60187   0.45215   0.33872   0.00000  Uiso   1.00
C9     C     1.55723   0.44644   0.21340   0.00000  Uiso   1.00
C10    C     1.51993   0.40103   0.09861   0.00000  Uiso   1.00
C11    C     1.52743   0.36221   0.10770   0.00000  Uiso   1.00
C12    C     1.58655   0.19399  -0.04054   0.00000  Uiso   1.00
C13    C     1.54778   0.14662  -0.03502   0.00000  Uiso   1.00
C14    C     1.55492   0.11033   0.10122   0.00000  Uiso   1.00
C15    C     1.60137   0.12217   0.23627   0.00000  Uiso   1.00
C16    C     1.63966   0.16976   0.24188   0.00000  Uiso   1.00
C17    C     1.79839   0.38958  -0.40951   0.00000  Uiso   1.00
C18    C     1.84695   0.39946  -0.40338   0.00000  Uiso   1.00
C19    C     1.88495   0.44387  -0.28071   0.00000  Uiso   1.00
C20    C     1.87372   0.47860  -0.16933   0.00000  Uiso   1.00
C21    C     1.82502   0.46831  -0.16897   0.00000  Uiso   1.00
C22    C     1.51377   0.06050   0.09703   0.00000  Uiso   1.00
C23    C     1.54999   0.48788   0.21137   0.00000  Uiso   1.00
C24    C     1.49012  -0.05726   0.06703   0.00000  Uiso   1.00
C25    C     1.93564   0.45286  -0.26254   0.00000  Uiso   1.00
C26    C     2.05822   0.54653  -0.19854   0.00000  Uiso   1.00
C27    C     1.46275   0.51961  -0.03618   0.00000  Uiso   1.00
C28    C     1.45427   0.56025  -0.02412   0.00000  Uiso   1.00
C29    C     1.48875   0.60420   0.13166   0.00000  Uiso   1.00
C30    C     1.47888   0.64146   0.15202   0.00000  Uiso   1.00
C31    C     1.43472   0.63593   0.01819   0.00000  Uiso   1.00
C32    C     1.40170   0.59281  -0.16047   0.00000  Uiso   1.00
C33    C     1.41091   0.55506  -0.17207   0.00000  Uiso   1.00
C34    C     1.38125   0.67094   0.05763   0.00000  Uiso   1.00
C35    C     1.33452   0.70911   0.07340   0.00000  Uiso   1.00
C36    C     1.29457   0.62509   0.02755   0.00000  Uiso   1.00
C37    C     1.20506   0.57374  -0.05870   0.00000  Uiso   1.00
C38    C     1.37132   0.79688   0.07667   0.00000  Uiso   1.00
C39    C     1.41697   0.80962  -0.08541   0.00000  Uiso   1.00
C40    C     1.45570   0.85704  -0.07918   0.00000  Uiso   1.00
C41    C     1.44888   0.89309   0.06679   0.00000  Uiso   1.00
C42    C     1.40265   0.88098   0.20786   0.00000  Uiso   1.00
C43    C     1.36452   0.83336   0.21356   0.00000  Uiso   1.00
C44    C     1.19625   0.60740  -0.23331   0.00000  Uiso   1.00
C45    C     1.14829   0.59866  -0.27080   0.00000  Uiso   1.00
C46    C     1.10810   0.55520  -0.15536   0.00000  Uiso   1.00
C47    C     1.16460   0.52990   0.04691   0.00000  Uiso   1.00
N48    N     1.62643   0.29187   0.18774   0.00000  Uiso   1.00
N49    N     1.70524   0.33361   0.06851   0.00000  Uiso   1.00
N50    N     1.65830   0.37050  -0.01764   0.00000  Uiso   1.00
N51    N     1.52171   0.02519   0.11403   0.00000  Uiso   1.00
N52    N     1.48242  -0.02205   0.11012   0.00000  Uiso   1.00
N53    N     1.97272   0.49569  -0.22075   0.00000  Uiso   1.00
N54    N     2.02050   0.50363  -0.18910   0.00000  Uiso   1.00
N55    N     1.50975   0.48411   0.08816   0.00000  Uiso   1.00
N56    N     1.50271   0.52331   0.09284   0.00000  Uiso   1.00
N57    N     1.37861   0.71122   0.08229   0.00000  Uiso   1.00
N58    N     1.29272   0.66585   0.05296   0.00000  Uiso   1.00
N59    N     1.33892   0.62796   0.03779   0.00000  Uiso   1.00
O60    O     1.57673   0.32711   0.24514   0.00000  Uiso   1.00
O61    O     1.67394   0.25304   0.10895   0.00000  Uiso   1.00
O62    O     1.73855   0.41536  -0.26977   0.00000  Uiso   1.00
O63    O     1.42811   0.67559   0.05253   0.00000  Uiso   1.00
O64    O     1.33018   0.75011   0.08721   0.00000  Uiso   1.00
C65    C     1.11658   0.52049   0.00000   0.00000  Uiso   1.00
O66    O     1.25211   0.57962   0.00000   0.00000  Uiso   1.00
H67    H     1.64347   0.41704   0.44984   0.00000  Uiso   1.00
H68    H     1.63067   0.48809   0.42892   0.00000  Uiso   1.00
H69    H     1.48536   0.39702   0.00329   0.00000  Uiso   1.00
H70    H     1.49810   0.32624   0.02282   0.00000  Uiso   1.00
H71    H     1.58113   0.22231  -0.16485   0.00000  Uiso   1.00
H72    H     1.51209   0.13854  -0.13830   0.00000  Uiso   1.00
H73    H     1.60762   0.09333   0.33950   0.00000  Uiso   1.00
H74    H     1.67530   0.17838   0.34992   0.00000  Uiso   1.00
H75    H     1.76973   0.35491  -0.51997   0.00000  Uiso   1.00
H76    H     1.85566   0.37186  -0.49669   0.00000  Uiso   1.00
H77    H     1.90278   0.51448  -0.08037   0.00000  Uiso   1.00
H78    H     1.81773   0.49705  -0.07985   0.00000  Uiso   1.00
H79    H     1.47642   0.05399   0.07928   0.00000  Uiso   1.00
H80    H     1.57855   0.52314   0.31438   0.00000  Uiso   1.00
H81    H     1.52745  -0.05023   0.03050   0.00000  Uiso   1.00
H82    H     1.94252   0.42230  -0.28507   0.00000  Uiso   1.00
H83    H     2.05389   0.57844  -0.24008   0.00000  Uiso   1.00
H84    H     1.43537   0.48493  -0.15520   0.00000  Uiso   1.00
H85    H     1.52304   0.60836   0.23507   0.00000  Uiso   1.00
H86    H     1.50546   0.67629   0.27371   0.00000  Uiso   1.00
H87    H     1.36911   0.58983  -0.28798   0.00000  Uiso   1.00
H88    H     1.38451   0.52041  -0.29700   0.00000  Uiso   1.00
H89    H     1.42200   0.78158  -0.21885   0.00000  Uiso   1.00
H90    H     1.49115   0.86538  -0.18958   0.00000  Uiso   1.00
H91    H     1.39649   0.90967   0.31575   0.00000  Uiso   1.00
H92    H     1.32919   0.82493   0.32671   0.00000  Uiso   1.00
H93    H     1.22673   0.64098  -0.34270   0.00000  Uiso   1.00
H94    H     1.14178   0.62637  -0.39337   0.00000  Uiso   1.00
H95    H     1.16963   0.50134   0.17132   0.00000  Uiso   1.00
H96    H     1.08584   0.48550   0.08705   0.00000  Uiso   1.00
loop_
_geom_bond_atom_site_label_1
_geom_bond_atom_site_label_2
_geom_bond_distance
_geom_bond_site_symmetry_2
_ccdc_geom_bond_type
C1     N48     1.420   .     S
C1     N49     1.293   .     D
C1     O61     1.426   .     S
C2     N49     1.544   .     S
C2     N50     1.417   .     D
C2     O62     1.458   .     S
C3     N48     1.377   .     D
C3     N50     1.412   .     S
C3     O60     1.470   .     S
C4     C12     1.483   .     D
C4     C16     1.428   .     S
C4     O61     1.456   .     S
C5     C7      1.455   .     D
C5     C11     1.464   .     S
C5     O60     1.427   .     S
C6     C17     1.440   .     D
C6     C21     1.446   .     S
C6     O62     1.473   .     S
C7     C8      1.419   .     S
C7     H67     1.140   .     S
C8     C9      1.468   .     D
C8     H68     1.140   .     S
C9     C10     1.451   .     S
C9     C23     1.498   .     S
C10    C11     1.418   .     D
C10    H69     1.140   .     S
C11    H70     1.140   .     S
C12    C13     1.440   .     S
C12    H71     1.140   .     S
C13    C14     1.429   .     D
C13    H72     1.140   .     S
C14    C15     1.473   .     S
C14    C22     1.518   .     S
C15    C16     1.439   .     D
C15    H73     1.140   .     S
C16    H74     1.140   .     S
C17    C18     1.464   .     S
C17    H75     1.140   .     S
C18    C19     1.449   .     D
C18    H76     1.140   .     S
C19    C20     1.433   .     S
C19    C25     1.544   .     S
C20    C21     1.464   .     D
C20    H77     1.140   .     S
C21    H78     1.140   .     S
C22    N51     1.315   .     D
C22    H79     1.140   .     S
C23    N55     1.354   .     D
C23    H80     1.140   .     S
C24    N52     1.315   .     D
C24    H81     1.140   .     S
C24    C41     1.516   1_545 S
C25    N53     1.336   .     D
C25    H82     1.140   .     S
C26    N54     1.336   .     D
C26    H83     1.140   .     S
C26    C46     1.529   1_655 S
C27    C28     1.498   .     S
C27    N56     1.355   .     D
C27    H84     1.140   .     S
C28    C29     1.451   .     D
C28    C33     1.467   .     S
C29    C30     1.420   .     S
C29    H85     1.140   .     S
C30    C31     1.467   .     D
C30    H86     1.140   .     S
C31    C32     1.460   .     S
C31    O63     1.434   .     S
C32    C33     1.420   .     D
C32    H87     1.140   .     S
C33    H88     1.140   .     S
C34    N57     1.375   .     D
C34    N59     1.407   .     S
C34    O63     1.473   .     S
C35    N57     1.419   .     S
C35    N58     1.403   .     D
C35    O64     1.428   .     S
C36    N58     1.377   .     S
C36    N59     1.416   .     D
C36    O66     1.454   .     S
C37    C44     1.446   .     D
C37    C47     1.450   .     S
C37    O66     1.480   .     S
C38    C39     1.483   .     D
C38    C43     1.429   .     S
C38    O64     1.457   .     S
C39    C40     1.440   .     S
C39    H89     1.140   .     S
C40    C41     1.430   .     D
C40    H90     1.140   .     S
C41    C42     1.472   .     S
C41    C24     1.516   1_565 S
C42    C43     1.438   .     D
C42    H91     1.140   .     S
C43    H92     1.140   .     S
C44    C45     1.464   .     S
C44    H93     1.140   .     S
C45    C46     1.451   .     D
C45    H94     1.140   .     S
C46    C65     1.437   .     S
C46    C26     1.529   1_455 S
C47    C65     1.463   .     D
C47    H95     1.140   .     S
N51    N52     1.443   .     S
N53    N54     1.465   .     S
N55    N56     1.421   .     S
C65    H96     1.140   .     S
