data_1136
_audit_creation_date              2023-09-08
_audit_creation_method            'Materials Studio'
_symmetry_space_group_name_H-M    'P1'
_symmetry_Int_Tables_number       1
_symmetry_cell_setting            triclinic
loop_
_symmetry_equiv_pos_as_xyz
  x,y,z
_cell_length_a                    30.2866
_cell_length_b                    30.5078
_cell_length_c                    4.0100
_cell_angle_alpha                 90.0000
_cell_angle_beta                  90.0000
_cell_angle_gamma                 90.0000
loop_
_atom_site_label
_atom_site_type_symbol
_atom_site_fract_x
_atom_site_fract_y
_atom_site_fract_z
_atom_site_U_iso_or_equiv
_atom_site_adp_type
_atom_site_occupancy
C11    C     0.22284   0.68650   0.02164   0.00000  Uiso   1.00
C22    C     0.26717   0.67509   0.06395   0.00000  Uiso   1.00
C33    C     0.29921   0.70937   0.03637   0.00000  Uiso   1.00
C44    C     0.28600   0.75364   0.01718   0.00000  Uiso   1.00
C55    C     0.24059   0.76364  -0.00054   0.00000  Uiso   1.00
C66    C     0.20834   0.72953  -0.02499   0.00000  Uiso   1.00
C77    C     0.34476   0.70004   0.01772   0.00000  Uiso   1.00
C88    C     0.31746   0.78713   0.01587   0.00000  Uiso   1.00
C99    C     0.36280   0.77720  -0.01150   0.00000  Uiso   1.00
C1010  C     0.37540   0.73272   0.00156   0.00000  Uiso   1.00
C1111  C     0.39490   0.81141  -0.04089   0.00000  Uiso   1.00
C1212  C     0.38044   0.85439   0.00970   0.00000  Uiso   1.00
C1313  C     0.33640   0.86557   0.06815   0.00000  Uiso   1.00
C1414  C     0.30431   0.83136   0.04240   0.00000  Uiso   1.00
C1515  C     0.25870   0.84073   0.03205   0.00000  Uiso   1.00
C1616  C     0.22801   0.80810   0.01717   0.00000  Uiso   1.00
C1717  C     0.44051   0.80408  -0.11041   0.00000  Uiso   1.00
C1818  C     0.47431   0.83078   0.03594   0.00000  Uiso   1.00
C1919  C     0.45563   0.77067  -0.33382   0.00000  Uiso   1.00
C2020  C     0.51824   0.82371  -0.02947   0.00000  Uiso   1.00
C2121  C     0.49982   0.76334   0.61281   0.00000  Uiso   1.00
C2222  C     0.53259   0.78952   0.76117   0.00000  Uiso   1.00
C2323  C     0.32598   0.90995   0.15012   0.00000  Uiso   1.00
C2424  C     0.29174   0.92148   0.38010   0.00000  Uiso   1.00
C2525  C     0.35049   0.94596   1.01442   0.00000  Uiso   1.00
C2626  C     0.28203   0.96440   0.45272   0.00000  Uiso   1.00
C2727  C     0.34088   0.98861   1.09712   0.00000  Uiso   1.00
C2828  C     0.30626   0.99940   0.31643   0.00000  Uiso   1.00
C2929  C     0.16269   0.73699  -0.09173   0.00000  Uiso   1.00
C3030  C     0.14751   0.77017   0.68296   0.00000  Uiso   1.00
C3131  C     0.12897   0.71031   0.05571   0.00000  Uiso   1.00
C3232  C     0.10333   0.77690   0.62520   0.00000  Uiso   1.00
C3333  C     0.08504   0.71704  -0.01185   0.00000  Uiso   1.00
C3434  C     0.07061   0.75064  -0.22639   0.00000  Uiso   1.00
C3535  C     0.27788   0.63031   0.12652   0.00000  Uiso   1.00
C3636  C     0.31258   0.61718   0.34784   0.00000  Uiso   1.00
C3737  C     0.25313   0.59533   0.97799   0.00000  Uiso   1.00
C3838  C     0.32258   0.57379   0.39939   0.00000  Uiso   1.00
C3939  C     0.26290   0.55217   1.04136   0.00000  Uiso   1.00
C4040  C     0.29813   0.53985   0.25031   0.00000  Uiso   1.00
C4141  C     0.57878   0.78058   0.69380   0.00000  Uiso   1.00
C4242  C     0.30973   0.49456   0.31686   0.00000  Uiso   1.00
N4343  N     0.60853   0.80835  -0.20946   0.00000  Uiso   1.00
N4444  N     0.28344   0.46355   0.21992   0.00000  Uiso   1.00
C4545  C     0.65419   0.80120  -0.23223   0.00000  Uiso   1.00
C4646  C     0.67387   0.76271   0.89016   0.00000  Uiso   1.00
C4747  C     0.68196   0.83310  -0.37290   0.00000  Uiso   1.00
C4848  C     0.71914   0.75665   0.87411   0.00000  Uiso   1.00
C4949  C     0.72717   0.82667  -0.39204   0.00000  Uiso   1.00
C5050  C     0.74705   0.78846  -0.26748   0.00000  Uiso   1.00
N5151  N     0.79399   0.78475  -0.28973   0.00000  Uiso   1.00
N5252  N     0.81073   0.75047  -0.16720   0.00000  Uiso   1.00
C5353  C     0.85779   0.74734  -0.17682   0.00000  Uiso   1.00
C5454  C     0.87756   0.71154   0.96079   0.00000  Uiso   1.00
C5555  C     0.88363   0.77903  -0.31783   0.00000  Uiso   1.00
C5656  C     0.92230   0.70748   0.95916   0.00000  Uiso   1.00
C5757  C     0.92841   0.77495  -0.32077   0.00000  Uiso   1.00
C5858  C     0.94817   0.73907   0.81861   0.00000  Uiso   1.00
C5959  C     0.29247   0.41860   0.24892   0.00000  Uiso   1.00
C6060  C     0.26045   0.38985   0.37639   0.00000  Uiso   1.00
C6161  C     0.33303   0.40059   0.14711   0.00000  Uiso   1.00
C6262  C     0.26869   0.34533   0.40311   0.00000  Uiso   1.00
C6363  C     0.34095   0.35598   1.17111   0.00000  Uiso   1.00
C6464  C     0.30911   0.32714   0.29972   0.00000  Uiso   1.00
N6565  N     0.31993   0.28160   0.31379   0.00000  Uiso   1.00
N6666  N     0.29080   0.25652   0.43277   0.00000  Uiso   1.00
C6767  C     0.29875   0.21053   0.39995   0.00000  Uiso   1.00
C6868  C     0.26871   0.18184   0.52791   0.00000  Uiso   1.00
C6969  C     0.33525   0.19435   1.24208   0.00000  Uiso   1.00
C7070  C     0.27484   0.13779   0.49914   0.00000  Uiso   1.00
C7171  C     0.34136   0.15033   1.21224   0.00000  Uiso   1.00
C7272  C     0.31128   0.12161   1.33983   0.00000  Uiso   1.00
N7373  N    -0.00549   0.73321   0.82524   0.00000  Uiso   1.00
N7474  N     0.31915   0.07618   1.29942   0.00000  Uiso   1.00
C7575  C     0.29498   0.04403   0.40780   0.00000  Uiso   1.00
C7676  C     0.02443   0.75890  -0.29968   0.00000  Uiso   1.00
H7777  H     0.19630   0.66001   0.02411   0.00000  Uiso   1.00
H7878  H     0.35662   0.66458   0.01594   0.00000  Uiso   1.00
H7979  H     0.41208   0.72434  -0.00164   0.00000  Uiso   1.00
H8080  H     0.40512   0.88260   0.00447   0.00000  Uiso   1.00
H8181  H     0.24685   0.87619   0.03608   0.00000  Uiso   1.00
H8282  H     0.19155   0.81735   0.01926   0.00000  Uiso   1.00
H8383  H     0.46498   0.85868   0.21140   0.00000  Uiso   1.00
H8484  H     0.43077   0.74936  -0.47265   0.00000  Uiso   1.00
H8585  H     0.54433   0.84586   0.08712   0.00000  Uiso   1.00
H8686  H     0.50961   0.73504   0.44246   0.00000  Uiso   1.00
H8787  H     0.27171   0.89470   0.50834   0.00000  Uiso   1.00
H8888  H     0.37856   0.93852   0.83368   0.00000  Uiso   1.00
H8989  H     0.25358   0.97251   0.62832   0.00000  Uiso   1.00
H9090  H     0.36122   1.01653   0.98721   0.00000  Uiso   1.00
H9191  H     0.17313   0.79125   0.55011   0.00000  Uiso   1.00
H9292  H     0.13836   0.68272   0.23384   0.00000  Uiso   1.00
H9393  H     0.09223   0.80445   0.45242   0.00000  Uiso   1.00
H9494  H     0.05899   0.69507   0.10717   0.00000  Uiso   1.00
H9595  H     0.33267   0.64301   0.48629   0.00000  Uiso   1.00
H9696  H     0.22474   0.60405   0.80353   0.00000  Uiso   1.00
H9797  H     0.35144   0.56441   0.56729   0.00000  Uiso   1.00
H9898  H     0.24221   0.52508   0.92338   0.00000  Uiso   1.00
H9999  H     0.58866   0.74934   0.55681   0.00000  Uiso   1.00
H100100 H     0.34174   0.48649   0.45333   0.00000  Uiso   1.00
H101101 H     0.65198   0.73624   1.00393   0.00000  Uiso   1.00
H102102 H     0.66737   0.86490  -0.47364   0.00000  Uiso   1.00
H103103 H     0.73455   0.72536   0.97701   0.00000  Uiso   1.00
H104104 H     0.74909   0.85272  -0.51094   0.00000  Uiso   1.00
H105105 H     0.85629   0.68484   1.07799   0.00000  Uiso   1.00
H106106 H     0.86775   0.80924  -0.43446   0.00000  Uiso   1.00
H107107 H     0.93851   0.67746   1.07606   0.00000  Uiso   1.00
H108108 H     0.94963   0.80154  -0.43992   0.00000  Uiso   1.00
H109109 H     0.22702   0.40304   0.45994   0.00000  Uiso   1.00
H110110 H     0.35999   0.42279   0.04295   0.00000  Uiso   1.00
H111111 H     0.24244   0.32260   0.51076   0.00000  Uiso   1.00
H112112 H     0.37394   0.34194   1.08539   0.00000  Uiso   1.00
H113113 H     0.23804   0.19465   0.66082   0.00000  Uiso   1.00
H114114 H     0.36069   0.21802   1.13495   0.00000  Uiso   1.00
H115115 H     0.24951   0.11415   0.60822   0.00000  Uiso   1.00
H116116 H     0.37187   0.13713   1.07950   0.00000  Uiso   1.00
H117117 H     0.26512   0.05065   0.57340   0.00000  Uiso   1.00
H118118 H     0.01473   0.78769  -0.46539   0.00000  Uiso   1.00
loop_
_geom_bond_atom_site_label_1
_geom_bond_atom_site_label_2
_geom_bond_distance
_geom_bond_site_symmetry_2
_ccdc_geom_bond_type
C11    C22     1.397   .     S
C11    C66     1.397   .     D
C11    H7777   1.140   .     S
C22    C33     1.431   .     D
C22    C3535   1.426   .     S
C33    C44     1.411   .     S
C33    C77     1.411   .     S
C44    C55     1.411   .     S
C44    C88     1.397   .     D
C55    C66     1.431   .     S
C55    C1616   1.411   .     D
C66    C2929   1.427   .     S
C77    C1010   1.364   .     D
C77    H7878   1.140   .     S
C88    C99     1.410   .     S
C88    C1414   1.411   .     S
C99    C1010   1.411   .     S
C99    C1111   1.431   .     D
C1010  H7979   1.140   .     S
C1111  C1212   1.397   .     S
C1111  C1717   1.427   .     S
C1212  C1313   1.397   .     D
C1212  H8080   1.140   .     S
C1313  C1414   1.430   .     S
C1313  C2323   1.429   .     S
C1414  C1515   1.411   .     D
C1515  C1616   1.363   .     S
C1515  H8181   1.140   .     S
C1616  H8282   1.140   .     S
C1717  C1818   1.434   .     D
C1717  C1919   1.432   .     S
C1818  C2020   1.373   .     S
C1818  H8383   1.140   .     S
C1919  H8484   1.140   .     S
C1919  C2121   1.374   1_554 D
C2020  H8585   1.140   .     S
C2020  C2222   1.408   1_554 D
C2121  C2222   1.406   .     S
C2121  H8686   1.140   .     S
C2121  C1919   1.374   1_556 D
C2222  C4141   1.451   .     S
C2222  C2020   1.408   1_556 D
C2323  C2424   1.432   .     D
C2323  C2525   1.433   1_554 S
C2424  C2626   1.373   .     S
C2424  H8787   1.140   .     S
C2525  C2727   1.374   .     D
C2525  H8888   1.140   .     S
C2525  C2323   1.433   1_556 S
C2626  C2828   1.406   .     D
C2626  H8989   1.140   .     S
C2727  H9090   1.140   .     S
C2727  C2828   1.408   1_556 S
C2828  C2727   1.408   1_554 S
C2828  C7575   1.451   1_565 S
C2929  C3131   1.434   .     D
C2929  C3030   1.433   1_554 S
C3030  C3232   1.373   .     D
C3030  H9191   1.140   .     S
C3030  C2929   1.433   1_556 S
C3131  C3333   1.373   .     S
C3131  H9292   1.140   .     S
C3232  H9393   1.140   .     S
C3232  C3434   1.406   1_556 S
C3333  C3434   1.408   .     D
C3333  H9494   1.140   .     S
C3434  C7676   1.451   .     S
C3434  C3232   1.406   1_554 S
C3535  C3636   1.433   .     S
C3535  C3737   1.434   1_554 D
C3636  C3838   1.374   .     D
C3636  H9595   1.140   .     S
C3737  C3939   1.373   .     S
C3737  H9696   1.140   .     S
C3737  C3535   1.434   1_556 D
C3838  C4040   1.406   .     S
C3838  H9797   1.140   .     S
C3939  H9898   1.140   .     S
C3939  C4040   1.408   1_556 D
C4040  C4242   1.450   .     S
C4040  C3939   1.408   1_554 D
C4141  H9999   1.140   .     S
C4141  N4343   1.296   1_556 D
C4242  N4444   1.296   .     D
C4242  H100100  1.140   .     S
N4343  C4545   1.403   .     S
N4343  C4141   1.296   1_554 D
N4444  C5959   1.403   .     S
C4545  C4747   1.405   .     D
C4545  C4646   1.405   1_554 S
C4646  C4848   1.385   .     D
C4646  H101101  1.140   .     S
C4646  C4545   1.405   1_556 S
C4747  C4949   1.385   .     S
C4747  H102102  1.140   .     S
C4848  H103103  1.140   .     S
C4848  C5050   1.407   1_556 S
C4949  C5050   1.404   .     D
C4949  H104104  1.140   .     S
C5050  N5151   1.429   .     S
C5050  C4848   1.407   1_554 S
N5151  N5252   1.262   .     D
N5252  C5353   1.429   .     S
C5353  C5555   1.366   .     S
C5353  C5454   1.362   1_554 D
C5454  C5656   1.361   .     S
C5454  H105105  1.140   .     S
C5454  C5353   1.362   1_556 D
C5555  C5757   1.362   .     D
C5555  H106106  1.140   .     S
C5656  C5858   1.364   .     D
C5656  H107107  1.140   .     S
C5757  H108108  1.140   .     S
C5757  C5858   1.367   1_554 S
C5858  C5757   1.367   1_556 S
C5858  N7373   1.415   1_655 S
C5959  C6060   1.404   .     D
C5959  C6161   1.406   .     S
C6060  C6262   1.385   .     S
C6060  H109109  1.140   .     S
C6161  H110110  1.140   .     S
C6161  C6363   1.385   1_554 D
C6262  C6464   1.407   .     D
C6262  H111111  1.140   .     S
C6363  H112112  1.140   .     S
C6363  C6161   1.385   1_556 D
C6363  C6464   1.404   1_556 S
C6464  N6565   1.429   .     S
C6464  C6363   1.404   1_554 S
N6565  N6666   1.262   .     D
N6666  C6767   1.430   .     S
C6767  C6868   1.363   .     D
C6767  C6969   1.366   1_554 S
C6868  C7070   1.362   .     S
C6868  H113113  1.140   .     S
C6969  C7171   1.361   .     D
C6969  H114114  1.140   .     S
C6969  C6767   1.366   1_556 S
C7070  H115115  1.140   .     S
C7070  C7272   1.367   1_554 D
C7171  C7272   1.364   .     S
C7171  H116116  1.140   .     S
C7272  N7474   1.416   .     S
C7272  C7070   1.367   1_556 D
N7373  C5858   1.415   1_455 S
N7373  C7676   1.299   1_556 D
N7474  C7575   1.299   1_556 D
C7575  H117117  1.140   .     S
C7575  C2828   1.451   1_545 S
C7575  N7474   1.299   1_554 D
C7676  H118118  1.140   .     S
C7676  N7373   1.299   1_554 D
