data_1137
_audit_creation_date              2023-09-08
_audit_creation_method            'Materials Studio'
_symmetry_space_group_name_H-M    'P1'
_symmetry_Int_Tables_number       1
_symmetry_cell_setting            triclinic
loop_
_symmetry_equiv_pos_as_xyz
  x,y,z
_cell_length_a                    32.2119
_cell_length_b                    32.8959
_cell_length_c                    4.0263
_cell_angle_alpha                 90.0000
_cell_angle_beta                  90.0000
_cell_angle_gamma                 90.0000
loop_
_atom_site_label
_atom_site_type_symbol
_atom_site_fract_x
_atom_site_fract_y
_atom_site_fract_z
_atom_site_U_iso_or_equiv
_atom_site_adp_type
_atom_site_occupancy
C11    C     0.23087   0.69822   0.10182   0.00000  Uiso   1.00
C22    C     0.27243   0.68786   0.15459   0.00000  Uiso   1.00
C33    C     0.30256   0.71966   0.12690   0.00000  Uiso   1.00
C44    C     0.29003   0.76057   0.09510   0.00000  Uiso   1.00
C55    C     0.24737   0.76958   0.06399   0.00000  Uiso   1.00
C66    C     0.21733   0.73776   0.03826   0.00000  Uiso   1.00
C77    C     0.34547   0.71113   0.11965   0.00000  Uiso   1.00
C88    C     0.31946   0.79175   0.09390   0.00000  Uiso   1.00
C99    C     0.36223   0.78263   0.08173   0.00000  Uiso   1.00
C1010  C     0.37422   0.74149   0.10456   0.00000  Uiso   1.00
C1111  C     0.39245   0.81438   0.05673   0.00000  Uiso   1.00
C1212  C     0.37842   0.85440   0.08847   0.00000  Uiso   1.00
C1313  C     0.33668   0.86482   0.12762   0.00000  Uiso   1.00
C1414  C     0.30680   0.83279   0.10490   0.00000  Uiso   1.00
C1515  C     0.26397   0.84127   0.08329   0.00000  Uiso   1.00
C1616  C     0.23532   0.81081   0.06968   0.00000  Uiso   1.00
C1717  C     0.43571   0.80767   0.00764   0.00000  Uiso   1.00
C1818  C     0.46612   0.83307   0.16434   0.00000  Uiso   1.00
C1919  C     0.45170   0.77708  -0.21140   0.00000  Uiso   1.00
C2020  C     0.50780   0.82797   0.10742   0.00000  Uiso   1.00
C2121  C     0.49363   0.77193   0.74236   0.00000  Uiso   1.00
C2222  C     0.52306   0.79720   0.89825   0.00000  Uiso   1.00
C2323  C     0.32639   0.90632   0.18922   0.00000  Uiso   1.00
C2424  C     0.29405   0.91837   0.41301   0.00000  Uiso   1.00
C2525  C     0.34967   0.93882   1.04246   0.00000  Uiso   1.00
C2626  C     0.28537   0.95860   0.47247   0.00000  Uiso   1.00
C2727  C     0.34107   0.97880   1.11231   0.00000  Uiso   1.00
C2828  C     0.30858   0.99015   0.32711   0.00000  Uiso   1.00
C2929  C     0.17486   0.74406  -0.05090   0.00000  Uiso   1.00
C3030  C     0.16202   0.77449   0.71661   0.00000  Uiso   1.00
C3131  C     0.14238   0.71877   0.07744   0.00000  Uiso   1.00
C3232  C     0.12103   0.77982   0.63353   0.00000  Uiso   1.00
C3333  C     0.10172   0.72397  -0.01591   0.00000  Uiso   1.00
C3434  C     0.08952   0.75469  -0.23891   0.00000  Uiso   1.00
C3535  C     0.28230   0.64643   0.22324   0.00000  Uiso   1.00
C3636  C     0.31421   0.63443   0.45088   0.00000  Uiso   1.00
C3737  C     0.25922   0.61386   1.07542   0.00000  Uiso   1.00
C3838  C     0.32283   0.59420   0.51182   0.00000  Uiso   1.00
C3939  C     0.26773   0.57392   1.14663   0.00000  Uiso   1.00
C4040  C     0.29988   0.56259   0.36457   0.00000  Uiso   1.00
C4141  C     0.56756   0.79353   0.85225   0.00000  Uiso   1.00
C4242  C     0.30951   0.52055   0.44213   0.00000  Uiso   1.00
N4343  N     0.58255   0.76360  -0.31967   0.00000  Uiso   1.00
N4444  N     0.28702   0.49196   0.31240   0.00000  Uiso   1.00
C4545  C     0.62494   0.75831  -0.39145   0.00000  Uiso   1.00
C4646  C     0.64180   0.71901   0.59072   0.00000  Uiso   1.00
C4747  C     0.65163   0.79142  -0.44839   0.00000  Uiso   1.00
C4848  C     0.68326   0.71274   0.52831   0.00000  Uiso   1.00
C4949  C     0.69310   0.78586  -0.51460   0.00000  Uiso   1.00
C5050  C     0.71097   0.74608  -0.51978   0.00000  Uiso   1.00
C5151  C     0.75520   0.74034  -0.53962   0.00000  Uiso   1.00
C5252  C     0.77535   0.70812  -0.36460   0.00000  Uiso   1.00
C5353  C     0.78140   0.76855   0.29196   0.00000  Uiso   1.00
C5454  C     0.81758   0.70565  -0.34749   0.00000  Uiso   1.00
C5555  C     0.82363   0.76562   0.30682   0.00000  Uiso   1.00
C5656  C     0.84388   0.73462  -0.50601   0.00000  Uiso   1.00
C5757  C     0.88868   0.73413  -0.46041   0.00000  Uiso   1.00
C5858  C     0.90926   0.70164   0.70619   0.00000  Uiso   1.00
C5959  C     0.91433   0.76717  -0.56205   0.00000  Uiso   1.00
C6060  C     0.95102   0.70310   0.77491   0.00000  Uiso   1.00
C6161  C     0.95616   0.76803  -0.49402   0.00000  Uiso   1.00
C6262  C     0.97574   0.73617   0.67812   0.00000  Uiso   1.00
C6363  C     0.29011   0.44955   0.34975   0.00000  Uiso   1.00
C6464  C     0.26032   0.42459   0.19790   0.00000  Uiso   1.00
C6565  C     0.32184   0.43036   0.53139   0.00000  Uiso   1.00
C6666  C     0.26188   0.38297   0.22278   0.00000  Uiso   1.00
C6767  C     0.32369   0.38873   1.55960   0.00000  Uiso   1.00
C6868  C     0.29389   0.36292   0.40431   0.00000  Uiso   1.00
C6969  C     0.29644   0.31878   0.42306   0.00000  Uiso   1.00
C7070  C     0.33089   0.29864   0.57355   0.00000  Uiso   1.00
C7171  C     0.26519   0.29328   0.28295   0.00000  Uiso   1.00
C7272  C     0.33431   0.25729   0.57710   0.00000  Uiso   1.00
C7373  C     0.26825   0.25193   0.28689   0.00000  Uiso   1.00
C7474  C     0.30330   0.23192   0.43108   0.00000  Uiso   1.00
C7575  C     0.30798   0.18856   0.41430   0.00000  Uiso   1.00
C7676  C     0.27296   0.16194   0.42590   0.00000  Uiso   1.00
C7777  C     0.34777   0.17011   1.36663   0.00000  Uiso   1.00
C7878  C     0.27760   0.12066   0.38885   0.00000  Uiso   1.00
C7979  C     0.35155   0.12881   1.32607   0.00000  Uiso   1.00
C8080  C     0.31688   0.10298   1.33752   0.00000  Uiso   1.00
N8181  N     0.01832   0.73609   0.75665   0.00000  Uiso   1.00
N8282  N     0.32237   0.06091   1.29356   0.00000  Uiso   1.00
C8383  C     0.29862   0.03211   0.40435   0.00000  Uiso   1.00
C8484  C     0.04691   0.76100  -0.34356   0.00000  Uiso   1.00
H8585  H     0.20777   0.67365   0.10220   0.00000  Uiso   1.00
H8686  H     0.35699   0.67975   0.12437   0.00000  Uiso   1.00
H8787  H     0.40708   0.73276   0.11303   0.00000  Uiso   1.00
H8888  H     0.40159   0.87892   0.08801   0.00000  Uiso   1.00
H8989  H     0.25252   0.87266   0.07428   0.00000  Uiso   1.00
H9090  H     0.20245   0.81955   0.06563   0.00000  Uiso   1.00
H9191  H     0.45617   0.85679   0.33964   0.00000  Uiso   1.00
H9292  H     0.43006   0.75782  -0.35210   0.00000  Uiso   1.00
H9393  H     0.52941   0.84831   0.23801   0.00000  Uiso   1.00
H9494  H     0.50378   0.74796   0.57010   0.00000  Uiso   1.00
H9595  H     0.27631   0.89501   0.54692   0.00000  Uiso   1.00
H9696  H     0.37459   0.93196   0.86429   0.00000  Uiso   1.00
H9797  H     0.26027   0.96571   0.64832   0.00000  Uiso   1.00
H9898  H     0.36005   1.00211   0.98877   0.00000  Uiso   1.00
H9999  H     0.18545   0.79366   0.59531   0.00000  Uiso   1.00
H100100 H     0.14957   0.69511   0.26163   0.00000  Uiso   1.00
H101101 H     0.11344   0.80368   0.45207   0.00000  Uiso   1.00
H102102 H     0.07847   0.70353   0.09422   0.00000  Uiso   1.00
H103103 H     0.33180   0.65780   0.58586   0.00000  Uiso   1.00
H104104 H     0.23466   0.62058   0.89369   0.00000  Uiso   1.00
H105105 H     0.34768   0.58715   0.69008   0.00000  Uiso   1.00
H106106 H     0.24886   0.55064   1.02159   0.00000  Uiso   1.00
H107107 H     0.58720   0.81687   0.96931   0.00000  Uiso   1.00
H108108 H     0.33562   0.51476   0.61209   0.00000  Uiso   1.00
H109109 H     0.62161   0.69256   0.63210   0.00000  Uiso   1.00
H110110 H     0.63944   0.82260  -0.44079   0.00000  Uiso   1.00
H111111 H     0.69529   0.68147   0.52479   0.00000  Uiso   1.00
H112112 H     0.71307   0.81270  -0.54514   0.00000  Uiso   1.00
H113113 H     0.75668   0.68626  -0.22146   0.00000  Uiso   1.00
H114114 H     0.76744   0.79349   0.14817   0.00000  Uiso   1.00
H115115 H     0.83065   0.68137  -0.19208   0.00000  Uiso   1.00
H116116 H     0.84169   0.78857   0.17122   0.00000  Uiso   1.00
H117117 H     0.89207   0.67487   0.79304   0.00000  Uiso   1.00
H118118 H     0.90111   0.79356  -0.69139   0.00000  Uiso   1.00
H119119 H     0.96517   0.67765   0.91101   0.00000  Uiso   1.00
H120120 H     0.97408   0.79455  -0.57701   0.00000  Uiso   1.00
H121121 H     0.23518   0.43846   0.05160   0.00000  Uiso   1.00
H122122 H     0.34579   0.44847   0.65729   0.00000  Uiso   1.00
H123123 H     0.23784   0.36576   0.09003   0.00000  Uiso   1.00
H124124 H     0.34914   0.37608   1.70903   0.00000  Uiso   1.00
H125125 H     0.35621   0.31602   0.68894   0.00000  Uiso   1.00
H126126 H     0.23770   0.30627   0.16084   0.00000  Uiso   1.00
H127127 H     0.36155   0.24324   0.69590   0.00000  Uiso   1.00
H128128 H     0.24400   0.23378   0.16398   0.00000  Uiso   1.00
H129129 H     0.24171   0.17462   0.46371   0.00000  Uiso   1.00
H130130 H     0.37562   0.18932   1.34957   0.00000  Uiso   1.00
H131131 H     0.24970   0.10148   0.39669   0.00000  Uiso   1.00
H132132 H     0.38258   0.11582   1.28447   0.00000  Uiso   1.00
H133133 H     0.27111   0.03776   0.55993   0.00000  Uiso   1.00
H134134 H     0.04087   0.78659  -0.51282   0.00000  Uiso   1.00
loop_
_geom_bond_atom_site_label_1
_geom_bond_atom_site_label_2
_geom_bond_distance
_geom_bond_site_symmetry_2
_ccdc_geom_bond_type
C11    C22     1.398   .     S
C11    C66     1.396   .     D
C11    H8585   1.099   .     S
C22    C33     1.431   .     D
C22    C3535   1.427   .     S
C33    C44     1.411   .     S
C33    C77     1.411   .     S
C44    C55     1.411   .     S
C44    C88     1.397   .     D
C55    C66     1.429   .     S
C55    C1616   1.411   .     D
C66    C2929   1.429   .     S
C77    C1010   1.363   .     D
C77    H8686   1.097   .     S
C88    C99     1.411   .     S
C88    C1414   1.411   .     S
C99    C1010   1.410   .     S
C99    C1111   1.431   .     D
C1010  H8787   1.097   .     S
C1111  C1212   1.398   .     S
C1111  C1717   1.425   .     S
C1212  C1313   1.396   .     D
C1212  H8888   1.099   .     S
C1313  C1414   1.430   .     S
C1313  C2323   1.427   .     S
C1414  C1515   1.410   .     D
C1515  C1616   1.363   .     S
C1515  H8989   1.097   .     S
C1616  H9090   1.097   .     S
C1717  C1818   1.434   .     D
C1717  C1919   1.434   .     S
C1818  C2020   1.372   .     S
C1818  H9191   1.100   .     S
C1919  H9292   1.099   .     S
C1919  C2121   1.374   1_554 D
C2020  H9393   1.099   .     S
C2020  C2222   1.406   1_554 D
C2121  C2222   1.408   .     S
C2121  H9494   1.100   .     S
C2121  C1919   1.374   1_556 D
C2222  C4141   1.450   .     S
C2222  C2020   1.406   1_556 D
C2323  C2424   1.433   .     D
C2323  C2525   1.433   1_554 S
C2424  C2626   1.374   .     S
C2424  H9595   1.099   .     S
C2525  C2727   1.373   .     D
C2525  H9696   1.100   .     S
C2525  C2323   1.433   1_556 S
C2626  C2828   1.407   .     D
C2626  H9797   1.100   .     S
C2727  H9898   1.100   .     S
C2727  C2828   1.408   1_556 S
C2828  C2727   1.408   1_554 S
C2828  C8383   1.451   1_565 S
C2929  C3131   1.433   .     D
C2929  C3030   1.432   1_554 S
C3030  C3232   1.373   .     D
C3030  H9999   1.098   .     S
C3030  C2929   1.432   1_556 S
C3131  C3333   1.373   .     S
C3131  H100100  1.100   .     S
C3232  H101101  1.100   .     S
C3232  C3434   1.406   1_556 S
C3333  C3434   1.408   .     D
C3333  H102102  1.100   .     S
C3434  C8484   1.451   .     S
C3434  C3232   1.406   1_554 S
C3535  C3636   1.433   .     S
C3535  C3737   1.433   1_554 D
C3636  C3838   1.374   .     D
C3636  H103103  1.099   .     S
C3737  C3939   1.372   .     S
C3737  H104104  1.100   .     S
C3737  C3535   1.433   1_556 D
C3838  C4040   1.407   .     S
C3838  H105105  1.100   .     S
C3939  H106106  1.100   .     S
C3939  C4040   1.408   1_556 D
C4040  C4242   1.451   .     S
C4040  C3939   1.408   1_554 D
C4141  H107107  1.101   .     S
C4141  N4343   1.297   1_556 D
C4242  N4444   1.297   .     D
C4242  H108108  1.101   .     S
N4343  C4545   1.407   .     S
N4343  C4141   1.297   1_554 D
N4444  C6363   1.407   .     S
C4545  C4747   1.406   .     D
C4545  C4646   1.404   1_554 S
C4646  C4848   1.375   .     D
C4646  H109109  1.099   .     S
C4646  C4545   1.404   1_556 S
C4747  C4949   1.374   .     S
C4747  H110110  1.099   .     S
C4848  H111111  1.099   .     S
C4848  C5050   1.427   1_556 S
C4949  C5050   1.430   .     D
C4949  H112112  1.099   .     S
C5050  C5151   1.439   .     S
C5050  C4848   1.427   1_554 S
C5151  C5252   1.429   .     D
C5151  C5353   1.426   1_554 S
C5252  C5454   1.364   .     S
C5252  H113113  1.100   .     S
C5353  C5555   1.365   .     D
C5353  H114114  1.100   .     S
C5353  C5151   1.426   1_556 S
C5454  C5656   1.426   .     D
C5454  H115115  1.099   .     S
C5555  H116116  1.098   .     S
C5555  C5656   1.426   1_556 S
C5656  C5757   1.455   .     S
C5656  C5555   1.426   1_554 S
C5757  C5959   1.425   .     S
C5757  C5858   1.425   1_554 D
C5858  C6060   1.374   .     S
C5858  H117117  1.097   .     S
C5858  C5757   1.425   1_556 D
C5959  C6161   1.375   .     D
C5959  H118118  1.098   .     S
C6060  C6262   1.403   .     D
C6060  H119119  1.100   .     S
C6161  H120120  1.098   .     S
C6161  C6262   1.406   1_554 S
C6262  C6161   1.406   1_556 S
C6262  N8181   1.408   1_655 S
C6363  C6464   1.403   .     D
C6363  C6565   1.406   .     S
C6464  C6666   1.374   .     S
C6464  H121121  1.100   .     S
C6565  H122122  1.099   .     S
C6565  C6767   1.375   1_554 D
C6666  C6868   1.426   .     D
C6666  H123123  1.098   .     S
C6767  H124124  1.099   .     S
C6767  C6565   1.375   1_556 D
C6767  C6868   1.426   1_556 S
C6868  C6969   1.456   .     S
C6868  C6767   1.426   1_554 S
C6969  C7070   1.427   .     D
C6969  C7171   1.427   .     S
C7070  C7272   1.365   .     S
C7070  H125125  1.099   .     S
C7171  C7373   1.364   .     D
C7171  H126126  1.099   .     S
C7272  C7474   1.428   .     D
C7272  H127127  1.101   .     S
C7373  C7474   1.430   .     S
C7373  H128128  1.101   .     S
C7474  C7575   1.436   .     S
C7575  C7676   1.429   .     D
C7575  C7777   1.431   1_554 S
C7676  C7878   1.374   .     S
C7676  H129129  1.100   .     S
C7777  C7979   1.374   .     D
C7777  H130130  1.099   .     S
C7777  C7575   1.431   1_556 S
C7878  H131131  1.099   .     S
C7878  C8080   1.408   1_554 D
C7979  C8080   1.404   .     S
C7979  H132132  1.100   .     S
C8080  N8282   1.406   .     S
C8080  C7878   1.408   1_556 D
N8181  C6262   1.408   1_455 S
N8181  C8484   1.297   1_556 D
N8282  C8383   1.297   1_556 D
C8383  H133133  1.101   .     S
C8383  C2828   1.451   1_545 S
C8383  N8282   1.297   1_554 D
C8484  H134134  1.100   .     S
C8484  N8181   1.297   1_554 D
