data_1138
_audit_creation_date              2023-09-08
_audit_creation_method            'Materials Studio'
_symmetry_space_group_name_H-M    'P1'
_symmetry_Int_Tables_number       1
_symmetry_cell_setting            triclinic
loop_
_symmetry_equiv_pos_as_xyz
  x,y,z
_cell_length_a                    30.5000
_cell_length_b                    30.5000
_cell_length_c                    5.0000
_cell_angle_alpha                 90.0000
_cell_angle_beta                  90.0000
_cell_angle_gamma                 120.0000
loop_
_atom_site_label
_atom_site_type_symbol
_atom_site_fract_x
_atom_site_fract_y
_atom_site_fract_z
_atom_site_U_iso_or_equiv
_atom_site_adp_type
_atom_site_occupancy
C1     C     0.43811   0.79849   0.40152   0.00000  Uiso   1.00
C2     C     0.42977   0.75737   0.23551   0.00000  Uiso   1.00
C3     C     0.47037   0.76427   0.06809   0.00000  Uiso   1.00
C4     C     0.51583   0.81131   0.05245   0.00000  Uiso   1.00
C5     C     0.52150   0.85292   0.20261   0.00000  Uiso   1.00
C6     C     0.48289   0.84559   0.38287   0.00000  Uiso   1.00
N7     N     0.55805   0.90140   0.16047   0.00000  Uiso   1.00
C8     C     0.60895   0.93056   0.14628   0.00000  Uiso   1.00
C9     C     0.79407   0.93525   0.31145   0.00000  Uiso   1.00
C10    C     0.80573   0.89732   0.37474   0.00000  Uiso   1.00
C11    C     0.85632   0.91040   0.42994   0.00000  Uiso   1.00
C12    C     0.89742   0.96120   0.45344   0.00000  Uiso   1.00
C13    C     0.88550   0.99550   0.32651   0.00000  Uiso   1.00
C14    C     0.83555   0.98434   0.27246   0.00000  Uiso   1.00
C15    C     0.97964   0.03234   0.64502   0.00000  Uiso   1.00
C16    C     0.94683   0.97942   0.57909   0.00000  Uiso   1.00
H17    H     0.54350   0.81566  -0.07759   0.00000  Uiso   1.00
H18    H     0.48660   0.87496   0.49867   0.00000  Uiso   1.00
H19    H     0.62008   0.96718   0.09598   0.00000  Uiso   1.00
H20    H     0.77769   0.86020   0.38275   0.00000  Uiso   1.00
H21    H     0.86229   0.88073   0.44663   0.00000  Uiso   1.00
C22    C     0.38188   0.71206   0.23409   0.00000  Uiso   1.00
C23    C     0.37762   0.66368   0.23232   0.00000  Uiso   1.00
H24    H     0.41114   0.79487   0.53561   0.00000  Uiso   1.00
C25    C     0.96202   0.06310   0.77733   0.00000  Uiso   1.00
C26    C     0.99610   0.10926   0.90526   0.00000  Uiso   1.00
C27    C     0.98523   0.14877   0.94174   0.00000  Uiso   1.00
C28    C     0.93671   0.14098   0.88023   0.00000  Uiso   1.00
C29    C     0.89832   0.09041   0.84075   0.00000  Uiso   1.00
C30    C     0.91126   0.05261   0.80245   0.00000  Uiso   1.00
Si31   Si    0.26178   0.07345   0.80604   0.00000  Uiso   1.00
C32    C     0.27514   0.02699   0.90634   0.00000  Uiso   1.00
C33    C     0.26254   0.98023   0.72641   0.00000  Uiso   1.00
C34    C     0.30802   0.98362   0.56668   0.00000  Uiso   1.00
C35    C     0.30587   0.93225   0.51617   0.00000  Uiso   1.00
C36    C     0.31137   0.13306   0.87656   0.00000  Uiso   1.00
C37    C     0.25887   0.07373   0.47166   0.00000  Uiso   1.00
C38    C     0.18245   0.25595   0.28778   0.00000  Uiso   1.00
C39    C     0.22608   0.26993   0.44452   0.00000  Uiso   1.00
C40    C     0.27049   0.31656   0.40571   0.00000  Uiso   1.00
C41    C     0.27293   0.35103   0.20914   0.00000  Uiso   1.00
C42    C     0.22821   0.33937   0.06809   0.00000  Uiso   1.00
C43    C     0.18335   0.29233   0.10787   0.00000  Uiso   1.00
H44    H     0.46664   0.73540  -0.05108   0.00000  Uiso   1.00
H45    H     0.91372   0.03161   0.29271   0.00000  Uiso   1.00
H46    H     0.41002   0.66158   0.22916   0.00000  Uiso   1.00
H47    H     0.01406   0.18354   0.99689   0.00000  Uiso   1.00
H48    H     0.86100   0.08047   0.82851   0.00000  Uiso   1.00
H49    H     0.88187   0.01670   0.79148   0.00000  Uiso   1.00
H50    H     0.25410   0.01070   1.08823   0.00000  Uiso   1.00
H51    H     0.31501   0.04587   0.96244   0.00000  Uiso   1.00
H52    H     0.23110   0.97141   0.59143   0.00000  Uiso   1.00
H53    H     0.24903   0.94761   0.85889   0.00000  Uiso   1.00
H54    H     0.34340   0.00753   0.67344   0.00000  Uiso   1.00
H55    H     0.31105   0.00190   0.37564   0.00000  Uiso   1.00
H56    H     0.31411   0.91965   0.70466   0.00000  Uiso   1.00
H57    H     0.33637   0.93939   0.37669   0.00000  Uiso   1.00
H58    H     0.34642   0.13642   0.79995   0.00000  Uiso   1.00
H59    H     0.31629   0.14127   1.08846   0.00000  Uiso   1.00
H60    H     0.30597   0.16204   0.77986   0.00000  Uiso   1.00
H61    H     0.25496   0.10561   0.40448   0.00000  Uiso   1.00
H62    H     0.22569   0.03900   0.40672   0.00000  Uiso   1.00
H63    H     0.29361   0.07675   0.39448   0.00000  Uiso   1.00
H64    H     0.22633   0.24571   0.58579   0.00000  Uiso   1.00
H65    H     0.30162   0.32440   0.51865   0.00000  Uiso   1.00
H66    H     0.22846   0.36385  -0.07221   0.00000  Uiso   1.00
H67    H     0.15188   0.28413  -0.00221   0.00000  Uiso   1.00
H68    H     0.82962   0.01283   0.20888   0.00000  Uiso   1.00
C69    C     0.11129   0.36628   0.40438   0.00000  Uiso   1.00
H70    H     0.09665   0.33865   0.24286   0.00000  Uiso   1.00
H71    H     0.12485   0.35092   0.56081   0.00000  Uiso   1.00
C72    C     0.15675   0.41572   0.29387   0.00000  Uiso   1.00
H73    H     0.14368   0.42939   0.12676   0.00000  Uiso   1.00
H74    H     0.18470   0.40689   0.21318   0.00000  Uiso   1.00
C75    C     0.18145   0.45441   0.49818   0.00000  Uiso   1.00
H76    H     0.19982   0.44802   0.64319   0.00000  Uiso   1.00
C77    C     0.18047   0.49779   0.50334   0.00000  Uiso   1.00
H78    H     0.16246   0.50584   0.36369   0.00000  Uiso   1.00
H79    H     0.19780   0.52268   0.64879   0.00000  Uiso   1.00
H80    H     0.03192   0.11681   0.94431   0.00000  Uiso   1.00
C81    C     0.20151   0.63962   0.40152   0.00000  Uiso   1.00
C82    C     0.24263   0.67240   0.23551   0.00000  Uiso   1.00
C83    C     0.23573   0.70610   0.06809   0.00000  Uiso   1.00
C84    C     0.18869   0.70452   0.05245   0.00000  Uiso   1.00
C85    C     0.14708   0.66858   0.20261   0.00000  Uiso   1.00
C86    C     0.15441   0.63730   0.38287   0.00000  Uiso   1.00
N87    N     0.09860   0.65665   0.16047   0.00000  Uiso   1.00
C88    C     0.06944   0.67839   0.14628   0.00000  Uiso   1.00
C89    C     0.06475   0.85882   0.31145   0.00000  Uiso   1.00
C90    C     0.10268   0.90841   0.37474   0.00000  Uiso   1.00
C91    C     0.08960   0.94592   0.42994   0.00000  Uiso   1.00
C92    C     0.03880   0.93622   0.45344   0.00000  Uiso   1.00
C93    C     0.00450   0.89000   0.32651   0.00000  Uiso   1.00
C94    C     0.01566   0.85121   0.27246   0.00000  Uiso   1.00
C95    C     0.96766   0.94730   0.64502   0.00000  Uiso   1.00
C96    C     0.02058   0.96741   0.57909   0.00000  Uiso   1.00
H97    H     0.18434   0.72784  -0.07759   0.00000  Uiso   1.00
H98    H     0.12504   0.61164   0.49867   0.00000  Uiso   1.00
H99    H     0.03282   0.65290   0.09598   0.00000  Uiso   1.00
H100   H     0.13980   0.91749   0.38275   0.00000  Uiso   1.00
H101   H     0.11927   0.98156   0.44663   0.00000  Uiso   1.00
C102   C     0.28794   0.66982   0.23409   0.00000  Uiso   1.00
C103   C     0.33632   0.71394   0.23232   0.00000  Uiso   1.00
H104   H     0.20513   0.61627   0.53561   0.00000  Uiso   1.00
C105   C     0.93690   0.89892   0.77733   0.00000  Uiso   1.00
C106   C     0.89074   0.88684   0.90526   0.00000  Uiso   1.00
C107   C     0.85123   0.83646   0.94174   0.00000  Uiso   1.00
C108   C     0.85902   0.79573   0.88023   0.00000  Uiso   1.00
C109   C     0.90959   0.80791   0.84075   0.00000  Uiso   1.00
C110   C     0.94739   0.85865   0.80245   0.00000  Uiso   1.00
Si111  Si    0.92655   0.18833   0.80604   0.00000  Uiso   1.00
C112   C     0.97301   0.24815   0.90634   0.00000  Uiso   1.00
C113   C     0.01977   0.28231   0.72641   0.00000  Uiso   1.00
C114   C     0.01638   0.32440   0.56668   0.00000  Uiso   1.00
C115   C     0.06775   0.37362   0.51617   0.00000  Uiso   1.00
C116   C     0.86694   0.17831   0.87656   0.00000  Uiso   1.00
C117   C     0.92627   0.18514   0.47166   0.00000  Uiso   1.00
C118   C     0.74405   0.92650   0.28778   0.00000  Uiso   1.00
C119   C     0.73007   0.95615   0.44452   0.00000  Uiso   1.00
C120   C     0.68344   0.95393   0.40571   0.00000  Uiso   1.00
C121   C     0.64897   0.92190   0.20914   0.00000  Uiso   1.00
C122   C     0.66063   0.88884   0.06809   0.00000  Uiso   1.00
C123   C     0.70767   0.89102   0.10787   0.00000  Uiso   1.00
H124   H     0.26460   0.73124  -0.05108   0.00000  Uiso   1.00
H125   H     0.96839   0.88211   0.29271   0.00000  Uiso   1.00
H126   H     0.33842   0.74844   0.22916   0.00000  Uiso   1.00
H127   H     0.81646   0.83052   0.99689   0.00000  Uiso   1.00
H128   H     0.91953   0.78053   0.82851   0.00000  Uiso   1.00
H129   H     0.98330   0.86517   0.79148   0.00000  Uiso   1.00
H130   H     0.98930   0.24340   1.08823   0.00000  Uiso   1.00
H131   H     0.95413   0.26914   0.96244   0.00000  Uiso   1.00
H132   H     0.02859   0.25969   0.59143   0.00000  Uiso   1.00
H133   H     0.05239   0.30142   0.85889   0.00000  Uiso   1.00
H134   H     0.99247   0.33587   0.67344   0.00000  Uiso   1.00
H135   H     0.99810   0.30915   0.37564   0.00000  Uiso   1.00
H136   H     0.08035   0.39446   0.70466   0.00000  Uiso   1.00
H137   H     0.06061   0.39698   0.37669   0.00000  Uiso   1.00
H138   H     0.86358   0.21000   0.79995   0.00000  Uiso   1.00
H139   H     0.85873   0.17502   1.08846   0.00000  Uiso   1.00
H140   H     0.83796   0.14393   0.77986   0.00000  Uiso   1.00
H141   H     0.89439   0.14935   0.40448   0.00000  Uiso   1.00
H142   H     0.96100   0.18669   0.40672   0.00000  Uiso   1.00
H143   H     0.92325   0.21686   0.39448   0.00000  Uiso   1.00
H144   H     0.75429   0.98062   0.58579   0.00000  Uiso   1.00
H145   H     0.67560   0.97722   0.51865   0.00000  Uiso   1.00
H146   H     0.63615   0.86461  -0.07221   0.00000  Uiso   1.00
H147   H     0.71587   0.86775  -0.00221   0.00000  Uiso   1.00
H148   H     0.98717   0.81679   0.20888   0.00000  Uiso   1.00
C149   C     0.63372   0.74501   0.40438   0.00000  Uiso   1.00
H150   H     0.66135   0.75800   0.24286   0.00000  Uiso   1.00
H151   H     0.64908   0.77393   0.56081   0.00000  Uiso   1.00
C152   C     0.58428   0.74103   0.29387   0.00000  Uiso   1.00
H153   H     0.57061   0.71429   0.12676   0.00000  Uiso   1.00
H154   H     0.59311   0.77781   0.21318   0.00000  Uiso   1.00
C155   C     0.54559   0.72704   0.49818   0.00000  Uiso   1.00
H156   H     0.55198   0.75180   0.64319   0.00000  Uiso   1.00
C157   C     0.50221   0.68268   0.50334   0.00000  Uiso   1.00
H158   H     0.49416   0.65662   0.36369   0.00000  Uiso   1.00
H159   H     0.47732   0.67512   0.64879   0.00000  Uiso   1.00
H160   H     0.88319   0.91511   0.94431   0.00000  Uiso   1.00
C161   C     0.36038   0.56189   0.40152   0.00000  Uiso   1.00
C162   C     0.32760   0.57023   0.23551   0.00000  Uiso   1.00
C163   C     0.29390   0.52963   0.06809   0.00000  Uiso   1.00
C164   C     0.29548   0.48417   0.05245   0.00000  Uiso   1.00
C165   C     0.33142   0.47850   0.20261   0.00000  Uiso   1.00
C166   C     0.36270   0.51711   0.38287   0.00000  Uiso   1.00
N167   N     0.34335   0.44195   0.16047   0.00000  Uiso   1.00
C168   C     0.32161   0.39105   0.14628   0.00000  Uiso   1.00
C169   C     0.14118   0.20593   0.31145   0.00000  Uiso   1.00
C170   C     0.09159   0.19427   0.37474   0.00000  Uiso   1.00
C171   C     0.05408   0.14368   0.42994   0.00000  Uiso   1.00
C172   C     0.06378   0.10258   0.45344   0.00000  Uiso   1.00
C173   C     0.11000   0.11450   0.32651   0.00000  Uiso   1.00
C174   C     0.14879   0.16445   0.27246   0.00000  Uiso   1.00
C175   C     0.05270   0.02036   0.64502   0.00000  Uiso   1.00
C176   C     0.03259   0.05317   0.57909   0.00000  Uiso   1.00
H177   H     0.27216   0.45650  -0.07759   0.00000  Uiso   1.00
H178   H     0.38836   0.51340   0.49867   0.00000  Uiso   1.00
H179   H     0.34710   0.37992   0.09598   0.00000  Uiso   1.00
H180   H     0.08251   0.22231   0.38275   0.00000  Uiso   1.00
H181   H     0.01844   0.13771   0.44663   0.00000  Uiso   1.00
C182   C     0.33018   0.61812   0.23409   0.00000  Uiso   1.00
C183   C     0.28606   0.62238   0.23232   0.00000  Uiso   1.00
H184   H     0.38373   0.58886   0.53561   0.00000  Uiso   1.00
C185   C     0.10108   0.03798   0.77733   0.00000  Uiso   1.00
C186   C     0.11316   0.00390   0.90526   0.00000  Uiso   1.00
C187   C     0.16354   0.01477   0.94174   0.00000  Uiso   1.00
C188   C     0.20427   0.06329   0.88023   0.00000  Uiso   1.00
C189   C     0.19209   0.10168   0.84075   0.00000  Uiso   1.00
C190   C     0.14135   0.08874   0.80245   0.00000  Uiso   1.00
Si191  Si    0.81167   0.73822   0.80604   0.00000  Uiso   1.00
C192   C     0.75185   0.72486   0.90634   0.00000  Uiso   1.00
C193   C     0.71769   0.73746   0.72641   0.00000  Uiso   1.00
C194   C     0.67560   0.69198   0.56668   0.00000  Uiso   1.00
C195   C     0.62638   0.69413   0.51617   0.00000  Uiso   1.00
C196   C     0.82169   0.68863   0.87656   0.00000  Uiso   1.00
C197   C     0.81486   0.74113   0.47166   0.00000  Uiso   1.00
C198   C     0.07350   0.81755   0.28778   0.00000  Uiso   1.00
C199   C     0.04385   0.77392   0.44452   0.00000  Uiso   1.00
C200   C     0.04607   0.72951   0.40571   0.00000  Uiso   1.00
C201   C     0.07810   0.72707   0.20914   0.00000  Uiso   1.00
C202   C     0.11116   0.77179   0.06809   0.00000  Uiso   1.00
C203   C     0.10898   0.81665   0.10787   0.00000  Uiso   1.00
H204   H     0.26876   0.53336  -0.05108   0.00000  Uiso   1.00
H205   H     0.11789   0.08628   0.29271   0.00000  Uiso   1.00
H206   H     0.25156   0.58998   0.22916   0.00000  Uiso   1.00
H207   H     0.16948   0.98594   0.99689   0.00000  Uiso   1.00
H208   H     0.21947   0.13900   0.82851   0.00000  Uiso   1.00
H209   H     0.13483   0.11813   0.79148   0.00000  Uiso   1.00
H210   H     0.75660   0.74590   1.08823   0.00000  Uiso   1.00
H211   H     0.73086   0.68499   0.96244   0.00000  Uiso   1.00
H212   H     0.74031   0.76890   0.59143   0.00000  Uiso   1.00
H213   H     0.69858   0.75097   0.85889   0.00000  Uiso   1.00
H214   H     0.66413   0.65660   0.67344   0.00000  Uiso   1.00
H215   H     0.69085   0.68895   0.37564   0.00000  Uiso   1.00
H216   H     0.60554   0.68589   0.70466   0.00000  Uiso   1.00
H217   H     0.60302   0.66363   0.37669   0.00000  Uiso   1.00
H218   H     0.79000   0.65358   0.79995   0.00000  Uiso   1.00
H219   H     0.82498   0.68371   1.08846   0.00000  Uiso   1.00
H220   H     0.85607   0.69403   0.77986   0.00000  Uiso   1.00
H221   H     0.85065   0.74504   0.40448   0.00000  Uiso   1.00
H222   H     0.81331   0.77431   0.40672   0.00000  Uiso   1.00
H223   H     0.78314   0.70639   0.39448   0.00000  Uiso   1.00
H224   H     0.01938   0.77367   0.58579   0.00000  Uiso   1.00
H225   H     0.02278   0.69838   0.51865   0.00000  Uiso   1.00
H226   H     0.13539   0.77154  -0.07221   0.00000  Uiso   1.00
H227   H     0.13225   0.84812  -0.00221   0.00000  Uiso   1.00
H228   H     0.18321   0.17038   0.20888   0.00000  Uiso   1.00
C229   C     0.25499   0.88871   0.40438   0.00000  Uiso   1.00
H230   H     0.24200   0.90335   0.24286   0.00000  Uiso   1.00
H231   H     0.22607   0.87515   0.56081   0.00000  Uiso   1.00
C232   C     0.25897   0.84325   0.29387   0.00000  Uiso   1.00
H233   H     0.28571   0.85632   0.12676   0.00000  Uiso   1.00
H234   H     0.22219   0.81530   0.21318   0.00000  Uiso   1.00
C235   C     0.27296   0.81855   0.49818   0.00000  Uiso   1.00
H236   H     0.24820   0.80018   0.64319   0.00000  Uiso   1.00
C237   C     0.31732   0.81953   0.50334   0.00000  Uiso   1.00
H238   H     0.34338   0.83754   0.36369   0.00000  Uiso   1.00
H239   H     0.32488   0.80220   0.64879   0.00000  Uiso   1.00
H240   H     0.08489   0.96808   0.94431   0.00000  Uiso   1.00
loop_
_geom_bond_atom_site_label_1
_geom_bond_atom_site_label_2
_geom_bond_distance
_geom_bond_site_symmetry_2
_ccdc_geom_bond_type
C1     C2      1.417   .     S
C1     C6      1.406   .     D
C1     H24     1.023   .     S
C2     C3      1.420   .     D
C2     C22     1.423   .     S
C3     C4      1.413   .     S
C3     H44     1.021   .     S
C4     C5      1.409   .     D
C4     H17     1.020   .     S
C5     C6      1.409   .     S
C5     N7      1.351   .     S
C6     H18     1.024   .     S
N7     C8      1.351   .     D
C8     H19     1.023   .     S
C8     C121    1.407   .     S
C9     C10     1.406   .     S
C9     C14     1.409   .     D
C9     C118    1.416   .     S
C10    C11     1.414   .     D
C10    H20     1.023   .     S
C11    C12     1.430   .     S
C11    H21     1.012   .     S
C12    C13     1.418   .     D
C12    C16     1.462   .     S
C13    C14     1.411   .     S
C13    H45     1.017   1_565 S
C14    H68     1.023   1_565 S
C15    C25     1.453   .     S
C15    C16     1.449   1_545 D
C15    C176    1.447   1_655 S
C16    C95     1.447   .     S
C16    C15     1.449   1_565 D
C22    C23     1.415   .     S
C22    C103    1.419   .     D
C23    H46     1.022   .     S
C23    C182    1.419   .     D
C25    C26     1.417   .     S
C25    C30     1.421   .     D
C26    C27     1.412   .     D
C26    H80     1.016   1_655 S
C27    C28     1.410   .     S
C27    H47     1.020   1_655 S
C28    C29     1.408   .     D
C28    Si111   1.663   .     S
C29    C30     1.406   .     S
C29    H48     1.023   .     S
C30    H49     1.012   .     S
Si31   C32     1.733   .     S
Si31   C36     1.723   .     S
Si31   C37     1.675   .     S
Si31   C188    1.663   .     S
C32    H50     1.080   .     S
C32    H51     1.090   .     S
C32    C33     1.563   1_545 S
C33    C34     1.559   .     S
C33    H52     1.091   .     S
C33    H53     1.090   .     S
C33    C32     1.563   1_565 S
C34    C35     1.556   .     S
C34    H54     1.093   1_565 S
C34    H55     1.086   1_565 S
C35    H56     1.093   .     S
C35    H57     1.094   .     S
C35    C229    1.557   .     S
C36    H58     1.091   .     S
C36    H59     1.082   .     S
C36    H60     1.090   .     S
C37    H61     1.090   .     S
C37    H62     1.086   .     S
C37    H63     1.087   .     S
C38    C39     1.414   .     D
C38    C43     1.418   .     S
C38    C169    1.416   .     S
C39    C40     1.403   .     S
C39    H64     1.025   .     S
C40    C41     1.414   .     D
C40    H65     1.025   .     S
C41    C42     1.414   .     S
C41    C168    1.407   .     S
C42    C43     1.417   .     D
C42    H66     1.022   .     S
C43    H67     1.023   .     S
H45    C13     1.017   1_545 S
H47    C27     1.020   1_455 S
H54    C34     1.093   1_545 S
H55    C34     1.086   1_545 S
H68    C14     1.023   1_545 S
C69    H70     1.089   .     S
C69    H71     1.094   .     S
C69    C72     1.553   .     S
C69    C115    1.557   .     S
C72    H73     1.094   .     S
C72    H74     1.092   .     S
C72    C75     1.454   .     S
C75    H76     0.993   .     S
C75    C77     1.339   .     D
C77    H78     0.992   .     S
C77    H79     0.992   .     S
H80    C26     1.016   1_455 S
C81    C82     1.417   .     S
C81    C86     1.406   .     D
C81    H104    1.023   .     S
C82    C83     1.420   .     D
C82    C102    1.423   .     S
C83    C84     1.413   .     S
C83    H124    1.021   .     S
C84    C85     1.409   .     D
C84    H97     1.020   .     S
C85    C86     1.409   .     S
C85    N87     1.351   .     S
C86    H98     1.024   .     S
N87    C88     1.351   .     D
C88    H99     1.023   .     S
C88    C201    1.407   .     S
C89    C90     1.406   .     D
C89    C94     1.409   .     S
C89    C198    1.416   .     S
C90    C91     1.414   .     S
C90    H100    1.023   .     S
C91    C92     1.430   .     D
C91    H101    1.012   .     S
C92    C93     1.418   .     S
C92    C96     1.462   .     S
C93    C94     1.411   .     D
C93    H125    1.017   1_455 S
C94    H148    1.023   1_455 S
C95    C105    1.453   .     S
C95    C96     1.449   1_655 D
C96    C95     1.449   1_455 D
C96    C175    1.447   1_565 S
C102   C103    1.415   .     S
C102   C183    1.419   .     D
C103   H126    1.022   .     S
C105   C106    1.417   .     D
C105   C110    1.421   .     S
C106   C107    1.412   .     S
C106   H160    1.016   .     S
C107   C108    1.410   .     D
C107   H127    1.020   .     S
C108   C109    1.408   .     S
C108   Si191   1.663   .     S
C109   C110    1.406   .     D
C109   H128    1.023   .     S
C110   H129    1.012   .     S
Si111  C112    1.733   .     S
Si111  C116    1.723   .     S
Si111  C117    1.675   .     S
C112   H130    1.080   .     S
C112   H131    1.090   .     S
C112   C113    1.563   1_655 S
C113   C114    1.559   .     S
C113   H132    1.091   .     S
C113   H133    1.090   .     S
C113   C112    1.563   1_455 S
C114   C115    1.556   .     S
C114   H134    1.093   1_455 S
C114   H135    1.086   1_455 S
C115   H136    1.093   .     S
C115   H137    1.094   .     S
C116   H138    1.091   .     S
C116   H139    1.082   .     S
C116   H140    1.090   .     S
C117   H141    1.090   .     S
C117   H142    1.086   .     S
C117   H143    1.087   .     S
C118   C119    1.414   .     S
C118   C123    1.418   .     D
C119   C120    1.403   .     D
C119   H144    1.025   .     S
C120   C121    1.414   .     S
C120   H145    1.025   .     S
C121   C122    1.414   .     D
C122   C123    1.417   .     S
C122   H146    1.022   .     S
C123   H147    1.023   .     S
H125   C93     1.017   1_655 S
H134   C114    1.093   1_655 S
H135   C114    1.086   1_655 S
H148   C94     1.023   1_655 S
C149   H150    1.089   .     S
C149   H151    1.094   .     S
C149   C152    1.553   .     S
C149   C195    1.557   .     S
C152   H153    1.094   .     S
C152   H154    1.092   .     S
C152   C155    1.454   .     S
C155   H156    0.993   .     S
C155   C157    1.339   .     D
C157   H158    0.992   .     S
C157   H159    0.992   .     S
C161   C162    1.417   .     D
C161   C166    1.406   .     S
C161   H184    1.023   .     S
C162   C163    1.420   .     S
C162   C182    1.423   .     S
C163   C164    1.413   .     D
C163   H204    1.021   .     S
C164   C165    1.409   .     S
C164   H177    1.020   .     S
C165   C166    1.409   .     D
C165   N167    1.351   .     S
C166   H178    1.024   .     S
N167   C168    1.351   .     D
C168   H179    1.023   .     S
C169   C170    1.406   .     D
C169   C174    1.409   .     S
C170   C171    1.414   .     S
C170   H180    1.023   .     S
C171   C172    1.430   .     D
C171   H181    1.012   .     S
C172   C173    1.418   .     S
C172   C176    1.462   .     S
C173   C174    1.411   .     D
C173   H205    1.017   .     S
C174   H228    1.023   .     S
C175   C176    1.449   .     D
C175   C185    1.453   .     S
C175   C96     1.447   1_545 S
C176   C15     1.447   1_455 S
C182   C183    1.415   .     S
C183   H206    1.022   .     S
C185   C186    1.417   .     D
C185   C190    1.421   .     S
C186   C187    1.412   .     S
C186   H240    1.016   1_545 S
C187   C188    1.410   .     D
C187   H207    1.020   1_545 S
C188   C189    1.408   .     S
C189   C190    1.406   .     D
C189   H208    1.023   .     S
C190   H209    1.012   .     S
Si191  C192    1.733   .     S
Si191  C196    1.723   .     S
Si191  C197    1.675   .     S
C192   C193    1.563   .     S
C192   H210    1.080   .     S
C192   H211    1.090   .     S
C193   C194    1.559   .     S
C193   H212    1.091   .     S
C193   H213    1.090   .     S
C194   C195    1.556   .     S
C194   H214    1.093   .     S
C194   H215    1.086   .     S
C195   H216    1.093   .     S
C195   H217    1.094   .     S
C196   H218    1.091   .     S
C196   H219    1.082   .     S
C196   H220    1.090   .     S
C197   H221    1.090   .     S
C197   H222    1.086   .     S
C197   H223    1.087   .     S
C198   C199    1.414   .     S
C198   C203    1.418   .     D
C199   C200    1.403   .     D
C199   H224    1.025   .     S
C200   C201    1.414   .     S
C200   H225    1.025   .     S
C201   C202    1.414   .     D
C202   C203    1.417   .     S
C202   H226    1.022   .     S
C203   H227    1.023   .     S
H207   C187    1.020   1_565 S
C229   H230    1.089   .     S
C229   H231    1.094   .     S
C229   C232    1.553   .     S
C232   H233    1.094   .     S
C232   H234    1.092   .     S
C232   C235    1.454   .     S
C235   H236    0.993   .     S
C235   C237    1.339   .     D
C237   H238    0.992   .     S
C237   H239    0.992   .     S
H240   C186    1.016   1_565 S
