data_114
_audit_creation_date              2023-09-08
_audit_creation_method            'Materials Studio'
_symmetry_space_group_name_H-M    'P1'
_symmetry_Int_Tables_number       1
_symmetry_cell_setting            triclinic
loop_
_symmetry_equiv_pos_as_xyz
  x,y,z
_cell_length_a                    40.3681
_cell_length_b                    31.4986
_cell_length_c                    4.6144
_cell_angle_alpha                 90.0000
_cell_angle_beta                  90.0000
_cell_angle_gamma                 90.0000
loop_
_atom_site_label
_atom_site_type_symbol
_atom_site_fract_x
_atom_site_fract_y
_atom_site_fract_z
_atom_site_U_iso_or_equiv
_atom_site_adp_type
_atom_site_occupancy
C1     C     0.36046   0.37266  -0.31833   0.00000  Uiso   1.00
C2     C     0.38931   0.39747  -0.31138   0.00000  Uiso   1.00
C3     C     0.41383   0.39156  -0.09672   0.00000  Uiso   1.00
C4     C     0.35549   0.33942  -0.12145   0.00000  Uiso   1.00
H5     H     0.34159   0.37983  -0.47797   0.00000  Uiso   1.00
H6     H     0.39179   0.42291  -0.46789   0.00000  Uiso   1.00
C7     C     0.61895   0.66930   0.07902   0.00000  Uiso   1.00
C8     C     0.59054   0.64324   0.09344   0.00000  Uiso   1.00
H9     H     0.62122   0.69454   0.23602   0.00000  Uiso   1.00
H10    H     0.57319   0.64871   0.26843   0.00000  Uiso   1.00
F11    F     0.26542   0.68138   0.34626   0.00000  Uiso   1.00
N12    N     0.17427   0.81834  -0.12830   0.00000  Uiso   1.00
C13    C     0.18492   0.78544   0.04030   0.00000  Uiso   1.00
C14    C     0.21737   0.76809   0.01617   0.00000  Uiso   1.00
C15    C     0.24153   0.78484  -0.17389   0.00000  Uiso   1.00
C16    C     0.22651   0.73295   0.18926   0.00000  Uiso   1.00
H17    H     0.16831   0.77185   0.19880   0.00000  Uiso   1.00
F18    F     0.20436   0.71546   0.37614   0.00000  Uiso   1.00
C19    C     0.47327   0.41068  -0.02754   0.00000  Uiso   1.00
C20    C     0.43975   0.42280  -0.05608   0.00000  Uiso   1.00
C21    C     0.43068   0.46588  -0.02908   0.00000  Uiso   1.00
C22    C     0.48349   0.36873  -0.02529   0.00000  Uiso   1.00
C23    C     0.39793   0.47877  -0.01063   0.00000  Uiso   1.00
H24    H     0.46902   0.34027  -0.05567   0.00000  Uiso   1.00
H25    H     0.37557   0.45998  -0.00668   0.00000  Uiso   1.00
C26    C     0.63954   0.62734  -0.31833   0.00000  Uiso   1.00
C27    C     0.61069   0.60253  -0.31138   0.00000  Uiso   1.00
C28    C     0.58617   0.60844  -0.09672   0.00000  Uiso   1.00
C29    C     0.64451   0.66058  -0.12145   0.00000  Uiso   1.00
H30    H     0.65841   0.62017  -0.47797   0.00000  Uiso   1.00
H31    H     0.60821   0.57709  -0.46789   0.00000  Uiso   1.00
C32    C     0.38105   0.33070   0.07902   0.00000  Uiso   1.00
C33    C     0.40946   0.35676   0.09344   0.00000  Uiso   1.00
H34    H     0.37878   0.30546   0.23602   0.00000  Uiso   1.00
H35    H     0.42681   0.35129   0.26843   0.00000  Uiso   1.00
F36    F     0.73458   0.31862   0.34626   0.00000  Uiso   1.00
N37    N     0.82573   0.18166  -0.12830   0.00000  Uiso   1.00
C38    C     0.81508   0.21456   0.04030   0.00000  Uiso   1.00
C39    C     0.78263   0.23191   0.01617   0.00000  Uiso   1.00
C40    C     0.75847   0.21516  -0.17389   0.00000  Uiso   1.00
C41    C     0.77349   0.26705   0.18926   0.00000  Uiso   1.00
H42    H     0.83169   0.22815   0.19880   0.00000  Uiso   1.00
F43    F     0.79564   0.28454   0.37614   0.00000  Uiso   1.00
C44    C     0.52673   0.58932  -0.02754   0.00000  Uiso   1.00
C45    C     0.56025   0.57720  -0.05608   0.00000  Uiso   1.00
C46    C     0.56932   0.53412  -0.02908   0.00000  Uiso   1.00
C47    C     0.51651   0.63127  -0.02529   0.00000  Uiso   1.00
C48    C     0.60207   0.52123  -0.01063   0.00000  Uiso   1.00
H49    H     0.53098   0.65973  -0.05567   0.00000  Uiso   1.00
H50    H     0.62443   0.54002  -0.00668   0.00000  Uiso   1.00
C51    C     0.63954   0.37266   0.31833   0.00000  Uiso   1.00
C52    C     0.61069   0.39747   0.31138   0.00000  Uiso   1.00
C53    C     0.58617   0.39156   0.09672   0.00000  Uiso   1.00
C54    C     0.64451   0.33942   0.12145   0.00000  Uiso   1.00
H55    H     0.65841   0.37983   0.47797   0.00000  Uiso   1.00
H56    H     0.60821   0.42291   0.46789   0.00000  Uiso   1.00
C57    C     0.38105   0.66930  -0.07902   0.00000  Uiso   1.00
C58    C     0.40946   0.64324  -0.09344   0.00000  Uiso   1.00
H59    H     0.37878   0.69454  -0.23602   0.00000  Uiso   1.00
H60    H     0.42681   0.64871  -0.26843   0.00000  Uiso   1.00
F61    F     0.73458   0.68138  -0.34626   0.00000  Uiso   1.00
N62    N     0.82573   0.81834   0.12830   0.00000  Uiso   1.00
C63    C     0.81508   0.78544  -0.04030   0.00000  Uiso   1.00
C64    C     0.78263   0.76809  -0.01617   0.00000  Uiso   1.00
C65    C     0.75847   0.78484   0.17389   0.00000  Uiso   1.00
C66    C     0.77349   0.73295  -0.18926   0.00000  Uiso   1.00
H67    H     0.83169   0.77185  -0.19880   0.00000  Uiso   1.00
F68    F     0.79564   0.71546  -0.37614   0.00000  Uiso   1.00
C69    C     0.52673   0.41068   0.02754   0.00000  Uiso   1.00
C70    C     0.56025   0.42280   0.05608   0.00000  Uiso   1.00
C71    C     0.56932   0.46588   0.02908   0.00000  Uiso   1.00
C72    C     0.51651   0.36873   0.02529   0.00000  Uiso   1.00
C73    C     0.60207   0.47877   0.01063   0.00000  Uiso   1.00
H74    H     0.53098   0.34027   0.05567   0.00000  Uiso   1.00
H75    H     0.62443   0.45998   0.00668   0.00000  Uiso   1.00
C76    C     0.36046   0.62734   0.31833   0.00000  Uiso   1.00
C77    C     0.38931   0.60253   0.31138   0.00000  Uiso   1.00
C78    C     0.41383   0.60844   0.09672   0.00000  Uiso   1.00
C79    C     0.35549   0.66058   0.12145   0.00000  Uiso   1.00
H80    H     0.34159   0.62017   0.47797   0.00000  Uiso   1.00
H81    H     0.39179   0.57709   0.46789   0.00000  Uiso   1.00
C82    C     0.61895   0.33070  -0.07902   0.00000  Uiso   1.00
C83    C     0.59054   0.35676  -0.09344   0.00000  Uiso   1.00
H84    H     0.62122   0.30546  -0.23602   0.00000  Uiso   1.00
H85    H     0.57319   0.35129  -0.26843   0.00000  Uiso   1.00
F86    F     0.26542   0.31862  -0.34626   0.00000  Uiso   1.00
N87    N     0.17427   0.18166   0.12830   0.00000  Uiso   1.00
C88    C     0.18492   0.21456  -0.04030   0.00000  Uiso   1.00
C89    C     0.21737   0.23191  -0.01617   0.00000  Uiso   1.00
C90    C     0.24153   0.21516   0.17389   0.00000  Uiso   1.00
C91    C     0.22651   0.26705  -0.18926   0.00000  Uiso   1.00
H92    H     0.16831   0.22815  -0.19880   0.00000  Uiso   1.00
F93    F     0.20436   0.28454  -0.37614   0.00000  Uiso   1.00
C94    C     0.47327   0.58932   0.02754   0.00000  Uiso   1.00
C95    C     0.43975   0.57720   0.05608   0.00000  Uiso   1.00
C96    C     0.43068   0.53412   0.02908   0.00000  Uiso   1.00
C97    C     0.48349   0.63127   0.02529   0.00000  Uiso   1.00
C98    C     0.39793   0.52123   0.01063   0.00000  Uiso   1.00
H99    H     0.46902   0.65973   0.05567   0.00000  Uiso   1.00
H100   H     0.37557   0.54002   0.00668   0.00000  Uiso   1.00
C101   C     0.13954   0.12734   0.31833   0.00000  Uiso   1.00
C102   C     0.11069   0.10253   0.31138   0.00000  Uiso   1.00
C103   C     0.08617   0.10844   0.09672   0.00000  Uiso   1.00
C104   C     0.14451   0.16058   0.12145   0.00000  Uiso   1.00
H105   H     0.15841   0.12017   0.47797   0.00000  Uiso   1.00
H106   H     0.10821   0.07709   0.46789   0.00000  Uiso   1.00
C107   C     0.88105   0.83070  -0.07902   0.00000  Uiso   1.00
C108   C     0.90946   0.85676  -0.09344   0.00000  Uiso   1.00
H109   H     0.87878   0.80546  -0.23602   0.00000  Uiso   1.00
H110   H     0.92681   0.85129  -0.26843   0.00000  Uiso   1.00
F111   F     0.23458   0.81862  -0.34626   0.00000  Uiso   1.00
N112   N     0.32573   0.68166   0.12830   0.00000  Uiso   1.00
C113   C     0.31508   0.71456  -0.04030   0.00000  Uiso   1.00
C114   C     0.28263   0.73191  -0.01617   0.00000  Uiso   1.00
C115   C     0.25847   0.71516   0.17389   0.00000  Uiso   1.00
C116   C     0.27349   0.76705  -0.18926   0.00000  Uiso   1.00
H117   H     0.33169   0.72815  -0.19880   0.00000  Uiso   1.00
F118   F     0.29564   0.78454  -0.37614   0.00000  Uiso   1.00
C119   C     0.02673   0.08932   0.02754   0.00000  Uiso   1.00
C120   C     0.06025   0.07720   0.05608   0.00000  Uiso   1.00
C121   C     0.06932   0.03412   0.02908   0.00000  Uiso   1.00
C122   C     0.01651   0.13127   0.02529   0.00000  Uiso   1.00
C123   C     0.10207   0.02123   0.01063   0.00000  Uiso   1.00
H124   H     0.03098   0.15973   0.05567   0.00000  Uiso   1.00
H125   H     0.12443   0.04002   0.00668   0.00000  Uiso   1.00
C126   C     0.86046   0.87266   0.31833   0.00000  Uiso   1.00
C127   C     0.88931   0.89747   0.31138   0.00000  Uiso   1.00
C128   C     0.91383   0.89156   0.09672   0.00000  Uiso   1.00
C129   C     0.85549   0.83942   0.12145   0.00000  Uiso   1.00
H130   H     0.84159   0.87983   0.47797   0.00000  Uiso   1.00
H131   H     0.89179   0.92291   0.46789   0.00000  Uiso   1.00
C132   C     0.11895   0.16930  -0.07902   0.00000  Uiso   1.00
C133   C     0.09054   0.14324  -0.09344   0.00000  Uiso   1.00
H134   H     0.12122   0.19454  -0.23602   0.00000  Uiso   1.00
H135   H     0.07319   0.14871  -0.26843   0.00000  Uiso   1.00
F136   F     0.76542   0.18138  -0.34626   0.00000  Uiso   1.00
N137   N     0.67427   0.31834   0.12830   0.00000  Uiso   1.00
C138   C     0.68492   0.28544  -0.04030   0.00000  Uiso   1.00
C139   C     0.71737   0.26809  -0.01617   0.00000  Uiso   1.00
C140   C     0.74153   0.28484   0.17389   0.00000  Uiso   1.00
C141   C     0.72651   0.23295  -0.18926   0.00000  Uiso   1.00
H142   H     0.66831   0.27185  -0.19880   0.00000  Uiso   1.00
F143   F     0.70436   0.21546  -0.37614   0.00000  Uiso   1.00
C144   C     0.97327   0.91068   0.02754   0.00000  Uiso   1.00
C145   C     0.93975   0.92280   0.05608   0.00000  Uiso   1.00
C146   C     0.93068   0.96588   0.02908   0.00000  Uiso   1.00
C147   C     0.98349   0.86873   0.02529   0.00000  Uiso   1.00
C148   C     0.89793   0.97877   0.01063   0.00000  Uiso   1.00
H149   H     0.96902   0.84027   0.05567   0.00000  Uiso   1.00
H150   H     0.87557   0.95998   0.00668   0.00000  Uiso   1.00
C151   C     0.86046   0.12734  -0.31833   0.00000  Uiso   1.00
C152   C     0.88931   0.10253  -0.31138   0.00000  Uiso   1.00
C153   C     0.91383   0.10844  -0.09672   0.00000  Uiso   1.00
C154   C     0.85549   0.16058  -0.12145   0.00000  Uiso   1.00
H155   H     0.84159   0.12017  -0.47797   0.00000  Uiso   1.00
H156   H     0.89179   0.07709  -0.46789   0.00000  Uiso   1.00
C157   C     0.11895   0.83070   0.07902   0.00000  Uiso   1.00
C158   C     0.09054   0.85676   0.09344   0.00000  Uiso   1.00
H159   H     0.12122   0.80546   0.23602   0.00000  Uiso   1.00
H160   H     0.07319   0.85129   0.26843   0.00000  Uiso   1.00
F161   F     0.76542   0.81862   0.34626   0.00000  Uiso   1.00
N162   N     0.67427   0.68166  -0.12830   0.00000  Uiso   1.00
C163   C     0.68492   0.71456   0.04030   0.00000  Uiso   1.00
C164   C     0.71737   0.73191   0.01617   0.00000  Uiso   1.00
C165   C     0.74153   0.71516  -0.17389   0.00000  Uiso   1.00
C166   C     0.72651   0.76705   0.18926   0.00000  Uiso   1.00
H167   H     0.66831   0.72815   0.19880   0.00000  Uiso   1.00
F168   F     0.70436   0.78454   0.37614   0.00000  Uiso   1.00
C169   C     0.97327   0.08932  -0.02754   0.00000  Uiso   1.00
C170   C     0.93975   0.07720  -0.05608   0.00000  Uiso   1.00
C171   C     0.93068   0.03412  -0.02908   0.00000  Uiso   1.00
C172   C     0.98349   0.13127  -0.02529   0.00000  Uiso   1.00
C173   C     0.89793   0.02123  -0.01063   0.00000  Uiso   1.00
H174   H     0.96902   0.15973  -0.05567   0.00000  Uiso   1.00
H175   H     0.87557   0.04002  -0.00668   0.00000  Uiso   1.00
C176   C     0.13954   0.87266  -0.31833   0.00000  Uiso   1.00
C177   C     0.11069   0.89747  -0.31138   0.00000  Uiso   1.00
C178   C     0.08617   0.89156  -0.09672   0.00000  Uiso   1.00
C179   C     0.14451   0.83942  -0.12145   0.00000  Uiso   1.00
H180   H     0.15841   0.87983  -0.47797   0.00000  Uiso   1.00
H181   H     0.10821   0.92291  -0.46789   0.00000  Uiso   1.00
C182   C     0.88105   0.16930   0.07902   0.00000  Uiso   1.00
C183   C     0.90946   0.14324   0.09344   0.00000  Uiso   1.00
H184   H     0.87878   0.19454   0.23602   0.00000  Uiso   1.00
H185   H     0.92681   0.14871   0.26843   0.00000  Uiso   1.00
F186   F     0.23458   0.18138   0.34626   0.00000  Uiso   1.00
N187   N     0.32573   0.31834  -0.12830   0.00000  Uiso   1.00
C188   C     0.31508   0.28544   0.04030   0.00000  Uiso   1.00
C189   C     0.28263   0.26809   0.01617   0.00000  Uiso   1.00
C190   C     0.25847   0.28484  -0.17389   0.00000  Uiso   1.00
C191   C     0.27349   0.23295   0.18926   0.00000  Uiso   1.00
H192   H     0.33169   0.27185   0.19880   0.00000  Uiso   1.00
F193   F     0.29564   0.21546   0.37614   0.00000  Uiso   1.00
C194   C     0.02673   0.91068  -0.02754   0.00000  Uiso   1.00
C195   C     0.06025   0.92280  -0.05608   0.00000  Uiso   1.00
C196   C     0.06932   0.96588  -0.02908   0.00000  Uiso   1.00
C197   C     0.01651   0.86873  -0.02529   0.00000  Uiso   1.00
C198   C     0.10207   0.97877  -0.01063   0.00000  Uiso   1.00
H199   H     0.03098   0.84027  -0.05567   0.00000  Uiso   1.00
H200   H     0.12443   0.95998  -0.00668   0.00000  Uiso   1.00
N201   N     0.45141   0.50000   0.00000   0.00000  Uiso   1.00
N202   N     0.54859   0.50000   0.00000   0.00000  Uiso   1.00
N203   N     0.04859   0.00000   0.00000   0.00000  Uiso   1.00
N204   N     0.95141   0.00000   0.00000   0.00000  Uiso   1.00
Co205  Co    0.50000   0.50000   0.00000   0.00000  Uiso   1.00
Co206  Co    0.00000   0.00000   0.00000   0.00000  Uiso   1.00
N207   N     0.50000   0.56273   0.00000   0.00000  Uiso   1.00
N208   N     0.50000   0.43727   0.00000   0.00000  Uiso   1.00
N209   N     0.00000   0.93727   0.00000   0.00000  Uiso   1.00
N210   N     0.00000   0.06273   0.00000   0.00000  Uiso   1.00
loop_
_geom_bond_atom_site_label_1
_geom_bond_atom_site_label_2
_geom_bond_distance
_geom_bond_site_symmetry_2
_ccdc_geom_bond_type
C1     C2      1.403   .     S
C1     C4      1.401   .     D
C1     H5      1.083   .     S
C2     C3      1.413   .     D
C2     H6      1.083   .     S
C3     C20     1.449   .     S
C3     C33     1.415   .     S
C4     C32     1.413   .     S
C4     N187    1.373   .     S
C7     C8      1.412   .     S
C7     H9      1.079   .     S
C7     C29     1.413   .     D
C8     H10     1.083   .     S
C8     C28     1.415   .     D
F11    C115    1.358   .     S
N12    C13     1.365   .     D
N12    C179    1.373   .     S
C13    C14     1.424   .     S
C13    H17     1.081   .     S
C14    C15     1.414   .     D
C14    C16     1.414   .     S
C15    F111    1.358   .     S
C15    C116    1.408   .     S
C16    F18     1.359   .     S
C16    C115    1.408   .     D
C19    C20     1.412   .     S
C19    C22     1.384   .     S
C19    N208    1.372   .     D
C20    C21     1.411   .     D
C21    C23     1.386   .     S
C21    N201    1.369   .     S
C22    H24     1.079   .     S
C22    C72     1.353   .     D
C23    H25     1.080   .     S
C23    C98     1.341   .     D
C26    C27     1.403   .     D
C26    C29     1.401   .     S
C26    H30     1.083   .     S
C27    C28     1.413   .     S
C27    H31     1.083   .     S
C28    C45     1.449   .     S
C29    N162    1.373   .     S
C32    C33     1.412   .     D
C32    H34     1.079   .     S
C33    H35     1.083   .     S
F36    C140    1.358   .     S
N37    C38     1.365   .     D
N37    C154    1.373   .     S
C38    C39     1.424   .     S
C38    H42     1.081   .     S
C39    C40     1.414   .     D
C39    C41     1.414   .     S
C40    F136    1.358   .     S
C40    C141    1.408   .     S
C41    F43     1.359   .     S
C41    C140    1.408   .     D
C44    C45     1.412   .     S
C44    C47     1.384   .     S
C44    N207    1.372   .     D
C45    C46     1.411   .     D
C46    C48     1.386   .     S
C46    N202    1.369   .     S
C47    H49     1.079   .     S
C47    C97     1.353   .     D
C48    H50     1.080   .     S
C48    C73     1.341   .     D
C51    C52     1.403   .     S
C51    C54     1.401   .     D
C51    H55     1.083   .     S
C52    C53     1.413   .     D
C52    H56     1.083   .     S
C53    C70     1.449   .     S
C53    C83     1.415   .     S
C54    C82     1.413   .     S
C54    N137    1.373   .     S
C57    C58     1.412   .     D
C57    H59     1.079   .     S
C57    C79     1.413   .     S
C58    H60     1.083   .     S
C58    C78     1.415   .     S
F61    C165    1.358   .     S
N62    C63     1.365   .     D
N62    C129    1.373   .     S
C63    C64     1.424   .     S
C63    H67     1.081   .     S
C64    C65     1.414   .     S
C64    C66     1.414   .     D
C65    F161    1.358   .     S
C65    C166    1.408   .     D
C66    F68     1.359   .     S
C66    C165    1.408   .     S
C69    C70     1.412   .     D
C69    C72     1.384   .     S
C69    N208    1.372   .     S
C70    C71     1.411   .     S
C71    C73     1.386   .     S
C71    N202    1.369   .     D
C72    H74     1.079   .     S
C73    H75     1.080   .     S
C76    C77     1.403   .     S
C76    C79     1.401   .     D
C76    H80     1.083   .     S
C77    C78     1.413   .     D
C77    H81     1.083   .     S
C78    C95     1.449   .     S
C79    N112    1.373   .     S
C82    C83     1.412   .     D
C82    H84     1.079   .     S
C83    H85     1.083   .     S
F86    C190    1.358   .     S
N87    C88     1.365   .     D
N87    C104    1.373   .     S
C88    C89     1.424   .     S
C88    H92     1.081   .     S
C89    C90     1.414   .     D
C89    C91     1.414   .     S
C90    F186    1.358   .     S
C90    C191    1.408   .     S
C91    F93     1.359   .     S
C91    C190    1.408   .     D
C94    C95     1.412   .     D
C94    C97     1.384   .     S
C94    N207    1.372   .     S
C95    C96     1.411   .     S
C96    C98     1.386   .     S
C96    N201    1.369   .     D
C97    H99     1.079   .     S
C98    H100    1.080   .     S
C101   C102    1.403   .     S
C101   C104    1.401   .     D
C101   H105    1.083   .     S
C102   C103    1.413   .     D
C102   H106    1.083   .     S
C103   C120    1.449   .     S
C103   C133    1.415   .     S
C104   C132    1.413   .     S
C107   C108    1.412   .     S
C107   H109    1.079   .     S
C107   C129    1.413   .     D
C108   H110    1.083   .     S
C108   C128    1.415   .     D
N112   C113    1.365   .     D
C113   C114    1.424   .     S
C113   H117    1.081   .     S
C114   C115    1.414   .     S
C114   C116    1.414   .     D
C116   F118    1.359   .     S
C119   C120    1.412   .     D
C119   C122    1.384   .     S
C119   N210    1.372   .     S
C120   C121    1.411   .     S
C121   C123    1.386   .     S
C121   N203    1.369   .     D
C122   H124    1.079   .     S
C122   C172    1.353   1_455 D
C123   H125    1.080   .     S
C123   C198    1.341   1_545 D
C126   C127    1.403   .     D
C126   C129    1.401   .     S
C126   H130    1.083   .     S
C127   C128    1.413   .     S
C127   H131    1.083   .     S
C128   C145    1.449   .     S
C132   C133    1.412   .     D
C132   H134    1.079   .     S
C133   H135    1.083   .     S
N137   C138    1.365   .     D
C138   C139    1.424   .     S
C138   H142    1.081   .     S
C139   C140    1.414   .     S
C139   C141    1.414   .     D
C141   F143    1.359   .     S
C144   C145    1.412   .     D
C144   C147    1.384   .     S
C144   N209    1.372   1_655 S
C145   C146    1.411   .     S
C146   C148    1.386   .     S
C146   N204    1.369   1_565 D
C147   H149    1.079   .     S
C147   C197    1.353   1_655 D
C148   H150    1.080   .     S
C148   C173    1.341   1_565 D
C151   C152    1.403   .     S
C151   C154    1.401   .     D
C151   H155    1.083   .     S
C152   C153    1.413   .     D
C152   H156    1.083   .     S
C153   C170    1.449   .     S
C153   C183    1.415   .     S
C154   C182    1.413   .     S
C157   C158    1.412   .     D
C157   H159    1.079   .     S
C157   C179    1.413   .     S
C158   H160    1.083   .     S
C158   C178    1.415   .     S
N162   C163    1.365   .     D
C163   C164    1.424   .     S
C163   H167    1.081   .     S
C164   C165    1.414   .     D
C164   C166    1.414   .     S
C166   F168    1.359   .     S
C169   C170    1.412   .     S
C169   C172    1.384   .     S
C169   N210    1.372   1_655 D
C170   C171    1.411   .     D
C171   C173    1.386   .     S
C171   N204    1.369   .     S
C172   C122    1.353   1_655 D
C172   H174    1.079   .     S
C173   C148    1.341   1_545 D
C173   H175    1.080   .     S
C176   C177    1.403   .     S
C176   C179    1.401   .     D
C176   H180    1.083   .     S
C177   C178    1.413   .     D
C177   H181    1.083   .     S
C178   C195    1.449   .     S
C182   C183    1.412   .     D
C182   H184    1.079   .     S
C183   H185    1.083   .     S
N187   C188    1.365   .     D
C188   C189    1.424   .     S
C188   H192    1.081   .     S
C189   C190    1.414   .     S
C189   C191    1.414   .     D
C191   F193    1.359   .     S
C194   C195    1.412   .     S
C194   C197    1.384   .     S
C194   N209    1.372   .     D
C195   C196    1.411   .     D
C196   C198    1.386   .     S
C196   N203    1.369   1_565 S
C197   C147    1.353   1_455 D
C197   H199    1.079   .     S
C198   C123    1.341   1_565 D
C198   H200    1.080   .     S
N201   Co205   1.961   .     S
N202   Co205   1.961   .     S
N203   C196    1.369   1_545 S
N203   Co206   1.961   .     S
N204   C146    1.369   1_545 D
N204   Co206   1.961   1_655 S
Co205  N207    1.976   .     S
Co205  N208    1.976   .     S
Co206  N204    1.961   1_455 S
Co206  N209    1.976   1_545 S
Co206  N210    1.976   .     S
N209   C144    1.372   1_455 S
N209   Co206   1.976   1_565 S
N210   C169    1.372   1_455 D
