data_1144
_audit_creation_date              2023-09-08
_audit_creation_method            'Materials Studio'
_symmetry_space_group_name_H-M    'P1'
_symmetry_Int_Tables_number       1
_symmetry_cell_setting            triclinic
loop_
_symmetry_equiv_pos_as_xyz
  x,y,z
_cell_length_a                    34.4900
_cell_length_b                    34.1900
_cell_length_c                    10.8900
_cell_angle_alpha                 90.3300
_cell_angle_beta                  89.0200
_cell_angle_gamma                 60.1400
loop_
_atom_site_label
_atom_site_type_symbol
_atom_site_fract_x
_atom_site_fract_y
_atom_site_fract_z
_atom_site_U_iso_or_equiv
_atom_site_adp_type
_atom_site_occupancy
N11    N     0.65752   0.66105   0.05009   0.00000  Uiso   1.00
H22    H     0.66486   0.66059  -0.04364   0.00000  Uiso   1.00
C23    C     0.90940   0.55369   0.17845   0.00000  Uiso   1.00
C44    C     0.86688   0.57055   0.26177   0.00000  Uiso   1.00
C65    C     0.85955   0.52602   0.12587   0.00000  Uiso   1.00
C86    C     0.90454   0.52301   0.08540   0.00000  Uiso   1.00
H47    H     0.91520   0.58013   0.13757   0.00000  Uiso   1.00
H68    H     0.90770   0.53057  -0.01164   0.00000  Uiso   1.00
C109   C     0.86002   0.52981   0.26504   0.00000  Uiso   1.00
H810   H     0.82834   0.53628   0.31175   0.00000  Uiso   1.00
H1011  H     0.88753   0.49963   0.30822   0.00000  Uiso   1.00
C1212  C     0.82715   0.60442   0.18414   0.00000  Uiso   1.00
H1213  H     0.83022   0.63267   0.14425   0.00000  Uiso   1.00
C1414  C     0.82234   0.57403   0.09004   0.00000  Uiso   1.00
H1415  H     0.82240   0.58375  -0.00652   0.00000  Uiso   1.00
H1616  H     0.86930   0.58472   0.35092   0.00000  Uiso   1.00
H1817  H     0.85484   0.49818   0.09075   0.00000  Uiso   1.00
C1618  C     0.78068   0.61752   0.23036   0.00000  Uiso   1.00
C1819  C     0.74498   0.65990   0.26289   0.00000  Uiso   1.00
C2020  C     0.70297   0.67333   0.21109   0.00000  Uiso   1.00
C2221  C     0.69856   0.64701   0.11580   0.00000  Uiso   1.00
C2422  C     0.73643   0.60584   0.07947   0.00000  Uiso   1.00
C2623  C     0.77617   0.59042   0.14236   0.00000  Uiso   1.00
H2024  H     0.67474   0.70521   0.24097   0.00000  Uiso   1.00
H2225  H     0.73560   0.58756  -0.00091   0.00000  Uiso   1.00
C2826  C     0.99272   0.50789   0.24614   0.00000  Uiso   1.00
C3027  C     0.95115   0.51275   0.21939   0.00000  Uiso   1.00
C3228  C     0.94705   0.48465   0.13373   0.00000  Uiso   1.00
C3429  C     0.98454   0.45173   0.06850   0.00000  Uiso   1.00
C3630  C     0.02713   0.44408   0.10196   0.00000  Uiso   1.00
C3831  C     0.03170   0.47119   0.19335   0.00000  Uiso   1.00
H2432  H     0.99458   0.53330   0.30126   0.00000  Uiso   1.00
H2633  H     0.05670   0.41829   0.05376   0.00000  Uiso   1.00
C4034  C     0.97922   0.42598  -0.03525   0.00000  Uiso   1.00
H2835  H     0.96261   0.40736  -0.00066   0.00000  Uiso   1.00
H3036  H     0.95831   0.44954  -0.10675   0.00000  Uiso   1.00
H3237  H     1.01212   0.40141  -0.07781   0.00000  Uiso   1.00
C4238  C     0.75175   0.68980   0.35058   0.00000  Uiso   1.00
H3439  H     0.76360   0.67241   0.43927   0.00000  Uiso   1.00
H3640  H     0.77722   0.69751   0.31207   0.00000  Uiso   1.00
H3841  H     0.72012   0.72203   0.36828   0.00000  Uiso   1.00
C4442  C     0.40881   0.02285   0.16874   0.00000  Uiso   1.00
C4643  C     0.39105   0.06474   0.25476   0.00000  Uiso   1.00
C4844  C     0.33533   0.04941   0.25983   0.00000  Uiso   1.00
C5045  C     0.37014   0.01295   0.16950   0.00000  Uiso   1.00
H4046  H     0.42112   0.02625   0.07678   0.00000  Uiso   1.00
H4247  H     0.35728   0.01143   0.07795   0.00000  Uiso   1.00
C5248  C     0.36467   0.05535   0.35160   0.00000  Uiso   1.00
H4449  H     0.34563   0.08369   0.41722   0.00000  Uiso   1.00
H4650  H     0.38557   0.02459   0.40449   0.00000  Uiso   1.00
C5451  C     0.35375   0.10395   0.18131   0.00000  Uiso   1.00
H4852  H     0.36369   0.10857   0.08739   0.00000  Uiso   1.00
C5653  C     0.31518   0.09407   0.18827   0.00000  Uiso   1.00
H5054  H     0.30030   0.09397   0.09854   0.00000  Uiso   1.00
H5255  H     0.41722   0.07146   0.29047   0.00000  Uiso   1.00
H5456  H     0.31031   0.04139   0.30010   0.00000  Uiso   1.00
C5857  C     0.32400   0.14761   0.24876   0.00000  Uiso   1.00
C6058  C     0.31519   0.19073   0.21443   0.00000  Uiso   1.00
C6259  C     0.26944   0.22564   0.20738   0.00000  Uiso   1.00
C6460  C     0.23505   0.21503   0.22666   0.00000  Uiso   1.00
C6661  C     0.24492   0.17063   0.24573   0.00000  Uiso   1.00
C6862  C     0.28933   0.13758   0.25959   0.00000  Uiso   1.00
H5663  H     0.20053   0.24049   0.21262   0.00000  Uiso   1.00
H5864  H     0.21892   0.16171   0.24029   0.00000  Uiso   1.00
C7065  C     0.48038   0.94471   0.18966   0.00000  Uiso   1.00
C7266  C     0.43685   0.97713   0.22298   0.00000  Uiso   1.00
C7467  C     0.40186   0.96748   0.22046   0.00000  Uiso   1.00
C7668  C     0.40931   0.92539   0.17889   0.00000  Uiso   1.00
C7869  C     0.45427   0.89066   0.15553   0.00000  Uiso   1.00
C8070  C     0.48937   0.90091   0.16225   0.00000  Uiso   1.00
H6071  H     0.50607   0.95384   0.17664   0.00000  Uiso   1.00
H6272  H     0.52315   0.87615   0.13433   0.00000  Uiso   1.00
C8273  C     0.36954   0.91999   0.15080   0.00000  Uiso   1.00
H6474  H     0.34901   0.92595   0.23584   0.00000  Uiso   1.00
H6675  H     0.34865   0.94484   0.08126   0.00000  Uiso   1.00
H6876  H     0.37929   0.88601   0.11392   0.00000  Uiso   1.00
C8477  C     0.35374   0.19694   0.17312   0.00000  Uiso   1.00
H7078  H     0.38582   0.16441   0.17124   0.00000  Uiso   1.00
H7279  H     0.34839   0.21072   0.07915   0.00000  Uiso   1.00
H7480  H     0.35787   0.21951   0.23812   0.00000  Uiso   1.00
C8681  C     0.36758   0.51462   0.23712   0.00000  Uiso   1.00
C8882  C     0.40275   0.51798   0.31760   0.00000  Uiso   1.00
C9083  C     0.34520   0.58828   0.32234   0.00000  Uiso   1.00
C9284  C     0.32782   0.56281   0.24254   0.00000  Uiso   1.00
H7685  H     0.37944   0.49964   0.14393   0.00000  Uiso   1.00
H7886  H     0.31403   0.57790   0.15240   0.00000  Uiso   1.00
C9487  C     0.37377   0.55292   0.41472   0.00000  Uiso   1.00
H8088  H     0.39269   0.56337   0.47484   0.00000  Uiso   1.00
H8289  H     0.35451   0.54223   0.47428   0.00000  Uiso   1.00
C9690  C     0.42049   0.54381   0.23937   0.00000  Uiso   1.00
H8491  H     0.43468   0.52913   0.14712   0.00000  Uiso   1.00
C9892  C     0.38064   0.59200   0.24044   0.00000  Uiso   1.00
H8693  H     0.36925   0.60732   0.14911   0.00000  Uiso   1.00
H8894  H     0.42920   0.48539   0.35363   0.00000  Uiso   1.00
H9095  H     0.31859   0.62069   0.36279   0.00000  Uiso   1.00
C10096 C     0.44602   0.56247   0.30472   0.00000  Uiso   1.00
C10297 C     0.49006   0.55324   0.28953   0.00000  Uiso   1.00
C10498 C     0.49768   0.59009   0.28631   0.00000  Uiso   1.00
C10699 C     0.46125   0.63503   0.27396   0.00000  Uiso   1.00
C108100 C     0.41699   0.64236   0.27798   0.00000  Uiso   1.00
C110101 C     0.41014   0.60633   0.30290   0.00000  Uiso   1.00
H92102 H     0.53194   0.58314   0.28641   0.00000  Uiso   1.00
H94103 H     0.38874   0.67502   0.25752   0.00000  Uiso   1.00
C112104 C     0.33054   0.46462   0.26747   0.00000  Uiso   1.00
C114105 C     0.33762   0.50008   0.29905   0.00000  Uiso   1.00
C116106 C     0.30186   0.54408   0.30729   0.00000  Uiso   1.00
C118107 C     0.25782   0.55383   0.29302   0.00000  Uiso   1.00
C120108 C     0.24987   0.51742   0.28032   0.00000  Uiso   1.00
C122109 C     0.28622   0.47249   0.26100   0.00000  Uiso   1.00
H96110 H     0.35874   0.43215   0.24105   0.00000  Uiso   1.00
H98111 H     0.21545   0.52498   0.27813   0.00000  Uiso   1.00
C124112 C     0.22051   0.60179   0.28957   0.00000  Uiso   1.00
C61113 C     0.26944   0.22564   0.70738   0.00000  Uiso   1.00
C63114 C     0.23505   0.21503   0.72666   0.00000  Uiso   1.00
C65115 C     0.24492   0.17063   0.74573   0.00000  Uiso   1.00
C67116 C     0.28933   0.13758   0.75959   0.00000  Uiso   1.00
H55117 H     0.20053   0.24049   0.71262   0.00000  Uiso   1.00
H57118 H     0.21892   0.16171   0.74029   0.00000  Uiso   1.00
C69119 C     0.48038   0.94471   0.68966   0.00000  Uiso   1.00
C71120 C     0.43685   0.97713   0.72298   0.00000  Uiso   1.00
C73121 C     0.40186   0.96748   0.72046   0.00000  Uiso   1.00
C75122 C     0.40931   0.92539   0.67889   0.00000  Uiso   1.00
C77123 C     0.45427   0.89066   0.65553   0.00000  Uiso   1.00
C79124 C     0.48937   0.90091   0.66225   0.00000  Uiso   1.00
H59125 H     0.50607   0.95384   0.67664   0.00000  Uiso   1.00
H61126 H     0.52315   0.87615   0.63433   0.00000  Uiso   1.00
C81127 C     0.36954   0.91999   0.65080   0.00000  Uiso   1.00
H63128 H     0.34901   0.92595   0.73584   0.00000  Uiso   1.00
H65129 H     0.34865   0.94484   0.58126   0.00000  Uiso   1.00
H67130 H     0.37929   0.88601   0.61392   0.00000  Uiso   1.00
C83131 C     0.35374   0.19694   0.67312   0.00000  Uiso   1.00
H69132 H     0.38582   0.16441   0.67124   0.00000  Uiso   1.00
H71133 H     0.34839   0.21072   0.57915   0.00000  Uiso   1.00
H73134 H     0.35787   0.21951   0.73812   0.00000  Uiso   1.00
C85135 C     0.36758   0.51462   0.73712   0.00000  Uiso   1.00
C87136 C     0.40275   0.51798   0.81760   0.00000  Uiso   1.00
C89137 C     0.34520   0.58828   0.82234   0.00000  Uiso   1.00
C91138 C     0.32782   0.56281   0.74254   0.00000  Uiso   1.00
H75139 H     0.37944   0.49964   0.64393   0.00000  Uiso   1.00
H77140 H     0.31403   0.57790   0.65240   0.00000  Uiso   1.00
C93141 C     0.37377   0.55292   0.91472   0.00000  Uiso   1.00
H79142 H     0.39269   0.56337   0.97484   0.00000  Uiso   1.00
H81143 H     0.35451   0.54223   0.97428   0.00000  Uiso   1.00
C95144 C     0.42049   0.54381   0.73937   0.00000  Uiso   1.00
H83145 H     0.43468   0.52913   0.64712   0.00000  Uiso   1.00
C97146 C     0.38064   0.59200   0.74044   0.00000  Uiso   1.00
H85147 H     0.36925   0.60732   0.64911   0.00000  Uiso   1.00
H87148 H     0.42920   0.48539   0.85363   0.00000  Uiso   1.00
H89149 H     0.31859   0.62069   0.86279   0.00000  Uiso   1.00
C99150 C     0.44602   0.56247   0.80472   0.00000  Uiso   1.00
C101151 C     0.49006   0.55324   0.78953   0.00000  Uiso   1.00
C103152 C     0.49768   0.59009   0.78631   0.00000  Uiso   1.00
C105153 C     0.46125   0.63503   0.77396   0.00000  Uiso   1.00
C107154 C     0.41699   0.64236   0.77798   0.00000  Uiso   1.00
C109155 C     0.41014   0.60633   0.80290   0.00000  Uiso   1.00
H91156 H     0.53194   0.58314   0.78641   0.00000  Uiso   1.00
H93157 H     0.38874   0.67502   0.75752   0.00000  Uiso   1.00
C111158 C     0.33054   0.46462   0.76747   0.00000  Uiso   1.00
C113159 C     0.33762   0.50008   0.79905   0.00000  Uiso   1.00
C115160 C     0.30186   0.54408   0.80729   0.00000  Uiso   1.00
C117161 C     0.25782   0.55383   0.79302   0.00000  Uiso   1.00
C119162 C     0.24987   0.51742   0.78032   0.00000  Uiso   1.00
C121163 C     0.28622   0.47249   0.76100   0.00000  Uiso   1.00
H95164 H     0.35874   0.43215   0.74105   0.00000  Uiso   1.00
H97165 H     0.21545   0.52498   0.77813   0.00000  Uiso   1.00
C123166 C     0.22051   0.60179   0.78957   0.00000  Uiso   1.00
H99167 H     0.21953   0.61947   0.87629   0.00000  Uiso   1.00
H101168 H     0.22613   0.61911   0.71118   0.00000  Uiso   1.00
H103169 H     0.18753   0.60379   0.77885   0.00000  Uiso   1.00
C125170 C     0.52769   0.50558   0.77615   0.00000  Uiso   1.00
H105171 H     0.52862   0.48644   0.85901   0.00000  Uiso   1.00
H107172 H     0.52251   0.48941   0.69424   0.00000  Uiso   1.00
H109173 H     0.56052   0.50413   0.76496   0.00000  Uiso   1.00
C127174 C     0.24532   0.37485   0.78407   0.00000  Uiso   1.00
C129175 C     0.21758   0.42019   0.72987   0.00000  Uiso   1.00
C131176 C     0.17065   0.43367   0.69685   0.00000  Uiso   1.00
C133177 C     0.15216   0.40349   0.72742   0.00000  Uiso   1.00
C135178 C     0.18475   0.35485   0.74558   0.00000  Uiso   1.00
C137179 C     0.23320   0.33973   0.75808   0.00000  Uiso   1.00
O1180  O     0.17172   0.32755   0.75202   0.00000  Uiso   1.00
O3181  O     0.27842   0.36594   0.84373   0.00000  Uiso   1.00
O5182  O     0.14752   0.46926   0.64481   0.00000  Uiso   1.00
C139183 C     0.10758   0.41911   0.74036   0.00000  Uiso   1.00
H111184 H     0.09602   0.39636   0.77150   0.00000  Uiso   1.00
C141185 C     0.26581   0.29738   0.72905   0.00000  Uiso   1.00
H113186 H     0.30037   0.28909   0.73857   0.00000  Uiso   1.00
C143187 C     0.23478   0.44694   0.70018   0.00000  Uiso   1.00
H115188 H     0.21505   0.47638   0.64466   0.00000  Uiso   1.00
N2189  N     0.07514   0.46566   0.71935   0.00000  Uiso   1.00
H117190 H     0.07289   0.48340   0.80020   0.00000  Uiso   1.00
N4191  N     0.28031   0.43475   0.72647   0.00000  Uiso   1.00
H119192 H     0.29847   0.42117   0.64434   0.00000  Uiso   1.00
N6193  N     0.25646   0.26860   0.65348   0.00000  Uiso   1.00
H121194 H     0.27285   0.26370   0.56838   0.00000  Uiso   1.00
C145195 C     0.54847   0.76371   0.65751   0.00000  Uiso   1.00
C147196 C     0.50312   0.77560   0.70556   0.00000  Uiso   1.00
C149197 C     0.49801   0.73884   0.76069   0.00000  Uiso   1.00
C151198 C     0.52617   0.69220   0.71059   0.00000  Uiso   1.00
C153199 C     0.57021   0.68021   0.65132   0.00000  Uiso   1.00
C155200 C     0.58239   0.71590   0.62751   0.00000  Uiso   1.00
O7201  O     0.59632   0.64091   0.62256   0.00000  Uiso   1.00
O9202  O     0.55889   0.79294   0.64968   0.00000  Uiso   1.00
O11203 O     0.47009   0.74710   0.84253   0.00000  Uiso   1.00
C157204 C     0.51114   0.66240   0.70717   0.00000  Uiso   1.00
H123205 H     0.53025   0.63177   0.65238   0.00000  Uiso   1.00
C159206 C     0.62278   0.70634   0.57914   0.00000  Uiso   1.00
H125207 H     0.62959   0.73353   0.55940   0.00000  Uiso   1.00
C161208 C     0.46639   0.81690   0.69301   0.00000  Uiso   1.00
H127209 H     0.43507   0.82331   0.73657   0.00000  Uiso   1.00
N8210  N     0.46740   0.67362   0.75547   0.00000  Uiso   1.00
H129211 H     0.44495   0.69359   0.68845   0.00000  Uiso   1.00
N10212 N     0.46316   0.84855   0.60099   0.00000  Uiso   1.00
H131213 H     0.49052   0.83571   0.53955   0.00000  Uiso   1.00
N12214 N     0.65752   0.66105   0.55009   0.00000  Uiso   1.00
C27215 C    -0.00728   0.50789   0.74614   0.00000  Uiso   1.00
C33216 C    -0.01546   0.45173   0.56850   0.00000  Uiso   1.00
C35217 C     1.02713   0.44408   0.60196   0.00000  Uiso   1.00
C37218 C     1.03170   0.47119   0.69335   0.00000  Uiso   1.00
C43219 C     0.40881   1.02285   0.66874   0.00000  Uiso   1.00
C49220 C     0.37014   1.01295   0.66950   0.00000  Uiso   1.00
H100223 H     0.21953   0.61947   0.37629   0.00000  Uiso   1.00
H102224 H     0.22613   0.61911   0.21118   0.00000  Uiso   1.00
H104225 H     0.18753   0.60379   0.27885   0.00000  Uiso   1.00
C126226 C     0.52769   0.50558   0.27615   0.00000  Uiso   1.00
H106227 H     0.52862   0.48644   0.35901   0.00000  Uiso   1.00
H108228 H     0.52251   0.48941   0.19424   0.00000  Uiso   1.00
H110229 H     0.56052   0.50413   0.26496   0.00000  Uiso   1.00
C128230 C     0.24532   0.37485   0.28407   0.00000  Uiso   1.00
C130231 C     0.21758   0.42019   0.22987   0.00000  Uiso   1.00
C132232 C     0.17065   0.43367   0.19685   0.00000  Uiso   1.00
C134233 C     0.15216   0.40349   0.22742   0.00000  Uiso   1.00
C136234 C     0.18475   0.35485   0.24558   0.00000  Uiso   1.00
C138235 C     0.23320   0.33973   0.25808   0.00000  Uiso   1.00
O2236  O     0.17172   0.32755   0.25202   0.00000  Uiso   1.00
O4237  O     0.27842   0.36594   0.34373   0.00000  Uiso   1.00
O6238  O     0.14752   0.46926   0.14481   0.00000  Uiso   1.00
C140239 C     0.10758   0.41911   0.24036   0.00000  Uiso   1.00
H112240 H     0.09602   0.39636   0.27150   0.00000  Uiso   1.00
C142241 C     0.26581   0.29738   0.22905   0.00000  Uiso   1.00
H114242 H     0.30037   0.28909   0.23857   0.00000  Uiso   1.00
C144243 C     0.23478   0.44694   0.20018   0.00000  Uiso   1.00
H116244 H     0.21505   0.47638   0.14466   0.00000  Uiso   1.00
N3245  N     0.07514   0.46566   0.21935   0.00000  Uiso   1.00
H118246 H     0.07289   0.48340   0.30020   0.00000  Uiso   1.00
N5247  N     0.28031   0.43475   0.22647   0.00000  Uiso   1.00
H120248 H     0.29847   0.42117   0.14434   0.00000  Uiso   1.00
N7249  N     0.25646   0.26860   0.15348   0.00000  Uiso   1.00
H122250 H     0.27285   0.26370   0.06838   0.00000  Uiso   1.00
C146251 C     0.54847   0.76371   0.15751   0.00000  Uiso   1.00
C148252 C     0.50312   0.77560   0.20556   0.00000  Uiso   1.00
C150253 C     0.49801   0.73884   0.26069   0.00000  Uiso   1.00
C152254 C     0.52617   0.69220   0.21059   0.00000  Uiso   1.00
C154255 C     0.57021   0.68021   0.15132   0.00000  Uiso   1.00
C156256 C     0.58239   0.71590   0.12751   0.00000  Uiso   1.00
O8257  O     0.59632   0.64091   0.12256   0.00000  Uiso   1.00
O10258 O     0.55889   0.79294   0.14968   0.00000  Uiso   1.00
O12259 O     0.47009   0.74710   0.34253   0.00000  Uiso   1.00
C158260 C     0.51114   0.66240   0.20717   0.00000  Uiso   1.00
H124261 H     0.53025   0.63177   0.15238   0.00000  Uiso   1.00
C160262 C     0.62278   0.70634   0.07914   0.00000  Uiso   1.00
H126263 H     0.62959   0.73353   0.05940   0.00000  Uiso   1.00
C162264 C     0.46639   0.81690   0.19301   0.00000  Uiso   1.00
H128265 H     0.43507   0.82331   0.23657   0.00000  Uiso   1.00
N9266  N     0.46740   0.67362   0.25547   0.00000  Uiso   1.00
H130267 H     0.44495   0.69359   0.18845   0.00000  Uiso   1.00
N11268 N     0.46316   0.84855   0.10099   0.00000  Uiso   1.00
H132269 H     0.49052   0.83571   0.03955   0.00000  Uiso   1.00
H1278  H     0.66486   0.66059   0.45636   0.00000  Uiso   1.00
C1279  C     0.90940   0.55369   0.67845   0.00000  Uiso   1.00
C3280  C     0.86688   0.57055   0.76177   0.00000  Uiso   1.00
C5281  C     0.85955   0.52602   0.62587   0.00000  Uiso   1.00
C7282  C     0.90454   0.52301   0.58540   0.00000  Uiso   1.00
H3283  H     0.91520   0.58013   0.63757   0.00000  Uiso   1.00
H5284  H     0.90770   0.53057   0.48836   0.00000  Uiso   1.00
C9285  C     0.86002   0.52981   0.76504   0.00000  Uiso   1.00
H7286  H     0.82834   0.53628   0.81175   0.00000  Uiso   1.00
H9287  H     0.88753   0.49963   0.80822   0.00000  Uiso   1.00
C11288 C     0.82715   0.60442   0.68414   0.00000  Uiso   1.00
H11289 H     0.83022   0.63267   0.64425   0.00000  Uiso   1.00
C13290 C     0.82234   0.57403   0.59004   0.00000  Uiso   1.00
H13291 H     0.82240   0.58375   0.49348   0.00000  Uiso   1.00
H15292 H     0.86930   0.58472   0.85092   0.00000  Uiso   1.00
H17293 H     0.85484   0.49818   0.59075   0.00000  Uiso   1.00
C15294 C     0.78068   0.61752   0.73036   0.00000  Uiso   1.00
C17295 C     0.74498   0.65990   0.76289   0.00000  Uiso   1.00
C19296 C     0.70297   0.67333   0.71109   0.00000  Uiso   1.00
C21297 C     0.69856   0.64701   0.61580   0.00000  Uiso   1.00
C23298 C     0.73643   0.60584   0.57947   0.00000  Uiso   1.00
C25299 C     0.77617   0.59042   0.64236   0.00000  Uiso   1.00
H19300 H     0.67474   0.70521   0.74097   0.00000  Uiso   1.00
H21301 H     0.73560   0.58756   0.49909   0.00000  Uiso   1.00
C29303 C     0.95115   0.51275   0.71939   0.00000  Uiso   1.00
C31304 C     0.94705   0.48465   0.63373   0.00000  Uiso   1.00
H23308 H     0.99458   0.53330   0.80126   0.00000  Uiso   1.00
H25309 H     0.05670   0.41829   0.55376   0.00000  Uiso   1.00
C39310 C     0.97922   0.42598   0.46475   0.00000  Uiso   1.00
H27311 H     0.96261   0.40736   0.49934   0.00000  Uiso   1.00
H29312 H     0.95831   0.44954   0.39325   0.00000  Uiso   1.00
H31313 H     1.01212   0.40141   0.42219   0.00000  Uiso   1.00
C41314 C     0.75175   0.68980   0.85058   0.00000  Uiso   1.00
H33315 H     0.76360   0.67241   0.93927   0.00000  Uiso   1.00
H35316 H     0.77722   0.69751   0.81207   0.00000  Uiso   1.00
H37317 H     0.72012   0.72203   0.86828   0.00000  Uiso   1.00
C45319 C     0.39105   0.06474   0.75476   0.00000  Uiso   1.00
C47320 C     0.33533   0.04941   0.75983   0.00000  Uiso   1.00
H39322 H     0.42112   0.02625   0.57678   0.00000  Uiso   1.00
H41323 H     0.35728   0.01143   0.57795   0.00000  Uiso   1.00
C51324 C     0.36467   0.05535   0.85160   0.00000  Uiso   1.00
H43325 H     0.34563   0.08369   0.91722   0.00000  Uiso   1.00
H45326 H     0.38557   0.02459   0.90449   0.00000  Uiso   1.00
C53327 C     0.35375   0.10395   0.68131   0.00000  Uiso   1.00
H47328 H     0.36369   0.10857   0.58739   0.00000  Uiso   1.00
C55329 C     0.31518   0.09407   0.68827   0.00000  Uiso   1.00
H49330 H     0.30030   0.09397   0.59854   0.00000  Uiso   1.00
H51331 H     0.41722   0.07146   0.79047   0.00000  Uiso   1.00
H53332 H     0.31031   0.04139   0.80010   0.00000  Uiso   1.00
C57333 C     0.32400   0.14761   0.74876   0.00000  Uiso   1.00
C59334 C     0.31519   0.19073   0.71443   0.00000  Uiso   1.00
loop_
_geom_bond_atom_site_label_1
_geom_bond_atom_site_label_2
_geom_bond_distance
_geom_bond_site_symmetry_2
_ccdc_geom_bond_type
N11    H22     1.046   .     S
N11    C2221   1.452   .     S
N11    C160262  1.438   .     S
C23    C44     1.553   .     S
C23    C86     1.524   .     S
C23    H47     1.112   .     S
C23    C3027   1.501   .     S
C44    C109    1.525   .     S
C44    C1212   1.551   .     S
C44    H1616   1.105   .     S
C65    C86     1.559   .     S
C65    C109    1.521   .     S
C65    C1414   1.556   .     S
C65    H1817   1.109   .     S
C86    H68     1.106   .     S
C86    C3228   1.505   .     S
C109   H810    1.114   .     S
C109   H1011   1.110   .     S
C1212  H1213   1.113   .     S
C1212  C1414   1.524   .     S
C1212  C1618   1.509   .     S
C1414  H1415   1.105   .     S
C1414  C2623   1.500   .     S
C1618  C1819   1.394   .     D
C1618  C2623   1.393   .     S
C1819  C2020   1.413   .     S
C1819  C4238   1.499   .     S
C2020  C2221   1.429   .     D
C2020  H2024   1.082   .     S
C2221  C2422   1.410   .     S
C2422  C2623   1.394   .     D
C2422  H2225   1.082   .     S
C2826  C3027   1.395   .     D
C2826  H2432   1.082   .     S
C2826  C3831   1.413   1_655 S
C3027  C3228   1.394   .     S
C3228  C3429   1.398   .     D
C3429  C4034   1.497   .     S
C3429  C3630   1.413   1_655 S
C3630  C3831   1.419   .     D
C3630  H2633   1.084   .     S
C3630  C3429   1.413   1_455 S
C3831  N3245   1.447   .     S
C3831  C2826   1.413   1_455 S
C4034  H2835   1.111   .     S
C4034  H3036   1.106   .     S
C4034  H3237   1.112   .     S
C4238  H3439   1.110   .     S
C4238  H3640   1.112   .     S
C4238  H3841   1.111   .     S
C4442  C4643   1.548   .     S
C4442  C5045   1.531   .     S
C4442  H4046   1.110   .     S
C4442  C7266   1.501   1_545 S
C4643  C5248   1.518   .     S
C4643  C5451   1.556   .     S
C4643  H5255   1.112   .     S
C4844  C5045   1.555   .     S
C4844  C5248   1.517   .     S
C4844  C5653   1.548   .     S
C4844  H5456   1.112   .     S
C5045  H4247   1.109   .     S
C5045  C7467   1.503   1_545 S
C5248  H4449   1.106   .     S
C5248  H4650   1.106   .     S
C5451  H4852   1.110   .     S
C5451  C5653   1.528   .     S
C5451  C5857   1.502   .     S
C5653  H5054   1.112   .     S
C5653  C6862   1.501   .     S
C5857  C6058   1.403   .     S
C5857  C6862   1.402   .     D
C6058  C6259   1.432   .     D
C6058  C8477   1.509   .     S
C6259  C6460   1.415   .     S
C6259  N7249   1.438   .     S
C6460  C6661   1.398   .     D
C6460  H5663   1.084   .     S
C6661  C6862   1.390   .     S
C6661  H5864   1.084   .     S
C7065  C7266   1.391   .     S
C7065  C8070   1.399   .     D
C7065  H6071   1.084   .     S
C7266  C7467   1.401   .     D
C7266  C4442   1.501   1_565 S
C7467  C7668   1.401   .     S
C7467  C5045   1.503   1_565 S
C7668  C7869   1.424   .     D
C7668  C8273   1.508   .     S
C7869  C8070   1.421   .     S
C7869  N11268  1.437   .     S
C8070  H6272   1.081   .     S
C8273  H6474   1.110   .     S
C8273  H6675   1.109   .     S
C8273  H6876   1.107   .     S
C8477  H7078   1.111   .     S
C8477  H7279   1.108   .     S
C8477  H7480   1.106   .     S
C8681  C8882   1.558   .     S
C8681  C9284   1.531   .     S
C8681  H7685   1.109   .     S
C8681  C114105  1.504   .     S
C8882  C9487   1.518   .     S
C8882  C9690   1.552   .     S
C8882  H8894   1.110   .     S
C9083  C9284   1.550   .     S
C9083  C9487   1.519   .     S
C9083  C9892   1.557   .     S
C9083  H9095   1.110   .     S
C9284  H7886   1.111   .     S
C9284  C116106  1.504   .     S
C9487  H8088   1.107   .     S
C9487  H8289   1.107   .     S
C9690  H8491   1.111   .     S
C9690  C9892   1.532   .     S
C9690  C10096  1.505   .     S
C9892  H8693   1.110   .     S
C9892  C110101  1.501   .     S
C10096 C10297  1.396   .     D
C10096 C110101  1.391   .     S
C10297 C10498  1.410   .     S
C10297 C126226  1.499   .     S
C10498 C10699  1.429   .     D
C10498 H92102  1.083   .     S
C10699 C108100  1.418   .     S
C10699 N9266   1.451   .     S
C108100 C110101  1.392   .     D
C108100 H94103  1.083   .     S
C112104 C114105  1.393   .     S
C112104 C122109  1.417   .     D
C112104 H96110  1.083   .     S
C114105 C116106  1.393   .     D
C116106 C118107  1.395   .     S
C118107 C120108  1.408   .     D
C118107 C124112  1.499   .     S
C120108 C122109  1.430   .     S
C120108 H98111  1.083   .     S
C122109 N5247   1.451   .     S
C124112 H100223  1.109   .     S
C124112 H102224  1.110   .     S
C124112 H104225  1.113   .     S
C61113 C63114  1.415   .     D
C61113 N6193   1.438   .     S
C61113 C59334  1.432   .     S
C63114 C65115  1.398   .     S
C63114 H55117  1.084   .     S
C65115 C67116  1.390   .     D
C65115 H57118  1.084   .     S
C67116 C55329  1.501   .     S
C67116 C57333  1.402   .     S
C69119 C71120  1.391   .     S
C69119 C79124  1.399   .     D
C69119 H59125  1.084   .     S
C71120 C73121  1.401   .     D
C71120 C43219  1.501   .     S
C73121 C75122  1.401   .     S
C73121 C49220  1.503   .     S
C75122 C77123  1.424   .     D
C75122 C81127  1.508   .     S
C77123 C79124  1.421   .     S
C77123 N10212  1.437   .     S
C79124 H61126  1.081   .     S
C81127 H63128  1.110   .     S
C81127 H65129  1.109   .     S
C81127 H67130  1.107   .     S
C83131 H69132  1.111   .     S
C83131 H71133  1.108   .     S
C83131 H73134  1.106   .     S
C83131 C59334  1.509   .     S
C85135 C87136  1.558   .     S
C85135 C91138  1.531   .     S
C85135 H75139  1.109   .     S
C85135 C113159  1.504   .     S
C87136 C93141  1.518   .     S
C87136 C95144  1.552   .     S
C87136 H87148  1.110   .     S
C89137 C91138  1.550   .     S
C89137 C93141  1.519   .     S
C89137 C97146  1.557   .     S
C89137 H89149  1.110   .     S
C91138 H77140  1.111   .     S
C91138 C115160  1.504   .     S
C93141 H79142  1.107   .     S
C93141 H81143  1.107   .     S
C95144 H83145  1.111   .     S
C95144 C97146  1.532   .     S
C95144 C99150  1.505   .     S
C97146 H85147  1.110   .     S
C97146 C109155  1.501   .     S
C99150 C101151  1.396   .     D
C99150 C109155  1.391   .     S
C101151 C103152  1.410   .     S
C101151 C125170  1.499   .     S
C103152 C105153  1.429   .     D
C103152 H91156  1.083   .     S
C105153 C107154  1.418   .     S
C105153 N8210   1.451   .     S
C107154 C109155  1.392   .     D
C107154 H93157  1.083   .     S
C111158 C113159  1.393   .     S
C111158 C121163  1.417   .     D
C111158 H95164  1.083   .     S
C113159 C115160  1.393   .     D
C115160 C117161  1.395   .     S
C117161 C119162  1.408   .     D
C117161 C123166  1.499   .     S
C119162 C121163  1.430   .     S
C119162 H97165  1.083   .     S
C121163 N4191   1.451   .     S
C123166 H99167  1.109   .     S
C123166 H101168  1.110   .     S
C123166 H103169  1.113   .     S
C125170 H105171  1.109   .     S
C125170 H107172  1.110   .     S
C125170 H109173  1.113   .     S
C127174 C129175  1.490   .     S
C127174 C137179  1.482   .     S
C127174 O3181   1.225   .     D
C129175 C131176  1.497   .     S
C129175 C143187  1.353   .     D
C131176 C133177  1.495   .     S
C131176 O5182   1.223   .     D
C133177 C135178  1.489   .     S
C133177 C139183  1.358   .     D
C135178 C137179  1.492   .     S
C135178 O1180   1.223   .     D
C137179 C141185  1.350   .     D
C139183 H111184  1.089   .     S
C139183 N2189   1.441   .     S
C141185 H113186  1.086   .     S
C141185 N6193   1.437   .     S
C143187 H115188  1.087   .     S
C143187 N4191   1.445   .     S
N2189  H117190  1.046   .     S
N2189  C37218  1.447   1_455 S
N4191  H119192  1.046   .     S
N6193  H121194  1.045   .     S
C145195 C147196  1.491   .     S
C145195 C155200  1.491   .     S
C145195 O9202   1.222   .     D
C147196 C149197  1.482   .     S
C147196 C161208  1.358   .     D
C149197 C151198  1.488   .     S
C149197 O11203  1.224   .     D
C151198 C153199  1.495   .     S
C151198 C157204  1.354   .     D
C153199 C155200  1.498   .     S
C153199 O7201   1.223   .     D
C155200 C159206  1.358   .     D
C157204 H123205  1.086   .     S
C157204 N8210   1.447   .     S
C159206 H125207  1.088   .     S
C159206 N12214  1.438   .     S
C161208 H127209  1.089   .     S
C161208 N10212  1.444   .     S
N8210  H129211  1.047   .     S
N10212 H131213  1.046   .     S
N12214 H1278   1.046   .     S
N12214 C21297  1.452   .     S
C27215 C37218  1.413   1_455 S
C27215 C29303  1.395   1_455 D
C27215 H23308  1.082   1_455 S
C33216 C35217  1.413   1_455 S
C33216 C31304  1.398   1_455 D
C33216 C39310  1.497   1_455 S
C35217 C37218  1.419   .     D
C35217 C33216  1.413   1_655 S
C35217 H25309  1.084   1_655 S
C37218 N2189   1.447   1_655 S
C37218 C27215  1.413   1_655 S
C43219 C49220  1.531   .     S
C43219 C45319  1.548   1_565 S
C43219 H39322  1.110   1_565 S
C49220 C47320  1.555   1_565 S
C49220 H41323  1.109   1_565 S
C126226 H106227  1.109   .     S
C126226 H108228  1.110   .     S
C126226 H110229  1.113   .     S
C128230 C130231  1.490   .     S
C128230 C138235  1.482   .     S
C128230 O4237   1.225   .     D
C130231 C132232  1.497   .     S
C130231 C144243  1.353   .     D
C132232 C134233  1.495   .     S
C132232 O6238   1.223   .     D
C134233 C136234  1.489   .     S
C134233 C140239  1.358   .     D
C136234 C138235  1.492   .     S
C136234 O2236   1.223   .     D
C138235 C142241  1.350   .     D
C140239 H112240  1.089   .     S
C140239 N3245   1.441   .     S
C142241 H114242  1.086   .     S
C142241 N7249   1.437   .     S
C144243 H116244  1.087   .     S
C144243 N5247   1.445   .     S
N3245  H118246  1.046   .     S
N5247  H120248  1.046   .     S
N7249  H122250  1.045   .     S
C146251 C148252  1.491   .     S
C146251 C156256  1.491   .     S
C146251 O10258  1.222   .     D
C148252 C150253  1.482   .     S
C148252 C162264  1.358   .     D
C150253 C152254  1.488   .     S
C150253 O12259  1.224   .     D
C152254 C154255  1.495   .     S
C152254 C158260  1.354   .     D
C154255 C156256  1.498   .     S
C154255 O8257   1.223   .     D
C156256 C160262  1.358   .     D
C158260 H124261  1.086   .     S
C158260 N9266   1.447   .     S
C160262 H126263  1.088   .     S
C162264 H128265  1.089   .     S
C162264 N11268  1.444   .     S
N9266  H130267  1.047   .     S
N11268 H132269  1.046   .     S
C1279  C3280   1.553   .     S
C1279  C7282   1.524   .     S
C1279  H3283   1.112   .     S
C1279  C29303  1.501   .     S
C3280  C9285   1.525   .     S
C3280  C11288  1.551   .     S
C3280  H15292  1.105   .     S
C5281  C7282   1.559   .     S
C5281  C9285   1.521   .     S
C5281  C13290  1.556   .     S
C5281  H17293  1.109   .     S
C7282  H5284   1.106   .     S
C7282  C31304  1.505   .     S
C9285  H7286   1.114   .     S
C9285  H9287   1.110   .     S
C11288 H11289  1.113   .     S
C11288 C13290  1.524   .     S
C11288 C15294  1.509   .     S
C13290 H13291  1.105   .     S
C13290 C25299  1.500   .     S
C15294 C17295  1.394   .     S
C15294 C25299  1.393   .     D
C17295 C19296  1.413   .     D
C17295 C41314  1.499   .     S
C19296 C21297  1.429   .     S
C19296 H19300  1.082   .     S
C21297 C23298  1.410   .     D
C23298 C25299  1.394   .     S
C23298 H21301  1.082   .     S
C29303 C31304  1.394   .     S
C29303 C27215  1.395   1_655 D
C31304 C33216  1.398   1_655 D
H23308 C27215  1.082   1_655 S
H25309 C35217  1.084   1_455 S
C39310 H27311  1.111   .     S
C39310 H29312  1.106   .     S
C39310 H31313  1.112   .     S
C39310 C33216  1.497   1_655 S
C41314 H33315  1.110   .     S
C41314 H35316  1.112   .     S
C41314 H37317  1.111   .     S
C45319 C51324  1.518   .     S
C45319 C53327  1.556   .     S
C45319 H51331  1.112   .     S
C45319 C43219  1.548   1_545 S
C47320 C51324  1.517   .     S
C47320 C55329  1.548   .     S
C47320 H53332  1.112   .     S
C47320 C49220  1.555   1_545 S
H39322 C43219  1.110   1_545 S
H41323 C49220  1.109   1_545 S
C51324 H43325  1.106   .     S
C51324 H45326  1.106   .     S
C53327 H47328  1.110   .     S
C53327 C55329  1.528   .     S
C53327 C57333  1.502   .     S
C55329 H49330  1.112   .     S
C57333 C59334  1.403   .     D
