data_1145
_audit_creation_date              2023-09-08
_audit_creation_method            'Materials Studio'
_symmetry_space_group_name_H-M    'P1'
_symmetry_Int_Tables_number       1
_symmetry_cell_setting            triclinic
loop_
_symmetry_equiv_pos_as_xyz
  x,y,z
_cell_length_a                    34.1200
_cell_length_b                    33.6400
_cell_length_c                    9.1600
_cell_angle_alpha                 91.1100
_cell_angle_beta                  89.0000
_cell_angle_gamma                 60.9800
loop_
_atom_site_label
_atom_site_type_symbol
_atom_site_fract_x
_atom_site_fract_y
_atom_site_fract_z
_atom_site_U_iso_or_equiv
_atom_site_adp_type
_atom_site_occupancy
N11    N     0.00660   0.98948  -0.00466   0.00000  Uiso   1.00
H22    H     0.01392   0.98647  -0.11701   0.00000  Uiso   1.00
C23    C     0.25744   0.88638   0.18631   0.00000  Uiso   1.00
C44    C     0.21323   0.89774   0.27061   0.00000  Uiso   1.00
C65    C     0.21072   0.86017   0.07149   0.00000  Uiso   1.00
C86    C     0.25568   0.86087   0.04911   0.00000  Uiso   1.00
H47    H     0.26327   0.91558   0.16516   0.00000  Uiso   1.00
H68    H     0.25992   0.87496  -0.05522   0.00000  Uiso   1.00
C109   C     0.20778   0.85628   0.23619   0.00000  Uiso   1.00
H810   H     0.17537   0.85963   0.27670   0.00000  Uiso   1.00
H1011  H     0.23484   0.82409   0.27863   0.00000  Uiso   1.00
C1212  C     0.17548   0.93556   0.18252   0.00000  Uiso   1.00
H1213  H     0.17927   0.96590   0.15979   0.00000  Uiso   1.00
C1414  C     0.17348   0.90969   0.04619   0.00000  Uiso   1.00
H1415  H     0.17576   0.92447  -0.05915   0.00000  Uiso   1.00
H1616  H     0.21266   0.90620   0.38866   0.00000  Uiso   1.00
H1817  H     0.20798   0.83371   0.00522   0.00000  Uiso   1.00
C1618  C     0.12824   0.94617   0.21869   0.00000  Uiso   1.00
C1819  C     0.09116   0.98673   0.26728   0.00000  Uiso   1.00
C2020  C     0.04986   0.99957   0.20087   0.00000  Uiso   1.00
C2221  C     0.04781   0.97623   0.07171   0.00000  Uiso   1.00
C2422  C     0.08763   0.93861   0.01525   0.00000  Uiso   1.00
C2623  C     0.12647   0.92250   0.09509   0.00000  Uiso   1.00
H2024  H     0.02019   1.02909   0.24508   0.00000  Uiso   1.00
H2225  H     0.08850   0.92293  -0.08989   0.00000  Uiso   1.00
C2826  C     0.33905   0.83889   0.27497   0.00000  Uiso   1.00
C3027  C     0.29886   0.84366   0.22425   0.00000  Uiso   1.00
C3228  C     0.29771   0.82037   0.09804   0.00000  Uiso   1.00
C3429  C     0.33701   0.79230   0.01679   0.00000  Uiso   1.00
C3630  C     0.37830   0.78406   0.07437   0.00000  Uiso   1.00
C3831  C     0.37972   0.80667   0.20513   0.00000  Uiso   1.00
H2432  H     0.33858   0.86183   0.36035   0.00000  Uiso   1.00
H2633  H     0.40920   0.76203   0.01392   0.00000  Uiso   1.00
C4034  C     0.33470   0.77302  -0.12970   0.00000  Uiso   1.00
H2835  H     0.31838   0.75161  -0.11719   0.00000  Uiso   1.00
H3036  H     0.31478   0.80101  -0.20394   0.00000  Uiso   1.00
H3237  H     0.36863   0.75175  -0.18035   0.00000  Uiso   1.00
C4238  C     0.09584   1.01596   0.38369   0.00000  Uiso   1.00
H3439  H     0.10773   0.99655   0.48499   0.00000  Uiso   1.00
H3640  H     0.12055   1.02641   0.34650   0.00000  Uiso   1.00
H3841  H     0.06341   1.04711   0.40889   0.00000  Uiso   1.00
C4442  C     0.75527   0.35920   0.13147   0.00000  Uiso   1.00
C4643  C     0.73935   0.40280   0.22824   0.00000  Uiso   1.00
C4844  C     0.68451   0.38587   0.26221   0.00000  Uiso   1.00
C5045  C     0.71710   0.34819   0.15059   0.00000  Uiso   1.00
H4046  H     0.76451   0.36130   0.01583   0.00000  Uiso   1.00
H4247  H     0.70227   0.34523   0.04638   0.00000  Uiso   1.00
C5248  C     0.71604   0.39424   0.35736   0.00000  Uiso   1.00
H4449  H     0.69875   0.42385   0.43515   0.00000  Uiso   1.00
H4650  H     0.73853   0.36450   0.42210   0.00000  Uiso   1.00
C5451  C     0.69975   0.44045   0.14520   0.00000  Uiso   1.00
H4852  H     0.70643   0.44346   0.02765   0.00000  Uiso   1.00
C5653  C     0.66173   0.42979   0.17362   0.00000  Uiso   1.00
H5054  H     0.64445   0.42795   0.07383   0.00000  Uiso   1.00
H5255  H     0.76618   0.41097   0.25690   0.00000  Uiso   1.00
H5456  H     0.66091   0.37765   0.32209   0.00000  Uiso   1.00
C5857  C     0.67194   0.48519   0.22535   0.00000  Uiso   1.00
C6058  C     0.66205   0.52841   0.17871   0.00000  Uiso   1.00
C6259  C     0.61619   0.56326   0.18384   0.00000  Uiso   1.00
C6460  C     0.58257   0.55234   0.22590   0.00000  Uiso   1.00
C6661  C     0.59305   0.50750   0.25276   0.00000  Uiso   1.00
C6862  C     0.63785   0.47465   0.25647   0.00000  Uiso   1.00
H5663  H     0.54762   0.57770   0.21993   0.00000  Uiso   1.00
H5864  H     0.56692   0.49813   0.25989   0.00000  Uiso   1.00
C7065  C     0.82837   0.28202   0.15507   0.00000  Uiso   1.00
C7266  C     0.78511   0.31445   0.19833   0.00000  Uiso   1.00
C7467  C     0.75065   0.30345   0.21055   0.00000  Uiso   1.00
C7668  C     0.75815   0.25986   0.17066   0.00000  Uiso   1.00
C7869  C     0.80302   0.22528   0.13975   0.00000  Uiso   1.00
C8070  C     0.83779   0.23687   0.13463   0.00000  Uiso   1.00
H6071  H     0.85345   0.29189   0.12922   0.00000  Uiso   1.00
H6272  H     0.87141   0.21177   0.10019   0.00000  Uiso   1.00
C8273  C     0.71852   0.25237   0.15037   0.00000  Uiso   1.00
H6474  H     0.69813   0.26146   0.25362   0.00000  Uiso   1.00
H6675  H     0.69742   0.27418   0.06274   0.00000  Uiso   1.00
H6876  H     0.72852   0.21663   0.11951   0.00000  Uiso   1.00
C8477  C     0.69923   0.53480   0.11225   0.00000  Uiso   1.00
H7078  H     0.73102   0.50205   0.10152   0.00000  Uiso   1.00
H7279  H     0.69062   0.54868   0.00147   0.00000  Uiso   1.00
H7480  H     0.70596   0.55760   0.18366   0.00000  Uiso   1.00
C8681  C     0.71891   0.85159   0.21498   0.00000  Uiso   1.00
C8882  C     0.75586   0.84965   0.31689   0.00000  Uiso   1.00
C9083  C     0.70093   0.92108   0.34826   0.00000  Uiso   1.00
C9284  C     0.68088   0.90026   0.24047   0.00000  Uiso   1.00
H7685  H     0.72915   0.84135   0.09830   0.00000  Uiso   1.00
H7886  H     0.66700   0.91916   0.13901   0.00000  Uiso   1.00
C9487  C     0.72881   0.88129   0.44495   0.00000  Uiso   1.00
H8088  H     0.74920   0.88825   0.52425   0.00000  Uiso   1.00
H8289  H     0.70895   0.86913   0.50899   0.00000  Uiso   1.00
C9690  C     0.77535   0.87715   0.23966   0.00000  Uiso   1.00
H8491  H     0.78846   0.86610   0.12553   0.00000  Uiso   1.00
C9892  C     0.73706   0.92625   0.25699   0.00000  Uiso   1.00
H8693  H     0.72607   0.94462   0.15311   0.00000  Uiso   1.00
H8894  H     0.78129   0.81491   0.34684   0.00000  Uiso   1.00
H9095  H     0.67576   0.95259   0.40725   0.00000  Uiso   1.00
C10096 C     0.80260   0.89196   0.33013   0.00000  Uiso   1.00
C10297 C     0.84751   0.88102   0.32349   0.00000  Uiso   1.00
C10498 C     0.85735   0.91673   0.34760   0.00000  Uiso   1.00
C10699 C     0.82280   0.96292   0.34536   0.00000  Uiso   1.00
C108100 C     0.77769   0.97254   0.33422   0.00000  Uiso   1.00
C110101 C     0.76839   0.93666   0.34154   0.00000  Uiso   1.00
H92102 H     0.89197   0.90895   0.35510   0.00000  Uiso   1.00
H94103 H     0.75081   1.00669   0.31851   0.00000  Uiso   1.00
C112104 C     0.67794   0.80328   0.21872   0.00000  Uiso   1.00
C114105 C     0.68788   0.83584   0.27647   0.00000  Uiso   1.00
C116106 C     0.65388   0.88020   0.30528   0.00000  Uiso   1.00
C118107 C     0.60894   0.89262   0.29027   0.00000  Uiso   1.00
C120108 C     0.59827   0.85825   0.25363   0.00000  Uiso   1.00
C122109 C     0.63272   0.81363   0.21006   0.00000  Uiso   1.00
H96110 H     0.70458   0.77162   0.17234   0.00000  Uiso   1.00
H98111 H     0.56323   0.86778   0.24922   0.00000  Uiso   1.00
C124112 C     0.57355   0.94141   0.30944   0.00000  Uiso   1.00
H100113 H     0.57716   0.95508   0.41657   0.00000  Uiso   1.00
H102114 H     0.57753   0.96151   0.22152   0.00000  Uiso   1.00
H104115 H     0.53937   0.94527   0.30566   0.00000  Uiso   1.00
C126116 C     0.88347   0.83317   0.29041   0.00000  Uiso   1.00
H106117 H     0.88185   0.81043   0.37362   0.00000  Uiso   1.00
H108118 H     0.87846   0.82193   0.18088   0.00000  Uiso   1.00
H110119 H     0.91727   0.83033   0.29099   0.00000  Uiso   1.00
C128120 C     0.59618   0.71473   0.23234   0.00000  Uiso   1.00
C130121 C     0.56374   0.76206   0.19357   0.00000  Uiso   1.00
C132122 C     0.51507   0.77605   0.19625   0.00000  Uiso   1.00
C134123 C     0.49949   0.74271   0.23267   0.00000  Uiso   1.00
C136124 C     0.53366   0.69364   0.23653   0.00000  Uiso   1.00
C138125 C     0.58239   0.67920   0.22397   0.00000  Uiso   1.00
O2126  O     0.52164   0.66515   0.25313   0.00000  Uiso   1.00
O4127  O     0.63480   0.70434   0.26029   0.00000  Uiso   1.00
O6128  O     0.48787   0.81516   0.16803   0.00000  Uiso   1.00
C140129 C     0.45565   0.75587   0.26121   0.00000  Uiso   1.00
H112130 H     0.44594   0.73090   0.29425   0.00000  Uiso   1.00
C142131 C     0.61364   0.63591   0.18872   0.00000  Uiso   1.00
H114132 H     0.64858   0.62747   0.18403   0.00000  Uiso   1.00
C144133 C     0.57750   0.79110   0.14486   0.00000  Uiso   1.00
H116134 H     0.55327   0.82272   0.09764   0.00000  Uiso   1.00
N3135  N     0.42147   0.80267   0.25376   0.00000  Uiso   1.00
H118136 H     0.41690   0.81677   0.35963   0.00000  Uiso   1.00
N5137  N     0.62397   0.77975   0.14100   0.00000  Uiso   1.00
H120138 H     0.63404   0.77667   0.03095   0.00000  Uiso   1.00
N7139  N     0.60131   0.60594   0.11410   0.00000  Uiso   1.00
H122140 H     0.61492   0.59998   0.00769   0.00000  Uiso   1.00
C146141 C     0.90046   0.09692   0.11946   0.00000  Uiso   1.00
C148142 C     0.85823   0.10892   0.20360   0.00000  Uiso   1.00
C150143 C     0.85670   0.07172   0.28343   0.00000  Uiso   1.00
C152144 C     0.87973   0.02504   0.21490   0.00000  Uiso   1.00
C154145 C     0.91717   0.01427   0.10695   0.00000  Uiso   1.00
C156146 C     0.93221   0.04843   0.07945   0.00000  Uiso   1.00
O8147  O     0.93526  -0.02238   0.04012   0.00000  Uiso   1.00
O10148 O     0.91039   0.12633   0.09145   0.00000  Uiso   1.00
O12149 O     0.83613   0.07975   0.40048   0.00000  Uiso   1.00
C158150 C     0.86657   0.99360   0.24023   0.00000  Uiso   1.00
H124151 H     0.88366   0.96153   0.17818   0.00000  Uiso   1.00
C160152 C     0.97356   0.03636   0.02290   0.00000  Uiso   1.00
H126153 H     0.98300   0.06229   0.00103   0.00000  Uiso   1.00
C162154 C     0.82072   0.15009   0.20044   0.00000  Uiso   1.00
H128155 H     0.79223   0.15619   0.27077   0.00000  Uiso   1.00
N9156  N     0.83349   0.99963   0.35197   0.00000  Uiso   1.00
H130157 H     0.80433   1.02999   0.33203   0.00000  Uiso   1.00
N11158 N     0.81177   0.18143   0.08424   0.00000  Uiso   1.00
H132159 H     0.83619   0.16930   0.00011   0.00000  Uiso   1.00
H1164  H     0.69323   0.64400   0.44179   0.00000  Uiso   1.00
C1165  C     0.93496   0.55018   0.72286   0.00000  Uiso   1.00
C3166  C     0.89236   0.56135   0.81763   0.00000  Uiso   1.00
C5167  C     0.88750   0.52185   0.62778   0.00000  Uiso   1.00
C7168  C     0.93122   0.52349   0.59213   0.00000  Uiso   1.00
H3169  H     0.93955   0.57964   0.69377   0.00000  Uiso   1.00
H5170  H     0.93331   0.53691   0.48384   0.00000  Uiso   1.00
C9171  C     0.88747   0.51914   0.79366   0.00000  Uiso   1.00
H7172  H     0.85606   0.52211   0.84258   0.00000  Uiso   1.00
H9173  H     0.91574   0.48761   0.83515   0.00000  Uiso   1.00
C11174 C     0.85240   0.59799   0.73303   0.00000  Uiso   1.00
H11175 H     0.85478   0.62870   0.70381   0.00000  Uiso   1.00
C13176 C     0.84949   0.57072   0.60239   0.00000  Uiso   1.00
H13177 H     0.84991   0.58492   0.49398   0.00000  Uiso   1.00
H15178 H     0.89364   0.57077   0.93359   0.00000  Uiso   1.00
H17179 H     0.88425   0.49464   0.56790   0.00000  Uiso   1.00
C15180 C     0.80586   0.60759   0.77798   0.00000  Uiso   1.00
C17181 C     0.76854   0.64845   0.82390   0.00000  Uiso   1.00
C19182 C     0.72729   0.66066   0.75788   0.00000  Uiso   1.00
C21183 C     0.72536   0.63583   0.63259   0.00000  Uiso   1.00
C23184 C     0.76480   0.59718   0.58095   0.00000  Uiso   1.00
C25185 C     0.80370   0.58242   0.65877   0.00000  Uiso   1.00
H19186 H     0.69760   0.69082   0.79878   0.00000  Uiso   1.00
H21187 H     0.76564   0.58015   0.47853   0.00000  Uiso   1.00
C27188 C     0.01892   0.50401   0.79247   0.00000  Uiso   1.00
C29189 C     0.97774   0.50804   0.75613   0.00000  Uiso   1.00
C31190 C     0.97422   0.48374   0.63647   0.00000  Uiso   1.00
C33191 C     0.01163   0.45509   0.54871   0.00000  Uiso   1.00
C35192 C     0.05397   0.44746   0.59295   0.00000  Uiso   1.00
C37193 C     0.05805   0.47130   0.71600   0.00000  Uiso   1.00
H23194 H     0.02022   0.52751   0.87207   0.00000  Uiso   1.00
H25195 H     0.08364   0.42481   0.52800   0.00000  Uiso   1.00
C39196 C     0.00613   0.43444   0.40942   0.00000  Uiso   1.00
H27197 H    -0.01024   0.41364   0.43386   0.00000  Uiso   1.00
H29198 H    -0.01514   0.46169   0.33473   0.00000  Uiso   1.00
H31199 H     0.03899   0.41224   0.35320   0.00000  Uiso   1.00
C41200 C     0.77287   0.67862   0.93766   0.00000  Uiso   1.00
H33201 H     0.78505   0.65983   1.03995   0.00000  Uiso   1.00
H35202 H     0.79717   0.68935   0.89840   0.00000  Uiso   1.00
H37203 H     0.74020   0.70956   0.96215   0.00000  Uiso   1.00
C43204 C     0.43696   0.02027   0.65131   0.00000  Uiso   1.00
C45205 C     0.42277   0.06180   0.75706   0.00000  Uiso   1.00
C47206 C     0.36879   0.04381   0.79435   0.00000  Uiso   1.00
C49207 C     0.39919   0.00882   0.67288   0.00000  Uiso   1.00
H39208 H     0.44389   0.02504   0.53563   0.00000  Uiso   1.00
H41209 H     0.38236   0.00827   0.57044   0.00000  Uiso   1.00
C51210 C     0.40207   0.05025   0.88661   0.00000  Uiso   1.00
H43211 H     0.38618   0.07815   0.97099   0.00000  Uiso   1.00
H45212 H     0.42595   0.01912   0.94303   0.00000  Uiso   1.00
C53213 C     0.38140   0.10127   0.68607   0.00000  Uiso   1.00
H47214 H     0.38587   0.10700   0.56908   0.00000  Uiso   1.00
C55215 C     0.34422   0.08952   0.71608   0.00000  Uiso   1.00
H49216 H     0.32532   0.08959   0.61814   0.00000  Uiso   1.00
H51217 H     0.45007   0.06946   0.78367   0.00000  Uiso   1.00
H53218 H     0.34645   0.03414   0.85528   0.00000  Uiso   1.00
C57219 C     0.35451   0.14423   0.77659   0.00000  Uiso   1.00
C59220 C     0.34322   0.18849   0.73685   0.00000  Uiso   1.00
C61221 C     0.29703   0.22250   0.74616   0.00000  Uiso   1.00
C63222 C     0.26442   0.21020   0.78796   0.00000  Uiso   1.00
C65223 C     0.27615   0.16486   0.81138   0.00000  Uiso   1.00
C67224 C     0.32125   0.13250   0.80857   0.00000  Uiso   1.00
H55225 H     0.22922   0.23516   0.78581   0.00000  Uiso   1.00
H57226 H     0.25060   0.15471   0.81978   0.00000  Uiso   1.00
C69227 C     0.51022   0.94238   0.64984   0.00000  Uiso   1.00
C71228 C     0.46809   0.97387   0.70584   0.00000  Uiso   1.00
C73229 C     0.43374   0.96277   0.72047   0.00000  Uiso   1.00
C75230 C     0.43999   0.92035   0.67143   0.00000  Uiso   1.00
C77231 C     0.48402   0.88644   0.62684   0.00000  Uiso   1.00
C79232 C     0.51879   0.89798   0.61769   0.00000  Uiso   1.00
H59233 H     0.53503   0.95262   0.62487   0.00000  Uiso   1.00
H61234 H     0.55161   0.87359   0.57386   0.00000  Uiso   1.00
C81235 C     0.39962   0.91368   0.65751   0.00000  Uiso   1.00
H63236 H     0.38428   0.91623   0.76753   0.00000  Uiso   1.00
H65237 H     0.37448   0.94031   0.58875   0.00000  Uiso   1.00
H67238 H     0.40793   0.88038   0.60587   0.00000  Uiso   1.00
C83239 C     0.37934   0.19698   0.67284   0.00000  Uiso   1.00
H69240 H     0.41174   0.16492   0.66011   0.00000  Uiso   1.00
H71241 H     0.37022   0.21175   0.56339   0.00000  Uiso   1.00
H73242 H     0.38514   0.21989   0.74685   0.00000  Uiso   1.00
C85243 C     0.40086   0.50949   0.78040   0.00000  Uiso   1.00
C87244 C     0.43376   0.51195   0.89132   0.00000  Uiso   1.00
C89245 C     0.37855   0.58355   0.88852   0.00000  Uiso   1.00
C91246 C     0.36293   0.55864   0.77995   0.00000  Uiso   1.00
H75247 H     0.41541   0.49432   0.67043   0.00000  Uiso   1.00
H77248 H     0.35403   0.57312   0.66954   0.00000  Uiso   1.00
C93249 C     0.40232   0.54801   1.00287   0.00000  Uiso   1.00
H79250 H     0.41972   0.55805   1.08523   0.00000  Uiso   1.00
H81251 H     0.38006   0.53825   1.06433   0.00000  Uiso   1.00
C95252 C     0.45598   0.53656   0.81112   0.00000  Uiso   1.00
H83253 H     0.47259   0.52148   0.70319   0.00000  Uiso   1.00
C97254 C     0.41772   0.58553   0.80662   0.00000  Uiso   1.00
H85255 H     0.41071   0.60007   0.69592   0.00000  Uiso   1.00
H87256 H     0.45774   0.47889   0.93729   0.00000  Uiso   1.00
H89257 H     0.35151   0.61686   0.93195   0.00000  Uiso   1.00
C99258 C     0.48047   0.55459   0.90254   0.00000  Uiso   1.00
C101259 C     0.52516   0.54467   0.89651   0.00000  Uiso   1.00
C103260 C     0.53398   0.58145   0.90210   0.00000  Uiso   1.00
C105261 C     0.49892   0.62690   0.88830   0.00000  Uiso   1.00
C107262 C     0.45438   0.63508   0.87777   0.00000  Uiso   1.00
C109263 C     0.44575   0.59914   0.89604   0.00000  Uiso   1.00
H91264 H     0.56835   0.57438   0.90556   0.00000  Uiso   1.00
H93265 H     0.42726   0.66825   0.85279   0.00000  Uiso   1.00
C111266 C     0.35900   0.46194   0.79159   0.00000  Uiso   1.00
C113267 C     0.36692   0.49698   0.83818   0.00000  Uiso   1.00
C115268 C     0.33267   0.54194   0.84049   0.00000  Uiso   1.00
C117269 C     0.28919   0.55329   0.80358   0.00000  Uiso   1.00
C119270 C     0.27945   0.51764   0.77842   0.00000  Uiso   1.00
C121271 C     0.31461   0.47146   0.76653   0.00000  Uiso   1.00
H95272 H     0.38695   0.42840   0.76733   0.00000  Uiso   1.00
H97273 H     0.24505   0.52682   0.75849   0.00000  Uiso   1.00
C123274 C     0.25474   0.60204   0.78554   0.00000  Uiso   1.00
H99275 H     0.25061   0.62171   0.88875   0.00000  Uiso   1.00
H101276 H     0.26583   0.61662   0.69657   0.00000  Uiso   1.00
H103277 H     0.22174   0.60545   0.75753   0.00000  Uiso   1.00
C125278 C     0.56222   0.49644   0.88247   0.00000  Uiso   1.00
H105279 H     0.56015   0.47709   0.97628   0.00000  Uiso   1.00
H107280 H     0.55904   0.48044   0.77950   0.00000  Uiso   1.00
H109281 H     0.59564   0.49457   0.88101   0.00000  Uiso   1.00
C127282 C     0.27178   0.37594   0.80987   0.00000  Uiso   1.00
C129283 C     0.24422   0.42045   0.74090   0.00000  Uiso   1.00
C131284 C     0.19654   0.43415   0.71140   0.00000  Uiso   1.00
C133285 C     0.17782   0.40386   0.75321   0.00000  Uiso   1.00
C135286 C     0.21010   0.35510   0.77652   0.00000  Uiso   1.00
C137287 C     0.25873   0.34015   0.78946   0.00000  Uiso   1.00
O1288  O     0.19661   0.32759   0.78771   0.00000  Uiso   1.00
O3289  O     0.30558   0.36807   0.87545   0.00000  Uiso   1.00
O5290  O     0.17290   0.47015   0.65303   0.00000  Uiso   1.00
C139291 C     0.13321   0.41957   0.77224   0.00000  Uiso   1.00
H111292 H     0.12136   0.39674   0.81082   0.00000  Uiso   1.00
C141293 C     0.29083   0.29669   0.76227   0.00000  Uiso   1.00
H113294 H     0.32558   0.28825   0.77251   0.00000  Uiso   1.00
C143295 C     0.26214   0.44603   0.69252   0.00000  Uiso   1.00
H115296 H     0.24240   0.47436   0.62328   0.00000  Uiso   1.00
N2297  N     0.10114   0.46650   0.75092   0.00000  Uiso   1.00
H117298 H     0.09846   0.48417   0.84914   0.00000  Uiso   1.00
N4299  N     0.30814   0.43402   0.71574   0.00000  Uiso   1.00
H119300 H     0.32501   0.42266   0.61435   0.00000  Uiso   1.00
N6301  N     0.28077   0.26601   0.68087   0.00000  Uiso   1.00
H121302 H     0.29441   0.26158   0.57494   0.00000  Uiso   1.00
C145303 C     0.57716   0.75882   0.63938   0.00000  Uiso   1.00
C147304 C     0.53207   0.77263   0.70517   0.00000  Uiso   1.00
C149305 C     0.52713   0.73787   0.78863   0.00000  Uiso   1.00
C151306 C     0.55347   0.68917   0.73849   0.00000  Uiso   1.00
C153307 C     0.59310   0.67650   0.63885   0.00000  Uiso   1.00
C155308 C     0.60953   0.70970   0.61457   0.00000  Uiso   1.00
O7309  O     0.61198   0.63907   0.57684   0.00000  Uiso   1.00
O9310  O     0.58847   0.78739   0.61383   0.00000  Uiso   1.00
O11311 O     0.50080   0.74963   0.89310   0.00000  Uiso   1.00
C157312 C     0.54210   0.65703   0.77418   0.00000  Uiso   1.00
H123313 H     0.56212   0.62317   0.72522   0.00000  Uiso   1.00
C159314 C     0.65247   0.69616   0.57310   0.00000  Uiso   1.00
H125315 H     0.66316   0.72122   0.55223   0.00000  Uiso   1.00
C161316 C     0.49538   0.81343   0.68513   0.00000  Uiso   1.00
H127317 H     0.46443   0.82095   0.74343   0.00000  Uiso   1.00
N8318  N     0.50818   0.66455   0.88444   0.00000  Uiso   1.00
H129319 H     0.47868   0.69337   0.85616   0.00000  Uiso   1.00
N10320 N     0.49175   0.84317   0.56860   0.00000  Uiso   1.00
H131321 H     0.51893   0.82887   0.49403   0.00000  Uiso   1.00
N12322 N     0.68479   0.64880   0.55350   0.00000  Uiso   1.00
loop_
_geom_bond_atom_site_label_1
_geom_bond_atom_site_label_2
_geom_bond_distance
_geom_bond_site_symmetry_2
_ccdc_geom_bond_type
N11    H22     1.046   .     S
N11    C2221   1.450   .     S
N11    C160152  1.439   1_465 S
C23    C44     1.551   .     S
C23    C86     1.527   .     S
C23    H47     1.112   .     S
C23    C3027   1.500   .     S
C44    C109    1.522   .     S
C44    C1212   1.554   .     S
C44    H1616   1.110   .     S
C65    C86     1.556   .     S
C65    C109    1.523   .     S
C65    C1414   1.554   .     S
C65    H1817   1.110   .     S
C86    H68     1.113   .     S
C86    C3228   1.505   .     S
C109   H810    1.112   .     S
C109   H1011   1.111   .     S
C1212  H1213   1.112   .     S
C1212  C1414   1.530   .     S
C1212  C1618   1.501   .     S
C1414  H1415   1.113   .     S
C1414  C2623   1.502   .     S
C1618  C1819   1.394   .     D
C1618  C2623   1.391   .     S
C1819  C2020   1.411   .     S
C1819  C4238   1.499   .     S
C2020  C2221   1.429   .     D
C2020  H2024   1.082   .     S
C2221  C2422   1.413   .     S
C2422  C2623   1.392   .     D
C2422  H2225   1.082   .     S
C2826  C3027   1.391   .     S
C2826  C3831   1.412   .     D
C2826  H2432   1.082   .     S
C3027  C3228   1.396   .     D
C3228  C3429   1.398   .     S
C3429  C3630   1.412   .     D
C3429  C4034   1.499   .     S
C3630  C3831   1.421   .     S
C3630  H2633   1.083   .     S
C3831  N3135   1.444   .     S
C4034  H2835   1.110   .     S
C4034  H3036   1.110   .     S
C4034  H3237   1.110   .     S
C4238  H3439   1.110   .     S
C4238  H3640   1.110   .     S
C4238  H3841   1.110   .     S
C4442  C4643   1.547   .     S
C4442  C5045   1.525   .     S
C4442  H4046   1.113   .     S
C4442  C7266   1.499   .     S
C4643  C5248   1.522   .     S
C4643  C5451   1.556   .     S
C4643  H5255   1.110   .     S
C4844  C5045   1.559   .     S
C4844  C5248   1.521   .     S
C4844  C5653   1.549   .     S
C4844  H5456   1.110   .     S
C5045  H4247   1.113   .     S
C5045  C7467   1.503   .     S
C5248  H4449   1.112   .     S
C5248  H4650   1.112   .     S
C5451  H4852   1.113   .     S
C5451  C5653   1.524   .     S
C5451  C5857   1.501   .     S
C5653  H5054   1.113   .     S
C5653  C6862   1.503   .     S
C5857  C6058   1.401   .     S
C5857  C6862   1.397   .     D
C6058  C6259   1.428   .     D
C6058  C8477   1.506   .     S
C6259  C6460   1.414   .     S
C6259  N7139   1.438   .     S
C6460  C6661   1.399   .     D
C6460  H5663   1.082   .     S
C6661  C6862   1.387   .     S
C6661  H5864   1.082   .     S
C7065  C7266   1.388   .     S
C7065  C8070   1.399   .     D
C7065  H6071   1.082   .     S
C7266  C7467   1.397   .     D
C7467  C7668   1.400   .     S
C7668  C7869   1.422   .     D
C7668  C8273   1.505   .     S
C7869  C8070   1.417   .     S
C7869  N11158  1.436   .     S
C8070  H6272   1.080   .     S
C8273  H6474   1.110   .     S
C8273  H6675   1.110   .     S
C8273  H6876   1.108   .     S
C8477  H7078   1.110   .     S
C8477  H7279   1.109   .     S
C8477  H7480   1.107   .     S
C8681  C8882   1.558   .     S
C8681  C9284   1.527   .     S
C8681  H7685   1.113   .     S
C8681  C114105  1.501   .     S
C8882  C9487   1.524   .     S
C8882  C9690   1.551   .     S
C8882  H8894   1.109   .     S
C9083  C9284   1.548   .     S
C9083  C9487   1.523   .     S
C9083  C9892   1.558   .     S
C9083  H9095   1.110   .     S
C9284  H7886   1.113   .     S
C9284  C116106  1.502   .     S
C9487  H8088   1.112   .     S
C9487  H8289   1.111   .     S
C9690  H8491   1.113   .     S
C9690  C9892   1.533   .     S
C9690  C10096  1.503   .     S
C9892  H8693   1.113   .     S
C9892  C110101  1.499   .     S
C10096 C10297  1.391   .     D
C10096 C110101  1.386   .     S
C10297 C10498  1.410   .     S
C10297 C126116  1.497   .     S
C10498 C10699  1.425   .     D
C10498 H92102  1.083   .     S
C10699 C108100  1.417   .     S
C10699 N9156   1.448   .     S
C108100 C110101  1.391   .     D
C108100 H94103  1.082   .     S
C112104 C114105  1.392   .     S
C112104 C122109  1.411   .     D
C112104 H96110  1.082   .     S
C114105 C116106  1.392   .     D
C116106 C118107  1.390   .     S
C118107 C120108  1.407   .     D
C118107 C124112  1.497   .     S
C120108 C122109  1.429   .     S
C120108 H98111  1.079   .     S
C122109 N5137   1.448   .     S
C124112 H100113  1.110   .     S
C124112 H102114  1.109   .     S
C124112 H104115  1.110   .     S
C126116 H106117  1.110   .     S
C126116 H108118  1.110   .     S
C126116 H110119  1.110   .     S
C128120 C130121  1.487   .     S
C128120 C138125  1.483   .     S
C128120 O4127   1.222   .     D
C130121 C132122  1.490   .     S
C130121 C144133  1.352   .     D
C132122 C134123  1.496   .     S
C132122 O6128   1.223   .     D
C134123 C136124  1.491   .     S
C134123 C140129  1.357   .     D
C136124 C138125  1.490   .     S
C136124 O2126   1.223   .     D
C138125 C142131  1.351   .     D
C140129 H112130  1.088   .     S
C140129 N3135   1.438   .     S
C142131 H114132  1.083   .     S
C142131 N7139   1.434   .     S
C144133 H116134  1.086   .     S
C144133 N5137   1.439   .     S
N3135  H118136  1.046   .     S
N5137  H120138  1.046   .     S
N7139  H122140  1.045   .     S
C146141 C148142  1.489   .     S
C146141 C156146  1.489   .     S
C146141 O10148  1.221   .     D
C148142 C150143  1.484   .     S
C148142 C162154  1.356   .     D
C150143 C152144  1.492   .     S
C150143 O12149  1.222   .     D
C152144 C154145  1.495   .     S
C152144 C158150  1.357   1_545 D
C154145 C156146  1.492   .     S
C154145 O8147   1.223   .     D
C156146 C160152  1.354   .     D
C158150 H124151  1.087   .     S
C158150 N9156   1.446   .     S
C158150 C152144  1.357   1_565 D
C160152 H126153  1.087   .     S
C160152 N11     1.439   1_645 S
C162154 H128155  1.087   .     S
C162154 N11158  1.442   .     S
N9156  H130157  1.046   .     S
N11158 H132159  1.044   .     S
H1164  N12322  1.046   .     S
C1165  C3166   1.556   .     S
C1165  C7168   1.527   .     S
C1165  H3169   1.112   .     S
C1165  C29189  1.503   .     S
C3166  C9171   1.520   .     S
C3166  C11174  1.556   .     S
C3166  H15178  1.110   .     S
C5167  C7168   1.549   .     S
C5167  C9171   1.524   .     S
C5167  C13176  1.548   .     S
C5167  H17179  1.110   .     S
C7168  H5170   1.113   .     S
C7168  C31190  1.498   .     S
C9171  H7172   1.112   .     S
C9171  H9173   1.112   .     S
C11174 H11175  1.112   .     S
C11174 C13176  1.528   .     S
C11174 C15180  1.507   .     S
C13176 H13177  1.113   .     S
C13176 C25185  1.493   .     S
C15180 C17181  1.396   .     D
C15180 C25185  1.394   .     S
C17181 C19182  1.412   .     S
C17181 C41200  1.499   .     S
C19182 C21183  1.428   .     D
C19182 H19186  1.082   .     S
C21183 C23184  1.408   .     S
C21183 N12322  1.447   .     S
C23184 C25185  1.387   .     D
C23184 H21187  1.082   .     S
C27188 C37193  1.413   .     D
C27188 H23194  1.082   .     S
C27188 C29189  1.392   1_455 S
C29189 C31190  1.396   .     D
C29189 C27188  1.392   1_655 S
C31190 C33191  1.395   1_655 S
C33191 C35192  1.408   .     D
C33191 C39196  1.499   .     S
C33191 C31190  1.395   1_455 S
C35192 C37193  1.418   .     S
C35192 H25195  1.083   .     S
C37193 N2297   1.442   .     S
C39196 H27197  1.110   .     S
C39196 H29198  1.110   .     S
C39196 H31199  1.110   .     S
C41200 H33201  1.110   .     S
C41200 H35202  1.110   .     S
C41200 H37203  1.110   .     S
C43204 C45205  1.549   .     S
C43204 C49207  1.524   .     S
C43204 H39208  1.113   .     S
C43204 C71228  1.501   1_545 S
C45205 C51210  1.521   .     S
C45205 C53213  1.557   .     S
C45205 H51217  1.110   .     S
C47206 C49207  1.557   .     S
C47206 C51210  1.522   .     S
C47206 C55215  1.547   .     S
C47206 H53218  1.110   .     S
C49207 H41209  1.113   .     S
C49207 C73229  1.501   1_545 S
C51210 H43211  1.112   .     S
C51210 H45212  1.112   .     S
C53213 H47214  1.113   .     S
C53213 C55215  1.523   .     S
C53213 C57219  1.503   .     S
C55215 H49216  1.113   .     S
C55215 C67224  1.501   .     S
C57219 C59220  1.403   .     S
C57219 C67224  1.399   .     D
C59220 C61221  1.429   .     D
C59220 C83239  1.506   .     S
C61221 C63222  1.412   .     S
C61221 N6301   1.437   .     S
C63222 C65223  1.399   .     D
C63222 H55225  1.082   .     S
C65223 C67224  1.388   .     S
C65223 H57226  1.082   .     S
C69227 C71228  1.388   .     S
C69227 C79232  1.400   .     D
C69227 H59233  1.080   .     S
C71228 C73229  1.397   .     D
C71228 C43204  1.501   1_565 S
C73229 C75230  1.400   .     S
C73229 C49207  1.501   1_565 S
C75230 C77231  1.422   .     D
C75230 C81235  1.506   .     S
C77231 C79232  1.418   .     S
C77231 N10320  1.437   .     S
C79232 H61234  1.081   .     S
C81235 H63236  1.110   .     S
C81235 H65237  1.109   .     S
C81235 H67238  1.107   .     S
C83239 H69240  1.110   .     S
C83239 H71241  1.109   .     S
C83239 H73242  1.107   .     S
C85243 C87244  1.558   .     S
C85243 C91246  1.527   .     S
C85243 H75247  1.113   .     S
C85243 C113267  1.503   .     S
C87244 C93249  1.522   .     S
C87244 C95252  1.553   .     S
C87244 H87256  1.109   .     S
C89245 C91246  1.548   .     S
C89245 C93249  1.524   .     S
C89245 C97254  1.551   .     S
C89245 H89257  1.110   .     S
C91246 H77248  1.113   .     S
C91246 C115268  1.498   .     S
C93249 H79250  1.112   .     S
C93249 H81251  1.112   .     S
C95252 H83253  1.113   .     S
C95252 C97254  1.529   .     S
C95252 C99258  1.505   .     S
C97254 H85255  1.113   .     S
C97254 C109263  1.494   .     S
C99258 C101259  1.394   .     D
C99258 C109263  1.392   .     S
C101259 C103260  1.408   .     S
C101259 C125278  1.498   .     S
C103260 C105261  1.422   .     D
C103260 H91264  1.079   .     S
C105261 C107262  1.412   .     S
C105261 N8318   1.447   .     S
C107262 C109263  1.389   .     D
C107262 H93265  1.081   .     S
C111266 C113267  1.392   .     S
C111266 C121271  1.412   .     D
C111266 H95272  1.082   .     S
C113267 C115268  1.392   .     D
C115268 C117269  1.391   .     S
C117269 C119270  1.407   .     D
C117269 C123274  1.498   .     S
C119270 C121271  1.430   .     S
C119270 H97273  1.079   .     S
C121271 N4299   1.450   .     S
C123274 H99275  1.110   .     S
C123274 H101276  1.110   .     S
C123274 H103277  1.110   .     S
C125278 H105279  1.110   .     S
C125278 H107280  1.110   .     S
C125278 H109281  1.111   .     S
C127282 C129283  1.489   .     S
C127282 C137287  1.482   .     S
C127282 O3289   1.223   .     D
C129283 C131284  1.492   .     S
C129283 C143295  1.351   .     D
C131284 C133285  1.494   .     S
C131284 O5290   1.223   .     D
C133285 C135286  1.489   .     S
C133285 C139291  1.354   .     D
C135286 C137287  1.490   .     S
C135286 O1288   1.222   .     D
C137287 C141293  1.350   .     D
C139291 H111292  1.089   .     S
C139291 N2297   1.439   .     S
C141293 H113294  1.083   .     S
C141293 N6301   1.436   .     S
C143295 H115296  1.086   .     S
C143295 N4299   1.439   .     S
N2297  H117298  1.046   .     S
N4299  H119300  1.046   .     S
N6301  H121302  1.045   .     S
C145303 C147304  1.486   .     S
C145303 C155308  1.486   .     S
C145303 O9310   1.222   .     D
C147304 C149305  1.484   .     S
C147304 C161316  1.355   .     D
C149305 C151306  1.493   .     S
C149305 O11311  1.221   .     D
C151306 C153307  1.492   .     S
C151306 C157312  1.357   .     D
C153307 C155308  1.491   .     S
C153307 O7309   1.223   .     D
C155308 C159314  1.351   .     D
C157312 H123313  1.086   .     S
C157312 N8318   1.445   .     S
C159314 H125315  1.087   .     S
C159314 N12322  1.437   .     S
C161316 H127317  1.086   .     S
C161316 N10320  1.443   .     S
N8318  H129319  1.045   .     S
N10320 H131321  1.044   .     S
