data_1147
_audit_creation_date              2023-09-08
_audit_creation_method            'Materials Studio'
_symmetry_space_group_name_H-M    'P1'
_symmetry_Int_Tables_number       1
_symmetry_cell_setting            triclinic
loop_
_symmetry_equiv_pos_as_xyz
  x,y,z
_cell_length_a                    34.4800
_cell_length_b                    33.1400
_cell_length_c                    10.8900
_cell_angle_alpha                 89.8300
_cell_angle_beta                  88.8100
_cell_angle_gamma                 60.2500
loop_
_atom_site_label
_atom_site_type_symbol
_atom_site_fract_x
_atom_site_fract_y
_atom_site_fract_z
_atom_site_U_iso_or_equiv
_atom_site_adp_type
_atom_site_occupancy
N11    N     0.65720   0.66420   0.04811   0.00000  Uiso   1.00
H22    H     0.66411   0.66657  -0.04474   0.00000  Uiso   1.00
C23    C     0.90906   0.55397   0.17280   0.00000  Uiso   1.00
C44    C     0.86682   0.57052   0.25616   0.00000  Uiso   1.00
C65    C     0.85967   0.52568   0.12187   0.00000  Uiso   1.00
C86    C     0.90444   0.52307   0.08063   0.00000  Uiso   1.00
H47    H     0.91476   0.58054   0.13100   0.00000  Uiso   1.00
H68    H     0.90753   0.53071  -0.01668   0.00000  Uiso   1.00
C109   C     0.86030   0.52948   0.26090   0.00000  Uiso   1.00
H810   H     0.82893   0.53561   0.30806   0.00000  Uiso   1.00
H1011  H     0.88789   0.49940   0.30456   0.00000  Uiso   1.00
C1212  C     0.82730   0.60411   0.17771   0.00000  Uiso   1.00
H1213  H     0.83033   0.63230   0.13604   0.00000  Uiso   1.00
C1414  C     0.82211   0.57361   0.08563   0.00000  Uiso   1.00
H1415  H     0.82188   0.58329  -0.01153   0.00000  Uiso   1.00
H1616  H     0.86906   0.58485   0.34497   0.00000  Uiso   1.00
H1817  H     0.85521   0.49761   0.08776   0.00000  Uiso   1.00
C1618  C     0.78129   0.61725   0.22539   0.00000  Uiso   1.00
C1819  C     0.74639   0.65966   0.25811   0.00000  Uiso   1.00
C2020  C     0.70441   0.67403   0.20641   0.00000  Uiso   1.00
C2221  C     0.69868   0.64799   0.11331   0.00000  Uiso   1.00
C2422  C     0.73575   0.60532   0.07910   0.00000  Uiso   1.00
C2623  C     0.77601   0.59007   0.13998   0.00000  Uiso   1.00
H2024  H     0.67707   0.70643   0.23552   0.00000  Uiso   1.00
H2225  H     0.75718   0.57152  -0.09587   0.00000  Uiso   1.00
C2826  C     0.99191   0.50848   0.24599   0.00000  Uiso   1.00
C3027  C     0.95071   0.51322   0.21520   0.00000  Uiso   1.00
C3228  C     0.94697   0.48506   0.12996   0.00000  Uiso   1.00
C3429  C     0.98458   0.45212   0.06663   0.00000  Uiso   1.00
C3630  C     0.02684   0.44428   0.10267   0.00000  Uiso   1.00
C3831  C     0.03130   0.47104   0.19530   0.00000  Uiso   1.00
H2432  H     1.01024   0.55933   0.27639   0.00000  Uiso   1.00
H2633  H     0.05642   0.41843   0.05525   0.00000  Uiso   1.00
C4034  C     0.97973   0.42631  -0.03727   0.00000  Uiso   1.00
H2835  H     0.96274   0.40788  -0.00318   0.00000  Uiso   1.00
H3036  H     0.95942   0.44981  -0.11003   0.00000  Uiso   1.00
H3237  H     1.01273   0.40155  -0.07805   0.00000  Uiso   1.00
C4238  C     0.75397   0.68851   0.34691   0.00000  Uiso   1.00
H3439  H     0.76554   0.67039   0.43519   0.00000  Uiso   1.00
H3640  H     0.77989   0.69576   0.30916   0.00000  Uiso   1.00
H3841  H     0.72285   0.72098   0.36545   0.00000  Uiso   1.00
C4442  C     0.40816   0.02282   0.16944   0.00000  Uiso   1.00
C4643  C     0.39076   0.06458   0.25498   0.00000  Uiso   1.00
C4844  C     0.33490   0.04959   0.26038   0.00000  Uiso   1.00
C5045  C     0.36948   0.01307   0.17051   0.00000  Uiso   1.00
H4046  H     0.42047   0.02625   0.07721   0.00000  Uiso   1.00
H4247  H     0.35657   0.01167   0.07908   0.00000  Uiso   1.00
C5248  C     0.36426   0.05527   0.35211   0.00000  Uiso   1.00
H4449  H     0.34543   0.08359   0.41747   0.00000  Uiso   1.00
H4650  H     0.38495   0.02438   0.40533   0.00000  Uiso   1.00
C5451  C     0.35381   0.10401   0.18110   0.00000  Uiso   1.00
H4852  H     0.36381   0.10878   0.08707   0.00000  Uiso   1.00
C5653  C     0.31519   0.09431   0.18799   0.00000  Uiso   1.00
H5054  H     0.30046   0.09434   0.09804   0.00000  Uiso   1.00
H5255  H     0.41705   0.07100   0.29055   0.00000  Uiso   1.00
H5456  H     0.30971   0.04181   0.30092   0.00000  Uiso   1.00
C5857  C     0.32426   0.14756   0.24841   0.00000  Uiso   1.00
C6058  C     0.31594   0.19068   0.21458   0.00000  Uiso   1.00
C6259  C     0.27051   0.22582   0.20700   0.00000  Uiso   1.00
C6460  C     0.23586   0.21560   0.22626   0.00000  Uiso   1.00
C6661  C     0.24512   0.17111   0.24537   0.00000  Uiso   1.00
C6862  C     0.28944   0.13779   0.25904   0.00000  Uiso   1.00
H5663  H     0.20165   0.24171   0.21271   0.00000  Uiso   1.00
H5864  H     0.20867   0.14228   0.33080   0.00000  Uiso   1.00
C7065  C     0.47959   0.94455   0.19261   0.00000  Uiso   1.00
C7266  C     0.43601   0.97705   0.22474   0.00000  Uiso   1.00
C7467  C     0.40102   0.96747   0.22196   0.00000  Uiso   1.00
C7668  C     0.40835   0.92542   0.18082   0.00000  Uiso   1.00
C7869  C     0.45314   0.89066   0.15779   0.00000  Uiso   1.00
C8070  C     0.48823   0.90079   0.16508   0.00000  Uiso   1.00
H5971  H     0.74335   0.54207   0.01896   0.00000  Uiso   1.00
C8172  C     0.73362   0.57576  -0.01973   0.00000  Uiso   1.00
H6173  H     0.52183   0.87581   0.13787   0.00000  Uiso   1.00
C8374  C     0.36864   0.92007   0.15305   0.00000  Uiso   1.00
H6375  H     0.34772   0.92680   0.23769   0.00000  Uiso   1.00
H6576  H     0.34830   0.94448   0.08154   0.00000  Uiso   1.00
H6777  H     0.37831   0.88582   0.11892   0.00000  Uiso   1.00
C8578  C     0.35470   0.19680   0.17511   0.00000  Uiso   1.00
H6979  H     0.38667   0.16429   0.17640   0.00000  Uiso   1.00
H7180  H     0.35026   0.21000   0.08020   0.00000  Uiso   1.00
H7381  H     0.35814   0.21986   0.23947   0.00000  Uiso   1.00
C8782  C     0.36767   0.51478   0.24021   0.00000  Uiso   1.00
C8983  C     0.40256   0.51786   0.32179   0.00000  Uiso   1.00
C9184  C     0.34540   0.58823   0.32580   0.00000  Uiso   1.00
C9385  C     0.32825   0.56301   0.24477   0.00000  Uiso   1.00
H7586  H     0.37983   0.50007   0.14711   0.00000  Uiso   1.00
H7787  H     0.31492   0.57836   0.15429   0.00000  Uiso   1.00
C9588  C     0.37349   0.55259   0.41857   0.00000  Uiso   1.00
H7989  H     0.39225   0.56283   0.47951   0.00000  Uiso   1.00
H8190  H     0.35396   0.54179   0.47714   0.00000  Uiso   1.00
C9791  C     0.42050   0.54387   0.24403   0.00000  Uiso   1.00
H8392  H     0.43459   0.52952   0.15165   0.00000  Uiso   1.00
C9993  C     0.38103   0.59208   0.24509   0.00000  Uiso   1.00
H8594  H     0.36997   0.60757   0.15337   0.00000  Uiso   1.00
H8795  H     0.42875   0.48514   0.35820   0.00000  Uiso   1.00
H8996  H     0.31883   0.62059   0.36587   0.00000  Uiso   1.00
C10197 C     0.44612   0.56218   0.30954   0.00000  Uiso   1.00
C10398 C     0.48991   0.55282   0.29156   0.00000  Uiso   1.00
C10599 C     0.49781   0.58944   0.28313   0.00000  Uiso   1.00
C107100 C     0.46171   0.63466   0.27141   0.00000  Uiso   1.00
C109101 C     0.41707   0.64265   0.28329   0.00000  Uiso   1.00
C111102 C     0.41052   0.60617   0.30854   0.00000  Uiso   1.00
H91103 H     0.53217   0.58183   0.27909   0.00000  Uiso   1.00
H93104 H     0.38428   0.71608   0.27324   0.00000  Uiso   1.00
C113105 C     0.33057   0.46437   0.26857   0.00000  Uiso   1.00
C115106 C     0.33741   0.50008   0.30085   0.00000  Uiso   1.00
C117107 C     0.30200   0.54419   0.30786   0.00000  Uiso   1.00
C119108 C     0.25820   0.55430   0.29107   0.00000  Uiso   1.00
C121109 C     0.24995   0.51823   0.27525   0.00000  Uiso   1.00
C123110 C     0.28586   0.47304   0.25696   0.00000  Uiso   1.00
H95111 H     0.38835   0.42014   0.15800   0.00000  Uiso   1.00
H97112 H     0.21550   0.52645   0.27004   0.00000  Uiso   1.00
C125113 C     0.22143   0.60246   0.28763   0.00000  Uiso   1.00
H99114 H     0.22033   0.61962   0.37517   0.00000  Uiso   1.00
H101115 H     0.22767   0.62003   0.21033   0.00000  Uiso   1.00
H103116 H     0.18840   0.60494   0.27515   0.00000  Uiso   1.00
C127117 C     0.52704   0.50497   0.27880   0.00000  Uiso   1.00
H105118 H     0.52784   0.48589   0.36233   0.00000  Uiso   1.00
H107119 H     0.52145   0.48897   0.19756   0.00000  Uiso   1.00
H109120 H     0.55998   0.50311   0.26675   0.00000  Uiso   1.00
C129121 C     0.24516   0.37579   0.28118   0.00000  Uiso   1.00
C131122 C     0.21656   0.42149   0.22897   0.00000  Uiso   1.00
C133123 C     0.16960   0.43471   0.19887   0.00000  Uiso   1.00
C69124 C     0.47959   0.94455   0.69261   0.00000  Uiso   1.00
C71125 C     0.43601   0.97705   0.72474   0.00000  Uiso   1.00
C73126 C     0.40102   0.96747   0.72196   0.00000  Uiso   1.00
C75127 C     0.40835   0.92542   0.68082   0.00000  Uiso   1.00
C77128 C     0.45314   0.89066   0.65779   0.00000  Uiso   1.00
C79129 C     0.48823   0.90079   0.66508   0.00000  Uiso   1.00
H60130 H     0.52183   0.87581   0.63787   0.00000  Uiso   1.00
C82131 C     0.36864   0.92007   0.65305   0.00000  Uiso   1.00
H62132 H     0.34772   0.92680   0.73769   0.00000  Uiso   1.00
H64133 H     0.34830   0.94448   0.58154   0.00000  Uiso   1.00
H66134 H     0.37831   0.88582   0.61892   0.00000  Uiso   1.00
C84135 C     0.35470   0.19680   0.67511   0.00000  Uiso   1.00
H68136 H     0.38667   0.16429   0.67640   0.00000  Uiso   1.00
H70137 H     0.35026   0.21000   0.58020   0.00000  Uiso   1.00
H72138 H     0.35814   0.21986   0.73947   0.00000  Uiso   1.00
C86139 C     0.36767   0.51478   0.74021   0.00000  Uiso   1.00
C88140 C     0.40256   0.51786   0.82179   0.00000  Uiso   1.00
C90141 C     0.34540   0.58823   0.82580   0.00000  Uiso   1.00
C92142 C     0.32825   0.56301   0.74477   0.00000  Uiso   1.00
H74143 H     0.37983   0.50007   0.64711   0.00000  Uiso   1.00
H76144 H     0.31492   0.57836   0.65429   0.00000  Uiso   1.00
C94145 C     0.37349   0.55259   0.91857   0.00000  Uiso   1.00
H78146 H     0.39225   0.56283   0.97951   0.00000  Uiso   1.00
H80147 H     0.35396   0.54179   0.97714   0.00000  Uiso   1.00
C96148 C     0.42050   0.54387   0.74403   0.00000  Uiso   1.00
H82149 H     0.43459   0.52952   0.65165   0.00000  Uiso   1.00
C98150 C     0.38103   0.59208   0.74509   0.00000  Uiso   1.00
H84151 H     0.36997   0.60757   0.65337   0.00000  Uiso   1.00
H86152 H     0.42875   0.48514   0.85820   0.00000  Uiso   1.00
H88153 H     0.31883   0.62059   0.86587   0.00000  Uiso   1.00
C100154 C     0.44612   0.56218   0.80954   0.00000  Uiso   1.00
C102155 C     0.48991   0.55282   0.79156   0.00000  Uiso   1.00
C104156 C     0.49781   0.58944   0.78313   0.00000  Uiso   1.00
C106157 C     0.46171   0.63466   0.77141   0.00000  Uiso   1.00
C108158 C     0.41707   0.64265   0.78329   0.00000  Uiso   1.00
C110159 C     0.41052   0.60617   0.80854   0.00000  Uiso   1.00
H90160 H     0.53217   0.58183   0.77909   0.00000  Uiso   1.00
H92161 H     0.38428   0.71608   0.77324   0.00000  Uiso   1.00
C112162 C     0.33057   0.46437   0.76857   0.00000  Uiso   1.00
C114163 C     0.33741   0.50008   0.80085   0.00000  Uiso   1.00
C116164 C     0.30200   0.54419   0.80786   0.00000  Uiso   1.00
C118165 C     0.25820   0.55430   0.79107   0.00000  Uiso   1.00
C120166 C     0.24995   0.51823   0.77525   0.00000  Uiso   1.00
C122167 C     0.28586   0.47304   0.75696   0.00000  Uiso   1.00
H94168 H     0.38835   0.42014   0.65800   0.00000  Uiso   1.00
H96169 H     0.21550   0.52645   0.77004   0.00000  Uiso   1.00
C124170 C     0.22143   0.60246   0.78763   0.00000  Uiso   1.00
H98171 H     0.22033   0.61962   0.87517   0.00000  Uiso   1.00
H100172 H     0.22767   0.62003   0.71033   0.00000  Uiso   1.00
H102173 H     0.18840   0.60494   0.77515   0.00000  Uiso   1.00
C126174 C     0.52704   0.50497   0.77880   0.00000  Uiso   1.00
H104175 H     0.52784   0.48589   0.86233   0.00000  Uiso   1.00
H106176 H     0.52145   0.48897   0.69756   0.00000  Uiso   1.00
H108177 H     0.55998   0.50311   0.76675   0.00000  Uiso   1.00
C128178 C     0.24516   0.37579   0.78118   0.00000  Uiso   1.00
C130179 C     0.21656   0.42149   0.72897   0.00000  Uiso   1.00
C132180 C     0.16960   0.43471   0.69887   0.00000  Uiso   1.00
C134181 C     0.15221   0.40318   0.72553   0.00000  Uiso   1.00
C136182 C     0.18545   0.35457   0.74198   0.00000  Uiso   1.00
C138183 C     0.23360   0.34019   0.75562   0.00000  Uiso   1.00
O1184  O     0.17310   0.32666   0.74694   0.00000  Uiso   1.00
O3185  O     0.27855   0.36703   0.83877   0.00000  Uiso   1.00
O5186  O     0.14552   0.47125   0.65167   0.00000  Uiso   1.00
C140187 C     0.10788   0.41770   0.73625   0.00000  Uiso   1.00
H110188 H     0.09689   0.39398   0.76337   0.00000  Uiso   1.00
C142189 C     0.26653   0.29781   0.72906   0.00000  Uiso   1.00
H112190 H     0.30084   0.28972   0.74101   0.00000  Uiso   1.00
C144191 C     0.23299   0.44891   0.69754   0.00000  Uiso   1.00
H114192 H     0.21243   0.47872   0.64360   0.00000  Uiso   1.00
N2193  N     0.07506   0.46461   0.72201   0.00000  Uiso   1.00
H116194 H     0.07410   0.47991   0.80569   0.00000  Uiso   1.00
N4195  N     0.27890   0.43647   0.71631   0.00000  Uiso   1.00
H118196 H     0.29451   0.42618   0.62977   0.00000  Uiso   1.00
N6197  N     0.25810   0.26876   0.65239   0.00000  Uiso   1.00
H120198 H     0.27533   0.26381   0.56861   0.00000  Uiso   1.00
C146199 C     0.54799   0.76446   0.66204   0.00000  Uiso   1.00
C148200 C     0.50271   0.77529   0.70750   0.00000  Uiso   1.00
C150201 C     0.49806   0.73775   0.76060   0.00000  Uiso   1.00
C152202 C     0.52772   0.69116   0.71266   0.00000  Uiso   1.00
C154203 C     0.57195   0.68025   0.65731   0.00000  Uiso   1.00
C156204 C     0.58275   0.71697   0.63276   0.00000  Uiso   1.00
O7205  O     0.59931   0.64101   0.63234   0.00000  Uiso   1.00
O9206  O     0.55758   0.79436   0.65539   0.00000  Uiso   1.00
O11207 O     0.46932   0.74530   0.83930   0.00000  Uiso   1.00
C158208 C     0.51367   0.66060   0.70631   0.00000  Uiso   1.00
H122209 H     0.53413   0.62991   0.65347   0.00000  Uiso   1.00
C160210 C     0.62260   0.70871   0.58368   0.00000  Uiso   1.00
H124211 H     0.62851   0.73665   0.56486   0.00000  Uiso   1.00
C162212 C     0.46571   0.81641   0.69492   0.00000  Uiso   1.00
H126213 H     0.43456   0.82204   0.73752   0.00000  Uiso   1.00
N8214  N     0.46851   0.67234   0.74044   0.00000  Uiso   1.00
H128215 H     0.45027   0.68702   0.66138   0.00000  Uiso   1.00
N10216 N     0.46202   0.84861   0.60311   0.00000  Uiso   1.00
H130217 H     0.48920   0.83609   0.54128   0.00000  Uiso   1.00
N12218 N     0.65720   0.66420   0.54811   0.00000  Uiso   1.00
C165219 C     0.37085   0.41883   0.74333   0.00000  Uiso   1.00
H134220 H     0.39410   0.40948   0.82107   0.00000  Uiso   1.00
H135221 H     0.36218   0.39179   0.73322   0.00000  Uiso   1.00
C167222 C     0.37665   0.68826   0.76456   0.00000  Uiso   1.00
H138223 H     0.36298   0.68946   0.67230   0.00000  Uiso   1.00
H139224 H     0.35058   0.69425   0.83539   0.00000  Uiso   1.00
H140225 H     0.69985   0.58938   0.44197   0.00000  Uiso   1.00
C168226 C     0.73362   0.57576   0.48027   0.00000  Uiso   1.00
H141227 H     1.01061   0.52816   0.91243   0.00000  Uiso   1.00
H142228 H     0.74335   0.54207   0.51896   0.00000  Uiso   1.00
H144229 H     0.95872   0.57074   0.85231   0.00000  Uiso   1.00
C170230 C     0.20895   0.15890   0.74327   0.00000  Uiso   1.00
H147231 H     0.17556   0.18923   0.73231   0.00000  Uiso   1.00
H148232 H     0.21515   0.13535   0.66562   0.00000  Uiso   1.00
C172233 C     0.99299   0.54369   0.82621   0.00000  Uiso   1.00
H152234 H     0.52902   0.95042   0.58409   0.00000  Uiso   1.00
C173235 C     0.51593   0.95635   0.68029   0.00000  Uiso   1.00
H153236 H     0.50343   0.99227   0.70486   0.00000  Uiso   1.00
H154237 H     0.54350   0.93486   0.74253   0.00000  Uiso   1.00
C27238 C    -0.00809   0.50848   0.74599   0.00000  Uiso   1.00
C33239 C    -0.01542   0.45212   0.56663   0.00000  Uiso   1.00
C35240 C     1.02684   0.44428   0.60267   0.00000  Uiso   1.00
C37241 C     1.03130   0.47104   0.69530   0.00000  Uiso   1.00
C43242 C     0.40816   1.02282   0.66944   0.00000  Uiso   1.00
C49243 C     0.36948   1.01307   0.67051   0.00000  Uiso   1.00
C137246 C     0.18545   0.35457   0.24198   0.00000  Uiso   1.00
C139247 C     0.23360   0.34019   0.25562   0.00000  Uiso   1.00
O2248  O     0.17310   0.32666   0.24694   0.00000  Uiso   1.00
O4249  O     0.27855   0.36703   0.33877   0.00000  Uiso   1.00
O6250  O     0.14552   0.47125   0.15167   0.00000  Uiso   1.00
C141251 C     0.10788   0.41770   0.23625   0.00000  Uiso   1.00
H111252 H     0.09689   0.39398   0.26337   0.00000  Uiso   1.00
C143253 C     0.26653   0.29781   0.22906   0.00000  Uiso   1.00
H113254 H     0.30084   0.28972   0.24101   0.00000  Uiso   1.00
C145255 C     0.23299   0.44891   0.19754   0.00000  Uiso   1.00
H115256 H     0.21243   0.47872   0.14360   0.00000  Uiso   1.00
N3257  N     0.07506   0.46461   0.22201   0.00000  Uiso   1.00
H117258 H     0.07410   0.47991   0.30569   0.00000  Uiso   1.00
N5259  N     0.27890   0.43647   0.21631   0.00000  Uiso   1.00
H119260 H     0.29451   0.42618   0.12977   0.00000  Uiso   1.00
N7261  N     0.25810   0.26876   0.15239   0.00000  Uiso   1.00
H121262 H     0.27533   0.26381   0.06861   0.00000  Uiso   1.00
C147263 C     0.54799   0.76446   0.16204   0.00000  Uiso   1.00
C149264 C     0.50271   0.77529   0.20750   0.00000  Uiso   1.00
C151265 C     0.49806   0.73775   0.26060   0.00000  Uiso   1.00
C153266 C     0.52772   0.69116   0.21266   0.00000  Uiso   1.00
C155267 C     0.57195   0.68025   0.15731   0.00000  Uiso   1.00
C157268 C     0.58275   0.71697   0.13276   0.00000  Uiso   1.00
O8269  O     0.59931   0.64101   0.13234   0.00000  Uiso   1.00
O10270 O     0.55758   0.79436   0.15539   0.00000  Uiso   1.00
O12271 O     0.46932   0.74530   0.33930   0.00000  Uiso   1.00
C159272 C     0.51367   0.66060   0.20631   0.00000  Uiso   1.00
H123273 H     0.53413   0.62991   0.15347   0.00000  Uiso   1.00
C161274 C     0.62260   0.70871   0.08368   0.00000  Uiso   1.00
H125275 H     0.62851   0.73665   0.06486   0.00000  Uiso   1.00
C163276 C     0.46571   0.81641   0.19492   0.00000  Uiso   1.00
H127277 H     0.43456   0.82204   0.23752   0.00000  Uiso   1.00
N9278  N     0.46851   0.67234   0.24044   0.00000  Uiso   1.00
H129279 H     0.45027   0.68702   0.16138   0.00000  Uiso   1.00
N11280 N     0.46202   0.84861   0.10311   0.00000  Uiso   1.00
H131281 H     0.48920   0.83609   0.04128   0.00000  Uiso   1.00
C164282 C     0.37085   0.41883   0.24333   0.00000  Uiso   1.00
H132283 H     0.39410   0.40948   0.32107   0.00000  Uiso   1.00
H133284 H     0.36218   0.39179   0.23322   0.00000  Uiso   1.00
C166285 C     0.37665   0.68826   0.26456   0.00000  Uiso   1.00
H136286 H     0.36298   0.68946   0.17230   0.00000  Uiso   1.00
H137287 H     0.35058   0.69425   0.33539   0.00000  Uiso   1.00
H143288 H     0.69985   0.58938  -0.05803   0.00000  Uiso   1.00
C169289 C     0.20895   0.15890   0.24327   0.00000  Uiso   1.00
H145290 H     0.17556   0.18923   0.23231   0.00000  Uiso   1.00
H146291 H     0.21515   0.13535   0.16562   0.00000  Uiso   1.00
C171292 C     0.99299   0.54369   0.32621   0.00000  Uiso   1.00
H149293 H     0.95872   0.57074   0.35231   0.00000  Uiso   1.00
H150294 H     1.01061   0.52816   0.41243   0.00000  Uiso   1.00
H151295 H     0.52902   0.95042   0.08409   0.00000  Uiso   1.00
C174296 C     0.51593   0.95635   0.18029   0.00000  Uiso   1.00
H155297 H     0.50343   0.99227   0.20486   0.00000  Uiso   1.00
H156298 H     0.54350   0.93486   0.24253   0.00000  Uiso   1.00
H1307  H     0.66411   0.66657   0.45526   0.00000  Uiso   1.00
C1308  C     0.90906   0.55397   0.67280   0.00000  Uiso   1.00
C3309  C     0.86682   0.57052   0.75616   0.00000  Uiso   1.00
C5310  C     0.85967   0.52568   0.62187   0.00000  Uiso   1.00
C7311  C     0.90444   0.52307   0.58063   0.00000  Uiso   1.00
H3312  H     0.91476   0.58054   0.63100   0.00000  Uiso   1.00
H5313  H     0.90753   0.53071   0.48332   0.00000  Uiso   1.00
C9314  C     0.86030   0.52948   0.76090   0.00000  Uiso   1.00
H7315  H     0.82893   0.53561   0.80806   0.00000  Uiso   1.00
H9316  H     0.88789   0.49940   0.80456   0.00000  Uiso   1.00
C11317 C     0.82730   0.60411   0.67771   0.00000  Uiso   1.00
H11318 H     0.83033   0.63230   0.63604   0.00000  Uiso   1.00
C13319 C     0.82211   0.57361   0.58563   0.00000  Uiso   1.00
H13320 H     0.82188   0.58329   0.48847   0.00000  Uiso   1.00
H15321 H     0.86906   0.58485   0.84497   0.00000  Uiso   1.00
H17322 H     0.85521   0.49761   0.58776   0.00000  Uiso   1.00
C15323 C     0.78129   0.61725   0.72539   0.00000  Uiso   1.00
C17324 C     0.74639   0.65966   0.75811   0.00000  Uiso   1.00
C19325 C     0.70441   0.67403   0.70641   0.00000  Uiso   1.00
C21326 C     0.69868   0.64799   0.61331   0.00000  Uiso   1.00
C23327 C     0.73575   0.60532   0.57910   0.00000  Uiso   1.00
C25328 C     0.77601   0.59007   0.63998   0.00000  Uiso   1.00
H19329 H     0.67707   0.70643   0.73552   0.00000  Uiso   1.00
H21330 H     0.75718   0.57152   0.40413   0.00000  Uiso   1.00
C29332 C     0.95071   0.51322   0.71520   0.00000  Uiso   1.00
C31333 C     0.94697   0.48506   0.62996   0.00000  Uiso   1.00
H23337 H     1.01024   0.55933   0.77639   0.00000  Uiso   1.00
H25338 H     0.05642   0.41843   0.55525   0.00000  Uiso   1.00
C39339 C     0.97973   0.42631   0.46273   0.00000  Uiso   1.00
H27340 H     0.96274   0.40788   0.49682   0.00000  Uiso   1.00
H29341 H     0.95942   0.44981   0.38997   0.00000  Uiso   1.00
H31342 H     1.01273   0.40155   0.42195   0.00000  Uiso   1.00
C41343 C     0.75397   0.68851   0.84691   0.00000  Uiso   1.00
H33344 H     0.76554   0.67039   0.93519   0.00000  Uiso   1.00
H35345 H     0.77989   0.69576   0.80916   0.00000  Uiso   1.00
H37346 H     0.72285   0.72098   0.86545   0.00000  Uiso   1.00
C45348 C     0.39076   0.06458   0.75498   0.00000  Uiso   1.00
C47349 C     0.33490   0.04959   0.76038   0.00000  Uiso   1.00
H39351 H     0.42047   0.02625   0.57721   0.00000  Uiso   1.00
H41352 H     0.35657   0.01167   0.57908   0.00000  Uiso   1.00
C51353 C     0.36426   0.05527   0.85211   0.00000  Uiso   1.00
H43354 H     0.34543   0.08359   0.91747   0.00000  Uiso   1.00
H45355 H     0.38495   0.02438   0.90533   0.00000  Uiso   1.00
C53356 C     0.35381   0.10401   0.68110   0.00000  Uiso   1.00
H47357 H     0.36381   0.10878   0.58707   0.00000  Uiso   1.00
C55358 C     0.31519   0.09431   0.68799   0.00000  Uiso   1.00
H49359 H     0.30046   0.09434   0.59804   0.00000  Uiso   1.00
H51360 H     0.41705   0.07100   0.79055   0.00000  Uiso   1.00
H53361 H     0.30971   0.04181   0.80092   0.00000  Uiso   1.00
C57362 C     0.32426   0.14756   0.74841   0.00000  Uiso   1.00
C59363 C     0.31594   0.19068   0.71458   0.00000  Uiso   1.00
C61364 C     0.27051   0.22582   0.70700   0.00000  Uiso   1.00
C63365 C     0.23586   0.21560   0.72626   0.00000  Uiso   1.00
C65366 C     0.24512   0.17111   0.74537   0.00000  Uiso   1.00
C67367 C     0.28944   0.13779   0.75904   0.00000  Uiso   1.00
H55368 H     0.20165   0.24171   0.71271   0.00000  Uiso   1.00
loop_
_geom_bond_atom_site_label_1
_geom_bond_atom_site_label_2
_geom_bond_distance
_geom_bond_site_symmetry_2
_ccdc_geom_bond_type
N11    H22     1.046   .     S
N11    C2221   1.455   .     S
N11    C161274  1.410   .     S
C23    C44     1.550   .     S
C23    C86     1.502   .     S
C23    H47     1.089   .     S
C23    C3027   1.483   .     S
C44    C109    1.485   .     S
C44    C1212   1.537   .     S
C44    H1616   1.100   .     S
C65    C86     1.559   .     S
C65    C109    1.521   .     S
C65    C1414   1.527   .     S
C65    H1817   1.083   .     S
C86    H68     1.104   .     S
C86    C3228   1.490   .     S
C109   H810    1.111   .     S
C109   H1011   1.095   .     S
C1212  H1213   1.087   .     S
C1212  C1414   1.501   .     S
C1212  C1618   1.502   .     S
C1414  H1415   1.104   .     S
C1414  C2623   1.509   .     S
C1618  C1819   1.363   .     D
C1618  C2623   1.373   .     S
C1819  C2020   1.410   .     S
C1819  C4238   1.477   .     S
C2020  C2221   1.412   .     D
C2020  H2024   1.062   .     S
C2221  C2422   1.401   .     S
C2422  C2623   1.401   .     D
C2422  C8172   1.485   .     S
H2225  C8172   1.108   .     S
C2826  C3027   1.398   .     D
C2826  C171292  1.475   .     S
C2826  C3831   1.410   1_655 S
C3027  C3228   1.371   .     S
C3228  C3429   1.383   .     D
C3429  C4034   1.482   .     S
C3429  C3630   1.411   1_655 S
C3630  C3831   1.405   .     D
C3630  H2633   1.074   .     S
C3630  C3429   1.411   1_455 S
C3831  N3257   1.451   .     S
C3831  C2826   1.410   1_455 S
H2432  C171292  1.099   .     S
C4034  H2835   1.095   .     S
C4034  H3036   1.097   .     S
C4034  H3237   1.104   .     S
C4238  H3439   1.104   .     S
C4238  H3640   1.106   .     S
C4238  H3841   1.094   .     S
C4442  C4643   1.518   .     S
C4442  C5045   1.520   .     S
C4442  H4046   1.110   .     S
C4442  C7266   1.469   1_545 S
C4643  C5248   1.512   .     S
C4643  C5451   1.537   .     S
C4643  H5255   1.106   .     S
C4844  C5045   1.540   .     S
C4844  C5248   1.513   .     S
C4844  C5653   1.515   .     S
C4844  H5456   1.105   .     S
C5045  H4247   1.109   .     S
C5045  C7467   1.473   1_545 S
C5248  H4449   1.090   .     S
C5248  H4650   1.087   .     S
C5451  H4852   1.109   .     S
C5451  C5653   1.517   .     S
C5451  C5857   1.475   .     S
C5653  H5054   1.112   .     S
C5653  C6862   1.474   .     S
C5857  C6058   1.362   .     S
C5857  C6862   1.393   .     D
C6058  C6259   1.418   .     D
C6058  C8578   1.502   .     S
C6259  C6460   1.406   .     S
C6259  N7261   1.401   .     S
C6460  C6661   1.361   .     D
C6460  H5663   1.075   .     S
C6661  C6862   1.382   .     S
C6661  C169289  1.491   .     S
H5864  C169289  1.102   .     S
C7065  C7266   1.384   .     S
C7065  C8070   1.361   .     D
C7065  C174296  1.490   .     S
C7266  C7467   1.392   .     D
C7266  C4442   1.469   1_565 S
C7467  C7668   1.362   .     S
C7467  C5045   1.473   1_565 S
C7668  C7869   1.412   .     D
C7668  C8374   1.502   .     S
C7869  C8070   1.411   .     S
C7869  N11280  1.401   .     S
C8070  H6173   1.073   .     S
H5971  C8172   1.081   .     S
C8172  H143288  1.109   .     S
C8374  H6375   1.111   .     S
C8374  H6576   1.099   .     S
C8374  H6777   1.077   .     S
C8578  H6979   1.095   .     S
C8578  H7180   1.105   .     S
C8578  H7381   1.089   .     S
C8782  C8983   1.554   .     S
C8782  C9385   1.499   .     S
C8782  H7586   1.106   .     S
C8782  C115106  1.495   .     S
C8983  C9588   1.503   .     S
C8983  C9791   1.532   .     S
C8983  H8795   1.090   .     S
C9184  C9385   1.531   .     S
C9184  C9588   1.501   .     S
C9184  C9993   1.552   .     S
C9184  H8996   1.091   .     S
C9385  H7787   1.107   .     S
C9385  C117107  1.487   .     S
C9588  H7989   1.100   .     S
C9588  H8190   1.099   .     S
C9791  H8392   1.108   .     S
C9791  C9993   1.499   .     S
C9791  C10197  1.489   .     S
C9993  H8594   1.107   .     S
C9993  C111102  1.494   .     S
C10197 C10398  1.392   .     D
C10197 C111102  1.363   .     S
C10398 C10599  1.372   .     S
C10398 C127117  1.467   .     S
C10599 C107100  1.402   .     D
C10599 H91103  1.082   .     S
C107100 C109101  1.429   .     S
C107100 N9278   1.419   .     S
C109101 C111102  1.362   .     D
C109101 C166285  1.479   .     S
H93104 C166285  1.082   .     S
C113105 C115106  1.365   .     S
C113105 C123110  1.429   .     D
C113105 C164282  1.479   .     S
C115106 C117107  1.363   .     D
C117107 C119108  1.391   .     S
C119108 C121109  1.371   .     D
C119108 C125113  1.466   .     S
C121109 C123110  1.402   .     S
C121109 H97112  1.082   .     S
C123110 N5259   1.421   .     S
H95111 C164282  1.110   .     S
C125113 H99114  1.102   .     S
C125113 H101115  1.099   .     S
C125113 H103116  1.112   .     S
C127117 H105118  1.099   .     S
C127117 H107119  1.101   .     S
C127117 H109120  1.111   .     S
C129121 C131122  1.458   .     S
C129121 C139247  1.450   .     S
C129121 O4249   1.225   .     D
C131122 C133123  1.496   .     D
C131122 C145255  1.328   .     S
C133123 O6250   1.198   .     D
C69124 C71125  1.384   .     S
C69124 C79129  1.361   .     D
C69124 C173235  1.490   .     S
C71125 C73126  1.392   .     D
C71125 C43242  1.469   .     S
C73126 C75127  1.362   .     S
C73126 C49243  1.473   .     S
C75127 C77128  1.412   .     D
C75127 C82131  1.502   .     S
C77128 C79129  1.411   .     S
C77128 N10216  1.401   .     S
C79129 H60130  1.073   .     S
C82131 H62132  1.111   .     S
C82131 H64133  1.099   .     S
C82131 H66134  1.077   .     S
C84135 H68136  1.095   .     S
C84135 H70137  1.105   .     S
C84135 H72138  1.089   .     S
C84135 C59363  1.502   .     S
C86139 C88140  1.554   .     S
C86139 C92142  1.499   .     S
C86139 H74143  1.106   .     S
C86139 C114163  1.495   .     S
C88140 C94145  1.503   .     S
C88140 C96148  1.532   .     S
C88140 H86152  1.090   .     S
C90141 C92142  1.531   .     S
C90141 C94145  1.501   .     S
C90141 C98150  1.552   .     S
C90141 H88153  1.091   .     S
C92142 H76144  1.107   .     S
C92142 C116164  1.487   .     S
C94145 H78146  1.100   .     S
C94145 H80147  1.099   .     S
C96148 H82149  1.108   .     S
C96148 C98150  1.499   .     S
C96148 C100154  1.489   .     S
C98150 H84151  1.107   .     S
C98150 C110159  1.494   .     S
C100154 C102155  1.392   .     D
C100154 C110159  1.363   .     S
C102155 C104156  1.372   .     S
C102155 C126174  1.467   .     S
C104156 C106157  1.402   .     D
C104156 H90160  1.082   .     S
C106157 C108158  1.429   .     S
C106157 N8214   1.419   .     S
C108158 C110159  1.362   .     D
C108158 C167222  1.479   .     S
H92161 C167222  1.082   .     S
C112162 C114163  1.365   .     S
C112162 C122167  1.429   .     D
C112162 C165219  1.479   .     S
C114163 C116164  1.363   .     D
C116164 C118165  1.391   .     S
C118165 C120166  1.371   .     D
C118165 C124170  1.466   .     S
C120166 C122167  1.402   .     S
C120166 H96169  1.082   .     S
C122167 N4195   1.421   .     S
H94168 C165219  1.110   .     S
C124170 H98171  1.102   .     S
C124170 H100172  1.099   .     S
C124170 H102173  1.112   .     S
C126174 H104175  1.099   .     S
C126174 H106176  1.101   .     S
C126174 H108177  1.111   .     S
C128178 C130179  1.458   .     S
C128178 C138183  1.450   .     S
C128178 O3185   1.225   .     D
C130179 C132180  1.496   .     S
C130179 C144191  1.328   .     D
C132180 C134181  1.466   .     S
C132180 O5186   1.198   .     D
C134181 C136182  1.454   .     S
C134181 C140187  1.358   .     D
C136182 C138183  1.493   .     S
C136182 O1184   1.196   .     D
C138183 C142189  1.323   .     D
C140187 H110188  1.067   .     S
C140187 N2193   1.408   .     S
C142189 H112190  1.086   .     S
C142189 N6197   1.415   .     S
C144191 H114192  1.069   .     S
C144191 N4195   1.443   .     S
N2193  H116194  1.036   .     S
N2193  C37241  1.451   1_455 S
N4195  H118196  1.045   .     S
N6197  H120198  1.046   .     S
N6197  C61364  1.401   .     S
C146199 C148200  1.491   .     S
C146199 C156204  1.460   .     S
C146199 O9206   1.192   .     D
C148200 C150201  1.448   .     S
C148200 C162212  1.336   .     D
C150201 C152202  1.455   .     S
C150201 O11207  1.224   .     D
C152202 C154203  1.495   .     S
C152202 C158208  1.324   .     D
C154203 C156204  1.461   .     S
C154203 O7205   1.195   .     D
C156204 C160210  1.359   .     D
C158208 H122209  1.067   .     S
C158208 N8214   1.446   .     S
C160210 H124211  1.061   .     S
C160210 N12218  1.410   .     S
C162212 H126213  1.088   .     S
C162212 N10216  1.421   .     S
N8214  H128215  1.044   .     S
N10216 H130217  1.046   .     S
N12218 H1307   1.046   .     S
N12218 C21326  1.455   .     S
C165219 H134220  1.112   .     S
C165219 H135221  1.083   .     S
C167222 H138223  1.111   .     S
C167222 H139224  1.112   .     S
H140225 C168226  1.109   .     S
C168226 H142228  1.081   .     S
C168226 C23327  1.485   .     S
C168226 H21330  1.108   .     S
H141227 C172233  1.107   .     S
H144229 C172233  1.103   .     S
C170230 H147231  1.098   .     S
C170230 H148232  1.096   .     S
C170230 C65366  1.491   .     S
C172233 H23337  1.099   .     S
C172233 C27238  1.475   1_655 S
H152234 C173235  1.111   .     S
C173235 H153236  1.078   .     S
C173235 H154237  1.106   .     S
C27238 C172233  1.475   1_455 S
C27238 C37241  1.410   1_455 S
C27238 C29332  1.398   1_455 D
C33239 C35240  1.411   1_455 S
C33239 C31333  1.383   1_455 D
C33239 C39339  1.482   1_455 S
C35240 C37241  1.405   .     D
C35240 C33239  1.411   1_655 S
C35240 H25338  1.074   1_655 S
C37241 N2193   1.451   1_655 S
C37241 C27238  1.410   1_655 S
C43242 C49243  1.520   .     S
C43242 C45348  1.518   1_565 S
C43242 H39351  1.110   1_565 S
C49243 C47349  1.540   1_565 S
C49243 H41352  1.109   1_565 S
C137246 C139247  1.493   .     D
C137246 O2248   1.196   .     D
C139247 C143253  1.323   .     S
C141251 H111252  1.067   .     S
C141251 N3257   1.408   .     D
C143253 H113254  1.086   .     S
C143253 N7261   1.415   .     D
C145255 H115256  1.069   .     S
C145255 N5259   1.443   .     D
N3257  H117258  1.036   .     S
N5259  H119260  1.045   .     S
N7261  H121262  1.046   .     S
C147263 C149264  1.491   .     S
C147263 C157268  1.460   .     S
C147263 O10270  1.192   .     D
C149264 C151265  1.448   .     S
C149264 C163276  1.336   .     D
C151265 C153266  1.455   .     S
C151265 O12271  1.224   .     D
C153266 C155267  1.495   .     S
C153266 C159272  1.324   .     D
C155267 C157268  1.461   .     S
C155267 O8269   1.195   .     D
C157268 C161274  1.359   .     D
C159272 H123273  1.067   .     S
C159272 N9278   1.446   .     S
C161274 H125275  1.061   .     S
C163276 H127277  1.088   .     S
C163276 N11280  1.421   .     S
N9278  H129279  1.044   .     S
N11280 H131281  1.046   .     S
C164282 H132283  1.112   .     S
C164282 H133284  1.083   .     S
C166285 H136286  1.111   .     S
C166285 H137287  1.112   .     S
C169289 H145290  1.098   .     S
C169289 H146291  1.096   .     S
C171292 H149293  1.103   .     S
C171292 H150294  1.107   .     S
H151295 C174296  1.111   .     S
C174296 H155297  1.078   .     S
C174296 H156298  1.106   .     S
C1308  C3309   1.550   .     S
C1308  C7311   1.502   .     S
C1308  H3312   1.089   .     S
C1308  C29332  1.483   .     S
C3309  C9314   1.485   .     S
C3309  C11317  1.537   .     S
C3309  H15321  1.100   .     S
C5310  C7311   1.559   .     S
C5310  C9314   1.521   .     S
C5310  C13319  1.527   .     S
C5310  H17322  1.083   .     S
C7311  H5313   1.104   .     S
C7311  C31333  1.490   .     S
C9314  H7315   1.111   .     S
C9314  H9316   1.095   .     S
C11317 H11318  1.087   .     S
C11317 C13319  1.501   .     S
C11317 C15323  1.502   .     S
C13319 H13320  1.104   .     S
C13319 C25328  1.509   .     S
C15323 C17324  1.363   .     S
C15323 C25328  1.373   .     D
C17324 C19325  1.410   .     D
C17324 C41343  1.477   .     S
C19325 C21326  1.412   .     S
C19325 H19329  1.062   .     S
C21326 C23327  1.401   .     D
C23327 C25328  1.401   .     S
C29332 C31333  1.371   .     S
C29332 C27238  1.398   1_655 D
C31333 C33239  1.383   1_655 D
H25338 C35240  1.074   1_455 S
C39339 H27340  1.095   .     S
C39339 H29341  1.097   .     S
C39339 H31342  1.104   .     S
C39339 C33239  1.482   1_655 S
C41343 H33344  1.104   .     S
C41343 H35345  1.106   .     S
C41343 H37346  1.094   .     S
C45348 C51353  1.512   .     S
C45348 C53356  1.537   .     S
C45348 H51360  1.106   .     S
C45348 C43242  1.518   1_545 S
C47349 C51353  1.513   .     S
C47349 C55358  1.515   .     S
C47349 H53361  1.105   .     S
C47349 C49243  1.540   1_545 S
H39351 C43242  1.110   1_545 S
H41352 C49243  1.109   1_545 S
C51353 H43354  1.090   .     S
C51353 H45355  1.087   .     S
C53356 H47357  1.109   .     S
C53356 C55358  1.517   .     S
C53356 C57362  1.475   .     S
C55358 H49359  1.112   .     S
C55358 C67367  1.474   .     S
C57362 C59363  1.362   .     S
C57362 C67367  1.393   .     D
C59363 C61364  1.418   .     D
C61364 C63365  1.406   .     S
C63365 C65366  1.361   .     D
C63365 H55368  1.075   .     S
C65366 C67367  1.382   .     S
