data_1148
_audit_creation_date              2023-09-08
_audit_creation_method            'Materials Studio'
_symmetry_space_group_name_H-M    'P1'
_symmetry_Int_Tables_number       1
_symmetry_cell_setting            triclinic
loop_
_symmetry_equiv_pos_as_xyz
  x,y,z
_cell_length_a                    34.2700
_cell_length_b                    32.9100
_cell_length_c                    9.7000
_cell_angle_alpha                 88.5400
_cell_angle_beta                  84.8000
_cell_angle_gamma                 61.9500
loop_
_atom_site_label
_atom_site_type_symbol
_atom_site_fract_x
_atom_site_fract_y
_atom_site_fract_z
_atom_site_U_iso_or_equiv
_atom_site_adp_type
_atom_site_occupancy
N11    N     0.33907   0.32784   0.07643   0.00000  Uiso   1.00
H22    H     0.34853   0.33528  -0.02261   0.00000  Uiso   1.00
C23    C     0.58195   0.20606   0.24758   0.00000  Uiso   1.00
C44    C     0.53788   0.21646   0.33429   0.00000  Uiso   1.00
C65    C     0.53437   0.18277   0.14324   0.00000  Uiso   1.00
C86    C     0.57958   0.18307   0.11652   0.00000  Uiso   1.00
H47    H     0.58859   0.23586   0.22900   0.00000  Uiso   1.00
H68    H     0.58450   0.19915   0.01867   0.00000  Uiso   1.00
C109   C     0.53090   0.17570   0.29864   0.00000  Uiso   1.00
H810   H     0.49825   0.17901   0.34089   0.00000  Uiso   1.00
H1011  H     0.55694   0.14201   0.33243   0.00000  Uiso   1.00
C1212  C     0.50157   0.25687   0.25913   0.00000  Uiso   1.00
H1213  H     0.50677   0.28756   0.24015   0.00000  Uiso   1.00
C1414  C     0.49912   0.23374   0.12844   0.00000  Uiso   1.00
H1415  H     0.50262   0.25052   0.03034   0.00000  Uiso   1.00
H1616  H     0.53750   0.22264   0.44650   0.00000  Uiso   1.00
H1817  H     0.53063   0.15774   0.07827   0.00000  Uiso   1.00
C1618  C     0.45417   0.26822   0.29868   0.00000  Uiso   1.00
C1819  C     0.41925   0.31027   0.34687   0.00000  Uiso   1.00
C2020  C     0.38006   0.32888   0.27902   0.00000  Uiso   1.00
C2221  C     0.37769   0.30810   0.15473   0.00000  Uiso   1.00
C2422  C     0.41497   0.26690   0.10312   0.00000  Uiso   1.00
C2623  C     0.45197   0.24689   0.17913   0.00000  Uiso   1.00
H2024  H     0.35256   0.36073   0.32001   0.00000  Uiso   1.00
H2225  H     0.44714   0.21229  -0.05284   0.00000  Uiso   1.00
C2826  C     0.66241   0.15673   0.31534   0.00000  Uiso   1.00
C3027  C     0.62230   0.16193   0.27470   0.00000  Uiso   1.00
C3228  C     0.62037   0.14090   0.15397   0.00000  Uiso   1.00
C3429  C     0.65871   0.11424   0.06828   0.00000  Uiso   1.00
C3630  C     0.69981   0.10551   0.11300   0.00000  Uiso   1.00
C3831  C     0.70235   0.12607   0.23641   0.00000  Uiso   1.00
H2432  H     0.67639   0.20830   0.39677   0.00000  Uiso   1.00
H2633  H     0.73000   0.08472   0.04806   0.00000  Uiso   1.00
C4034  C     0.65554   0.09734  -0.07023   0.00000  Uiso   1.00
H2835  H     0.63881   0.07549  -0.05605   0.00000  Uiso   1.00
H3036  H     0.63596   0.12704  -0.13528   0.00000  Uiso   1.00
H3237  H     0.68889   0.07659  -0.12542   0.00000  Uiso   1.00
C4238  C     0.42438   0.33544   0.46482   0.00000  Uiso   1.00
H3439  H     0.43158   0.31365   0.55798   0.00000  Uiso   1.00
H3640  H     0.45216   0.34339   0.43703   0.00000  Uiso   1.00
H3841  H     0.39372   0.36827   0.49024   0.00000  Uiso   1.00
C4442  C     0.08295   0.67563   0.24164   0.00000  Uiso   1.00
C4643  C     0.06179   0.71915   0.33648   0.00000  Uiso   1.00
C4844  C     0.00884   0.69802   0.34414   0.00000  Uiso   1.00
C5045  C     0.04643   0.66169   0.24374   0.00000  Uiso   1.00
H4046  H     0.09626   0.67970   0.13609   0.00000  Uiso   1.00
H4247  H     0.03697   0.65872   0.13912   0.00000  Uiso   1.00
C5248  C     0.03424   0.70790   0.44758   0.00000  Uiso   1.00
H4449  H     0.01293   0.73718   0.52013   0.00000  Uiso   1.00
H4650  H     0.05419   0.67776   0.51097   0.00000  Uiso   1.00
C5451  C     0.02615   0.75655   0.25070   0.00000  Uiso   1.00
H4852  H     0.03777   0.76100   0.14316   0.00000  Uiso   1.00
C5653  C    -0.01063   0.74280   0.25964   0.00000  Uiso   1.00
H5054  H    -0.02192   0.74013   0.15777   0.00000  Uiso   1.00
H5255  H     0.08578   0.72895   0.37520   0.00000  Uiso   1.00
H5456  H    -0.01599   0.68769   0.38985   0.00000  Uiso   1.00
C5857  C    -0.00628   0.80082   0.32376   0.00000  Uiso   1.00
C6058  C    -0.01496   0.84515   0.28234   0.00000  Uiso   1.00
C6259  C    -0.05993   0.87825   0.26752   0.00000  Uiso   1.00
C6460  C    -0.09361   0.86493   0.28827   0.00000  Uiso   1.00
C6661  C    -0.08348   0.81899   0.31486   0.00000  Uiso   1.00
C6862  C    -0.03979   0.78767   0.33597   0.00000  Uiso   1.00
H5663  H    -0.12722   0.88950   0.26882   0.00000  Uiso   1.00
H5864  H    -0.12094   0.78730   0.41082   0.00000  Uiso   1.00
C7065  C     0.15526   0.59972   0.26365   0.00000  Uiso   1.00
C7266  C     0.11105   0.63005   0.30467   0.00000  Uiso   1.00
C7467  C     0.07790   0.61656   0.30258   0.00000  Uiso   1.00
C7668  C     0.08793   0.57273   0.25346   0.00000  Uiso   1.00
C7869  C     0.13324   0.54041   0.21972   0.00000  Uiso   1.00
C8070  C     0.16628   0.55450   0.22630   0.00000  Uiso   1.00
H5971  H     0.38761   0.23761  -0.03045   0.00000  Uiso   1.00
C8172  C     0.41600   0.24516  -0.03257   0.00000  Uiso   1.00
H6173  H     0.20023   0.53176   0.18853   0.00000  Uiso   1.00
C8374  C     0.05021   0.56358   0.22508   0.00000  Uiso   1.00
H6375  H     0.03077   0.56467   0.32417   0.00000  Uiso   1.00
H6576  H     0.02796   0.59025   0.15621   0.00000  Uiso   1.00
H6777  H     0.06154   0.52984   0.17310   0.00000  Uiso   1.00
C8578  C     0.02368   0.85425   0.24205   0.00000  Uiso   1.00
H6979  H     0.05580   0.82222   0.24369   0.00000  Uiso   1.00
H7180  H     0.02187   0.86799   0.13592   0.00000  Uiso   1.00
H7381  H     0.02439   0.87859   0.31727   0.00000  Uiso   1.00
C8782  C     0.04307   0.16633   0.31091   0.00000  Uiso   1.00
C8983  C     0.07736   0.16870   0.40039   0.00000  Uiso   1.00
C9184  C     0.02610   0.24196   0.38993   0.00000  Uiso   1.00
C9385  C     0.00747   0.21639   0.30660   0.00000  Uiso   1.00
H7586  H     0.05639   0.14923   0.20726   0.00000  Uiso   1.00
H7787  H    -0.00131   0.22921   0.20064   0.00000  Uiso   1.00
C9588  C     0.04851   0.20799   0.50248   0.00000  Uiso   1.00
H7989  H     0.06764   0.21845   0.56694   0.00000  Uiso   1.00
H8190  H     0.02530   0.20089   0.57414   0.00000  Uiso   1.00
C9791  C     0.10132   0.18981   0.30395   0.00000  Uiso   1.00
H8392  H     0.11615   0.17194   0.20201   0.00000  Uiso   1.00
C9993  C     0.06603   0.23973   0.29422   0.00000  Uiso   1.00
H8594  H     0.05899   0.25167   0.18648   0.00000  Uiso   1.00
H8795  H     0.09972   0.13566   0.44748   0.00000  Uiso   1.00
H8996  H     0.00122   0.27709   0.42723   0.00000  Uiso   1.00
C10197 C     0.12897   0.20732   0.36818   0.00000  Uiso   1.00
C10398 C     0.17394   0.19339   0.33553   0.00000  Uiso   1.00
C10599 C     0.18677   0.22703   0.29524   0.00000  Uiso   1.00
C107100 C     0.15455   0.27356   0.27636   0.00000  Uiso   1.00
C109101 C     0.10895   0.28626   0.30426   0.00000  Uiso   1.00
C111102 C     0.09695   0.25327   0.35587   0.00000  Uiso   1.00
H91103 H     0.22161   0.21570   0.26785   0.00000  Uiso   1.00
H93104 H     0.07535   0.36009   0.32207   0.00000  Uiso   1.00
C113105 C     0.99929   0.12034   0.35039   0.00000  Uiso   1.00
C115106 C     0.00839   0.15589   0.38353   0.00000  Uiso   1.00
C117107 C     0.97594   0.20194   0.38263   0.00000  Uiso   1.00
C119108 C     0.93268   0.21398   0.35575   0.00000  Uiso   1.00
C121109 C     0.92170   0.17847   0.33650   0.00000  Uiso   1.00
C123110 C     0.95513   0.13136   0.32596   0.00000  Uiso   1.00
H95111 H     1.06004   0.07023   0.24166   0.00000  Uiso   1.00
H97112 H     0.88759   0.18850   0.32101   0.00000  Uiso   1.00
C125113 C     0.89955   0.26367   0.34215   0.00000  Uiso   1.00
H99114 H     0.89550   0.28272   0.43970   0.00000  Uiso   1.00
H101115 H     0.91138   0.27903   0.25573   0.00000  Uiso   1.00
H103116 H     0.86662   0.26767   0.32100   0.00000  Uiso   1.00
C127117 C     0.20702   0.14320   0.33283   0.00000  Uiso   1.00
H105118 H     0.20477   0.12819   0.43499   0.00000  Uiso   1.00
H107119 H     0.19984   0.12483   0.25248   0.00000  Uiso   1.00
H109120 H     0.24149   0.13776   0.30959   0.00000  Uiso   1.00
C129121 C     0.90955   0.03413   0.34746   0.00000  Uiso   1.00
C131122 C     0.88384   0.08016   0.28653   0.00000  Uiso   1.00
C133123 C     0.83866   0.09255   0.24691   0.00000  Uiso   1.00
H57124 H     0.20196   0.14744   0.85642   0.00000  Uiso   1.00
C69125 C     0.47473   0.95038   0.65594   0.00000  Uiso   1.00
C71126 C     0.43118   0.98300   0.69692   0.00000  Uiso   1.00
C73127 C     0.39749   0.97041   0.72102   0.00000  Uiso   1.00
C75128 C     0.40587   0.92511   0.69658   0.00000  Uiso   1.00
C77129 C     0.45050   0.89086   0.66363   0.00000  Uiso   1.00
C79130 C     0.48458   0.90388   0.64710   0.00000  Uiso   1.00
H60131 H     0.51817   0.87835   0.61424   0.00000  Uiso   1.00
C82132 C     0.36712   0.91543   0.69572   0.00000  Uiso   1.00
H62133 H     0.34764   0.92503   0.79827   0.00000  Uiso   1.00
H64134 H     0.34535   0.93610   0.61515   0.00000  Uiso   1.00
H66135 H     0.37748   0.87869   0.67411   0.00000  Uiso   1.00
C84136 C     0.34079   0.20519   0.55249   0.00000  Uiso   1.00
H68137 H     0.37320   0.17338   0.55033   0.00000  Uiso   1.00
H70138 H     0.33450   0.21590   0.44393   0.00000  Uiso   1.00
H72139 H     0.34426   0.23159   0.61103   0.00000  Uiso   1.00
C86140 C     0.34651   0.52710   0.70897   0.00000  Uiso   1.00
C88141 C     0.37029   0.53275   0.83061   0.00000  Uiso   1.00
C90142 C     0.32600   0.60516   0.77497   0.00000  Uiso   1.00
C92143 C     0.31604   0.57679   0.67141   0.00000  Uiso   1.00
H74144 H     0.36846   0.50491   0.62020   0.00000  Uiso   1.00
H76145 H     0.31931   0.58457   0.55989   0.00000  Uiso   1.00
C94146 C     0.33437   0.57627   0.90481   0.00000  Uiso   1.00
H78147 H     0.34614   0.58883   0.98907   0.00000  Uiso   1.00
H80148 H     0.30504   0.57299   0.95043   0.00000  Uiso   1.00
C96149 C     0.40351   0.54881   0.76297   0.00000  Uiso   1.00
H82150 H     0.42717   0.52679   0.67671   0.00000  Uiso   1.00
C98151 C     0.37300   0.59850   0.72360   0.00000  Uiso   1.00
H84152 H     0.37798   0.60653   0.61329   0.00000  Uiso   1.00
H86153 H     0.38527   0.50209   0.89670   0.00000  Uiso   1.00
H88154 H     0.30004   0.64161   0.78968   0.00000  Uiso   1.00
C100155 C     0.42313   0.56834   0.85784   0.00000  Uiso   1.00
C102156 C     0.46663   0.55423   0.88699   0.00000  Uiso   1.00
C104157 C     0.47953   0.58868   0.90121   0.00000  Uiso   1.00
C106158 C     0.45224   0.63478   0.86164   0.00000  Uiso   1.00
C108159 C     0.41047   0.64636   0.81065   0.00000  Uiso   1.00
C110160 C     0.39570   0.61329   0.82147   0.00000  Uiso   1.00
H90161 H     0.51196   0.57933   0.93456   0.00000  Uiso   1.00
H92162 H     0.37071   0.72009   0.82312   0.00000  Uiso   1.00
C112163 C     0.29652   0.48640   0.71101   0.00000  Uiso   1.00
C114164 C     0.30537   0.52208   0.74558   0.00000  Uiso   1.00
C116165 C     0.27760   0.56761   0.71224   0.00000  Uiso   1.00
C118166 C     0.23968   0.57943   0.64433   0.00000  Uiso   1.00
C120167 C     0.22784   0.54476   0.62116   0.00000  Uiso   1.00
C122168 C     0.25572   0.49822   0.65501   0.00000  Uiso   1.00
H94169 H     0.36290   0.43135   0.66893   0.00000  Uiso   1.00
H96170 H     0.19843   0.55326   0.56876   0.00000  Uiso   1.00
C124171 C     0.21317   0.62759   0.59568   0.00000  Uiso   1.00
H98172 H     0.20291   0.65217   0.68446   0.00000  Uiso   1.00
H100173 H     0.23363   0.63582   0.51600   0.00000  Uiso   1.00
H102174 H     0.18278   0.63202   0.55067   0.00000  Uiso   1.00
C126175 C     0.49829   0.50415   0.90090   0.00000  Uiso   1.00
H104176 H     0.48503   0.48946   0.98547   0.00000  Uiso   1.00
H106177 H     0.50239   0.48549   0.80247   0.00000  Uiso   1.00
H108178 H     0.53140   0.49894   0.92479   0.00000  Uiso   1.00
C128179 C     0.23073   0.38436   0.68482   0.00000  Uiso   1.00
C130180 C     0.19520   0.43302   0.70279   0.00000  Uiso   1.00
C132181 C     0.14878   0.44177   0.74073   0.00000  Uiso   1.00
C134182 C     0.13694   0.40370   0.73085   0.00000  Uiso   1.00
C136183 C     0.17169   0.35805   0.67271   0.00000  Uiso   1.00
C138184 C     0.21939   0.34722   0.65396   0.00000  Uiso   1.00
O1185  O     0.16070   0.32944   0.64065   0.00000  Uiso   1.00
O3186  O     0.26936   0.37486   0.69559   0.00000  Uiso   1.00
O5187  O     0.12046   0.48037   0.77959   0.00000  Uiso   1.00
C140188 C     0.09595   0.40914   0.77346   0.00000  Uiso   1.00
H110189 H     0.08990   0.37950   0.77376   0.00000  Uiso   1.00
C142190 C     0.25225   0.30561   0.60654   0.00000  Uiso   1.00
H112191 H     0.28610   0.30020   0.59547   0.00000  Uiso   1.00
C144192 C     0.20381   0.46895   0.68007   0.00000  Uiso   1.00
H114193 H     0.17641   0.50373   0.69277   0.00000  Uiso   1.00
N2194  N     0.05963   0.45284   0.82098   0.00000  Uiso   1.00
H116195 H     0.05279   0.44843   0.92593   0.00000  Uiso   1.00
N4196  N     0.24586   0.46244   0.61467   0.00000  Uiso   1.00
H118197 H     0.24346   0.46445   0.50784   0.00000  Uiso   1.00
N6198  N     0.24323   0.27204   0.54448   0.00000  Uiso   1.00
H120199 H     0.25893   0.26434   0.44433   0.00000  Uiso   1.00
C146200 C     0.54674   0.75917   0.64722   0.00000  Uiso   1.00
C148201 C     0.50397   0.77233   0.73273   0.00000  Uiso   1.00
C150202 C     0.50071   0.73563   0.81693   0.00000  Uiso   1.00
C152203 C     0.52387   0.68756   0.76039   0.00000  Uiso   1.00
C154204 C     0.56515   0.67411   0.66612   0.00000  Uiso   1.00
C156205 C     0.57936   0.70946   0.62173   0.00000  Uiso   1.00
O7206  O     0.58706   0.63421   0.62447   0.00000  Uiso   1.00
O9207  O     0.55646   0.78891   0.60564   0.00000  Uiso   1.00
O11208 O     0.47889   0.74499   0.92931   0.00000  Uiso   1.00
C158209 C     0.50721   0.65756   0.78437   0.00000  Uiso   1.00
H122210 H     0.52547   0.62332   0.73686   0.00000  Uiso   1.00
C160211 C     0.62058   0.69779   0.56103   0.00000  Uiso   1.00
H124212 H     0.62927   0.72459   0.52804   0.00000  Uiso   1.00
C162213 C     0.46768   0.81440   0.73122   0.00000  Uiso   1.00
H126214 H     0.43911   0.82115   0.80369   0.00000  Uiso   1.00
N8215  N     0.46749   0.66867   0.87515   0.00000  Uiso   1.00
H128216 H     0.44306   0.70099   0.84858   0.00000  Uiso   1.00
N10217 N     0.45974   0.84574   0.61773   0.00000  Uiso   1.00
H130218 H     0.48417   0.83345   0.53468   0.00000  Uiso   1.00
N12219 N     0.65418   0.65059   0.53920   0.00000  Uiso   1.00
C165220 C     0.33127   0.43741   0.72783   0.00000  Uiso   1.00
H134221 H     0.33690   0.43096   0.83898   0.00000  Uiso   1.00
H135222 H     0.32172   0.41221   0.68961   0.00000  Uiso   1.00
C167223 C     0.38258   0.69169   0.74527   0.00000  Uiso   1.00
H138224 H     0.40241   0.69749   0.65744   0.00000  Uiso   1.00
H139225 H     0.35292   0.69245   0.70505   0.00000  Uiso   1.00
H140226 H     0.71569   0.56206   0.43039   0.00000  Uiso   1.00
C168227 C     0.74002   0.57554   0.42213   0.00000  Uiso   1.00
H141228 H     0.99033   0.51856   1.01034   0.00000  Uiso   1.00
H142229 H     0.77380   0.54580   0.40394   0.00000  Uiso   1.00
H144230 H     0.94516   0.56598   0.93565   0.00000  Uiso   1.00
C170231 C     0.20234   0.15683   0.74576   0.00000  Uiso   1.00
H147232 H     0.16872   0.18435   0.72601   0.00000  Uiso   1.00
H148233 H     0.21022   0.12621   0.68086   0.00000  Uiso   1.00
C172234 C     0.97902   0.53683   0.91248   0.00000  Uiso   1.00
H152235 H     0.52208   0.95476   0.50430   0.00000  Uiso   1.00
C173236 C     0.50966   0.96459   0.61440   0.00000  Uiso   1.00
H153237 H     0.49627   1.00240   0.62706   0.00000  Uiso   1.00
H154238 H     0.53768   0.94706   0.68010   0.00000  Uiso   1.00
C27239 C    -0.02069   0.50420   0.80625   0.00000  Uiso   1.00
C33240 C    -0.02102   0.45454   0.57141   0.00000  Uiso   1.00
C35241 C     1.01872   0.44199   0.63238   0.00000  Uiso   1.00
C37242 C     1.01933   0.46538   0.75402   0.00000  Uiso   1.00
C43243 C     0.40169   1.02612   0.62372   0.00000  Uiso   1.00
C49244 C     0.36460   1.01320   0.65498   0.00000  Uiso   1.00
C135247 C     0.82071   0.05916   0.26946   0.00000  Uiso   1.00
C137248 C     0.85295   0.00977   0.28575   0.00000  Uiso   1.00
C139249 C    -0.10047   0.99667   0.31199   0.00000  Uiso   1.00
O2250  O     0.84094  -0.01971   0.28055   0.00000  Uiso   1.00
O4251  O     0.93954   0.02661   0.41997   0.00000  Uiso   1.00
O6252  O     0.81663   0.12979   0.19457   0.00000  Uiso   1.00
C141253 C     0.77666   0.07282   0.27773   0.00000  Uiso   1.00
H111254 H     0.76487   0.04770   0.30118   0.00000  Uiso   1.00
C143255 C    -0.06676   0.95377   0.28701   0.00000  Uiso   1.00
H113256 H    -0.03363   0.94707   0.30630   0.00000  Uiso   1.00
C145257 C     0.90208   0.10801   0.25301   0.00000  Uiso   1.00
H115258 H     0.88430   0.13790   0.19043   0.00000  Uiso   1.00
N3259  N     0.74494   0.12063   0.26762   0.00000  Uiso   1.00
H117260 H     0.74283   0.13609   0.36247   0.00000  Uiso   1.00
N5261  N     0.94732   0.09481   0.27619   0.00000  Uiso   1.00
H119262 H     0.96545   0.08386   0.17961   0.00000  Uiso   1.00
N7263  N    -0.07167   0.92166   0.20203   0.00000  Uiso   1.00
H121264 H    -0.05198   0.91635   0.10870   0.00000  Uiso   1.00
C147265 C     0.22766   0.41816   0.23595   0.00000  Uiso   1.00
C149266 C     0.18225   0.42301   0.26396   0.00000  Uiso   1.00
C151267 C     0.17821   0.38073   0.29706   0.00000  Uiso   1.00
C153268 C     0.21570   0.33504   0.25253   0.00000  Uiso   1.00
C155269 C     0.26080   0.33072   0.22663   0.00000  Uiso   1.00
C157270 C     0.26601   0.37260   0.19794   0.00000  Uiso   1.00
O8271  O     0.29339   0.29279   0.22812   0.00000  Uiso   1.00
O10272 O     0.23380   0.45144   0.24943   0.00000  Uiso   1.00
O12273 O     0.14395   0.38354   0.35630   0.00000  Uiso   1.00
C159274 C     0.20922   0.29944   0.21753   0.00000  Uiso   1.00
H123275 H     0.23768   0.26801   0.17664   0.00000  Uiso   1.00
C161276 C     0.30361   0.37036   0.13378   0.00000  Uiso   1.00
H125277 H     0.30645   0.40168   0.11609   0.00000  Uiso   1.00
C163278 C     0.14516   0.46313   0.24661   0.00000  Uiso   1.00
H127279 H     0.11319   0.46502   0.27926   0.00000  Uiso   1.00
N9280  N     0.16563   0.30558   0.20047   0.00000  Uiso   1.00
H129281 H     0.16474   0.30013   0.09531   0.00000  Uiso   1.00
N11282 N     0.14475   0.49757   0.15062   0.00000  Uiso   1.00
H131283 H     0.17437   0.48594   0.08669   0.00000  Uiso   1.00
C164284 C     1.03740   0.07226   0.33368   0.00000  Uiso   1.00
H132285 H     1.05617   0.06357   0.42695   0.00000  Uiso   1.00
H133286 H     1.02637   0.04593   0.32168   0.00000  Uiso   1.00
C166287 C     0.07372   0.33251   0.26325   0.00000  Uiso   1.00
H136288 H     0.07884   0.33741   0.15066   0.00000  Uiso   1.00
H137289 H     0.04008   0.33557   0.28505   0.00000  Uiso   1.00
H143290 H     0.41396   0.26880  -0.11852   0.00000  Uiso   1.00
C169291 C    -0.11770   0.80294   0.31054   0.00000  Uiso   1.00
H145292 H    -0.15064   0.83191   0.29166   0.00000  Uiso   1.00
H146293 H    -0.10751   0.77679   0.22625   0.00000  Uiso   1.00
C171294 C     0.66144   0.18604   0.43352   0.00000  Uiso   1.00
H149295 H     0.62691   0.20868   0.47779   0.00000  Uiso   1.00
H150296 H     0.68000   0.16375   0.51755   0.00000  Uiso   1.00
H151297 H     0.20219   0.61301   0.13536   0.00000  Uiso   1.00
C174298 C     0.18961   0.61589   0.24612   0.00000  Uiso   1.00
H155299 H     0.17563   0.65232   0.28137   0.00000  Uiso   1.00
H156300 H     0.21771   0.59416   0.30780   0.00000  Uiso   1.00
H1308  H     0.66152   0.64712   0.43191   0.00000  Uiso   1.00
C1309  C     0.90013   0.55478   0.71340   0.00000  Uiso   1.00
C3310  C     0.85435   0.56742   0.79359   0.00000  Uiso   1.00
C5311  C     0.85532   0.52640   0.61302   0.00000  Uiso   1.00
C7312  C     0.90037   0.52715   0.58842   0.00000  Uiso   1.00
H3313  H     0.90718   0.58394   0.68718   0.00000  Uiso   1.00
H5314  H     0.90745   0.53955   0.48614   0.00000  Uiso   1.00
C9315  C     0.84887   0.52486   0.77029   0.00000  Uiso   1.00
H7316  H     0.81589   0.52858   0.81032   0.00000  Uiso   1.00
H9317  H     0.87423   0.49303   0.81569   0.00000  Uiso   1.00
C11318 C     0.81911   0.60416   0.70467   0.00000  Uiso   1.00
H11319 H     0.82358   0.63480   0.67657   0.00000  Uiso   1.00
C13320 C     0.81979   0.57580   0.58095   0.00000  Uiso   1.00
H13321 H     0.82449   0.58929   0.47786   0.00000  Uiso   1.00
H15322 H     0.85136   0.57777   0.90367   0.00000  Uiso   1.00
H17323 H     0.85359   0.49853   0.55605   0.00000  Uiso   1.00
C15324 C     0.77165   0.61452   0.73891   0.00000  Uiso   1.00
C17325 C     0.73393   0.65517   0.78097   0.00000  Uiso   1.00
C19326 C     0.69441   0.66561   0.72070   0.00000  Uiso   1.00
C21327 C     0.69456   0.63983   0.60381   0.00000  Uiso   1.00
C23328 C     0.73547   0.60177   0.55241   0.00000  Uiso   1.00
C25329 C     0.77235   0.58855   0.62745   0.00000  Uiso   1.00
H19330 H     0.66414   0.69507   0.76123   0.00000  Uiso   1.00
H21331 H     0.73416   0.59845   0.33184   0.00000  Uiso   1.00
C29333 C     0.93971   0.51167   0.75463   0.00000  Uiso   1.00
C31334 C     0.93966   0.48691   0.64110   0.00000  Uiso   1.00
H23338 H     1.00149   0.55102   0.87316   0.00000  Uiso   1.00
H25339 H     0.04908   0.41553   0.58040   0.00000  Uiso   1.00
C39340 C     0.97901   0.43345   0.43649   0.00000  Uiso   1.00
H27341 H     0.99369   0.39562   0.44760   0.00000  Uiso   1.00
H29342 H     0.94476   0.44656   0.40561   0.00000  Uiso   1.00
H31343 H     0.99886   0.44153   0.35418   0.00000  Uiso   1.00
C41344 C     0.73593   0.68647   0.88643   0.00000  Uiso   1.00
H33345 H     0.74658   0.66758   0.98391   0.00000  Uiso   1.00
H35346 H     0.76023   0.69833   0.84704   0.00000  Uiso   1.00
H37347 H     0.70309   0.71716   0.90929   0.00000  Uiso   1.00
C45349 C     0.38338   0.07304   0.70118   0.00000  Uiso   1.00
C47350 C     0.33017   0.05319   0.75280   0.00000  Uiso   1.00
H39352 H     0.41220   0.02580   0.51158   0.00000  Uiso   1.00
H41353 H     0.35180   0.00661   0.56120   0.00000  Uiso   1.00
C51354 C     0.35909   0.06635   0.83173   0.00000  Uiso   1.00
H43355 H     0.34016   0.09811   0.89709   0.00000  Uiso   1.00
H45356 H     0.38096   0.03870   0.89929   0.00000  Uiso   1.00
C53357 C     0.34486   0.10752   0.61727   0.00000  Uiso   1.00
H47358 H     0.35310   0.10791   0.50371   0.00000  Uiso   1.00
C55359 C     0.30808   0.09464   0.65649   0.00000  Uiso   1.00
H49360 H     0.29320   0.08872   0.56666   0.00000  Uiso   1.00
H51361 H     0.40879   0.08382   0.71863   0.00000  Uiso   1.00
H53362 H     0.30657   0.04498   0.81810   0.00000  Uiso   1.00
C57363 C     0.31454   0.15430   0.68123   0.00000  Uiso   1.00
C59364 C     0.30392   0.19722   0.62206   0.00000  Uiso   1.00
C61365 C     0.25807   0.23003   0.62060   0.00000  Uiso   1.00
C63366 C     0.22531   0.21728   0.66917   0.00000  Uiso   1.00
C65367 C     0.23679   0.17239   0.71349   0.00000  Uiso   1.00
C67368 C     0.28151   0.14181   0.72220   0.00000  Uiso   1.00
H55369 H     0.19074   0.24122   0.65976   0.00000  Uiso   1.00
loop_
_geom_bond_atom_site_label_1
_geom_bond_atom_site_label_2
_geom_bond_distance
_geom_bond_site_symmetry_2
_ccdc_geom_bond_type
N11    H22     1.046   .     S
N11    C2221   1.449   .     S
N11    C161276  1.436   .     S
C23    C44     1.550   .     S
C23    C86     1.523   .     S
C23    H47     1.113   .     S
C23    C3027   1.499   .     S
C44    C109    1.522   .     S
C44    C1212   1.552   .     S
C44    H1616   1.110   .     S
C65    C86     1.552   .     S
C65    C109    1.522   .     S
C65    C1414   1.551   .     S
C65    H1817   1.110   .     S
C86    H68     1.113   .     S
C86    C3228   1.501   .     S
C109   H810    1.112   .     S
C109   H1011   1.112   .     S
C1212  H1213   1.113   .     S
C1212  C1414   1.524   .     S
C1212  C1618   1.500   .     S
C1414  H1415   1.113   .     S
C1414  C2623   1.500   .     S
C1618  C1819   1.393   .     D
C1618  C2623   1.397   .     S
C1819  C2020   1.406   .     S
C1819  C4238   1.499   .     S
C2020  C2221   1.428   .     D
C2020  H2024   1.081   .     S
C2221  C2422   1.418   .     S
C2422  C2623   1.394   .     D
C2422  C8172   1.504   .     S
H2225  C8172   1.111   .     S
C2826  C3027   1.396   .     S
C2826  C3831   1.424   .     D
C2826  C171294  1.505   .     S
C3027  C3228   1.398   .     D
C3228  C3429   1.394   .     S
C3429  C3630   1.407   .     D
C3429  C4034   1.499   .     S
C3630  C3831   1.419   .     S
C3630  H2633   1.083   .     S
C3831  N3259   1.444   .     S
H2432  C171294  1.110   .     S
C4034  H2835   1.110   .     S
C4034  H3036   1.110   .     S
C4034  H3237   1.110   .     S
C4238  H3439   1.110   .     S
C4238  H3640   1.110   .     S
C4238  H3841   1.110   .     S
C4442  C4643   1.547   .     S
C4442  C5045   1.521   .     S
C4442  H4046   1.114   .     S
C4442  C7266   1.501   .     S
C4643  C5248   1.521   .     S
C4643  C5451   1.555   .     S
C4643  H5255   1.110   .     S
C4844  C5045   1.556   .     S
C4844  C5248   1.520   .     S
C4844  C5653   1.550   .     S
C4844  H5456   1.110   .     S
C5045  H4247   1.113   .     S
C5045  C7467   1.502   .     S
C5248  H4449   1.112   .     S
C5248  H4650   1.112   .     S
C5451  H4852   1.114   .     S
C5451  C5653   1.522   .     S
C5451  C5857   1.499   .     S
C5653  H5054   1.113   .     S
C5653  C6862   1.504   .     S
C5857  C6058   1.401   .     S
C5857  C6862   1.400   .     D
C6058  C6259   1.427   .     D
C6058  C8578   1.506   .     S
C6259  C6460   1.412   .     S
C6259  N7263   1.437   .     S
C6460  C6661   1.406   .     D
C6460  H5663   1.082   .     S
C6661  C6862   1.393   .     S
C6661  C169291  1.500   .     S
H5864  C169291  1.110   .     S
C7065  C7266   1.392   .     S
C7065  C8070   1.401   .     D
C7065  C174298  1.499   .     S
C7266  C7467   1.403   .     D
C7467  C7668   1.402   .     S
C7668  C7869   1.422   .     D
C7668  C8374   1.507   .     S
C7869  C8070   1.418   .     S
C7869  N11282  1.439   .     S
C8070  H6173   1.080   .     S
H5971  C8172   1.110   .     S
C8172  H143290  1.110   .     S
C8374  H6375   1.110   .     S
C8374  H6576   1.110   .     S
C8374  H6777   1.107   .     S
C8578  H6979   1.111   .     S
C8578  H7180   1.109   .     S
C8578  H7381   1.107   .     S
C8782  C8983   1.554   .     S
C8782  C9385   1.523   .     S
C8782  H7586   1.114   .     S
C8782  C115106  1.499   .     S
C8983  C9588   1.522   .     S
C8983  C9791   1.548   .     S
C8983  H8795   1.110   .     S
C9184  C9385   1.550   .     S
C9184  C9588   1.521   .     S
C9184  C9993   1.555   .     S
C9184  H8996   1.110   .     S
C9385  H7787   1.113   .     S
C9385  C117107  1.503   1_455 S
C9588  H7989   1.112   .     S
C9588  H8190   1.112   .     S
C9791  H8392   1.113   .     S
C9791  C9993   1.521   .     S
C9791  C10197  1.502   .     S
C9993  H8594   1.114   .     S
C9993  C111102  1.500   .     S
C10197 C10398  1.393   .     D
C10197 C111102  1.400   .     S
C10398 C10599  1.406   .     S
C10398 C127117  1.500   .     S
C10599 C107100  1.425   .     D
C10599 H91103  1.079   .     S
C107100 C109101  1.416   .     S
C107100 N9280   1.443   .     S
C109101 C111102  1.398   .     D
C109101 C166287  1.504   .     S
H93104 C166287  1.110   .     S
C113105 C123110  1.422   .     D
C113105 C164284  1.506   .     S
C113105 C115106  1.396   1_655 S
C115106 C113105  1.396   1_455 S
C115106 C117107  1.396   1_455 D
C117107 C119108  1.391   .     S
C117107 C9385   1.503   1_655 S
C117107 C115106  1.396   1_655 D
C119108 C121109  1.407   .     D
C119108 C125113  1.500   .     S
C121109 C123110  1.429   .     S
C121109 H97112  1.079   .     S
C123110 N5261   1.452   .     S
H95111 C164284  1.110   .     S
C125113 H99114  1.110   .     S
C125113 H101115  1.110   .     S
C125113 H103116  1.111   .     S
C127117 H105118  1.109   .     S
C127117 H107119  1.110   .     S
C127117 H109120  1.110   .     S
C129121 C131122  1.488   .     S
C129121 O4251   1.223   .     D
C129121 C139249  1.482   1_645 S
C131122 C133123  1.489   .     S
C131122 C145257  1.350   .     D
C133123 C135247  1.494   .     S
C133123 O6252   1.224   .     D
H57124 C170231  1.110   .     S
C69125 C71126  1.395   .     S
C69125 C79130  1.407   .     D
C69125 C173236  1.498   .     S
C71126 C73127  1.398   .     D
C71126 C43243  1.506   .     S
C73127 C75128  1.402   .     S
C73127 C49244  1.502   .     S
C75128 C77129  1.421   .     D
C75128 C82132  1.505   .     S
C77129 C79130  1.417   .     S
C77129 N10217  1.439   .     S
C79130 H60131  1.082   .     S
C82132 H62133  1.110   .     S
C82132 H64134  1.110   .     S
C82132 H66135  1.108   .     S
C84136 H68137  1.111   .     S
C84136 H70138  1.109   .     S
C84136 H72139  1.107   .     S
C84136 C59364  1.506   .     S
C86140 C88141  1.555   .     S
C86140 C92143  1.526   .     S
C86140 H74144  1.113   .     S
C86140 C114164  1.505   .     S
C88141 C94146  1.523   .     S
C88141 C96149  1.555   .     S
C88141 H86153  1.110   .     S
C90142 C92143  1.551   .     S
C90142 C94146  1.523   .     S
C90142 C98151  1.555   .     S
C90142 H88154  1.110   .     S
C92143 H76145  1.113   .     S
C92143 C116165  1.502   .     S
C94146 H78147  1.111   .     S
C94146 H80148  1.112   .     S
C96149 H82150  1.113   .     S
C96149 C98151  1.532   .     S
C96149 C100155  1.504   .     S
C98151 H84152  1.113   .     S
C98151 C110160  1.502   .     S
C100155 C102156  1.392   .     D
C100155 C110160  1.386   .     S
C102156 C104157  1.411   .     S
C102156 C126175  1.498   .     S
C104157 C106158  1.423   .     D
C104157 H90161  1.083   .     S
C106158 C108159  1.430   .     S
C106158 N8215   1.450   .     S
C108159 C110160  1.398   .     D
C108159 C167223  1.504   .     S
H92162 C167223  1.110   .     S
C112163 C114164  1.399   .     S
C112163 C122168  1.420   .     D
C112163 C165220  1.503   .     S
C114164 C116165  1.395   .     D
C116165 C118166  1.393   .     S
C118166 C120167  1.408   .     D
C118166 C124171  1.498   .     S
C120167 C122168  1.422   .     S
C120167 H96170  1.083   .     S
C122168 N4196   1.441   .     S
H94169 C165220  1.110   .     S
C124171 H98172  1.110   .     S
C124171 H100173  1.110   .     S
C124171 H102174  1.110   .     S
C126175 H104176  1.110   .     S
C126175 H106177  1.110   .     S
C126175 H108178  1.111   .     S
C128179 C130180  1.490   .     S
C128179 C138184  1.490   .     S
C128179 O3186   1.223   .     D
C130180 C132181  1.489   .     S
C130180 C144192  1.355   .     D
C132181 C134182  1.495   .     S
C132181 O5187   1.223   .     D
C134182 C136183  1.494   .     S
C134182 C140188  1.356   .     D
C136183 C138184  1.495   .     S
C136183 O1185   1.223   .     D
C138184 C142190  1.358   .     D
C140188 H110189  1.088   .     S
C140188 N2194   1.441   .     S
C142190 H112191  1.083   .     S
C142190 N6198   1.438   .     S
C144192 H114193  1.087   .     S
C144192 N4196   1.441   .     S
N2194  H116195  1.046   .     S
N2194  C37242  1.453   1_455 S
N4196  H118197  1.045   .     S
N6198  H120199  1.043   .     S
N6198  C61365  1.439   .     S
C146200 C148201  1.492   .     S
C146200 C156205  1.496   .     S
C146200 O9207   1.222   .     D
C148201 C150202  1.483   .     S
C148201 C162213  1.359   .     D
C150202 C152203  1.489   .     S
C150202 O11208  1.223   .     D
C152203 C154204  1.494   .     S
C152203 C158209  1.360   .     D
C154204 C156205  1.498   .     S
C154204 O7206   1.223   .     D
C156205 C160211  1.357   .     D
C158209 H122210  1.088   .     S
C158209 N8215   1.447   .     S
C160211 H124212  1.088   .     S
C160211 N12219  1.440   .     S
C162213 H126214  1.087   .     S
C162213 N10217  1.443   .     S
N8215  H128216  1.042   .     S
N10217 H130218  1.044   .     S
N12219 H1308   1.045   .     S
N12219 C21327  1.455   .     S
C165220 H134221  1.110   .     S
C165220 H135222  1.107   .     S
C167223 H138224  1.110   .     S
C167223 H139225  1.111   .     S
H140226 C168227  1.110   .     S
C168227 H142229  1.111   .     S
C168227 C23328  1.503   .     S
C168227 H21331  1.110   .     S
H141228 C172234  1.110   .     S
H144230 C172234  1.111   .     S
C170231 H147232  1.111   .     S
C170231 H148233  1.109   .     S
C170231 C65367  1.499   .     S
C172234 H23338  1.110   .     S
C172234 C27239  1.503   1_655 S
H152235 C173236  1.110   .     S
C173236 H153237  1.111   .     S
C173236 H154238  1.110   .     S
C27239 C172234  1.503   1_455 S
C27239 C37242  1.424   1_455 S
C27239 C29333  1.399   1_455 D
C33240 C35241  1.407   1_455 S
C33240 C31334  1.389   1_455 D
C33240 C39340  1.497   1_455 S
C35241 C37242  1.432   .     D
C35241 C33240  1.407   1_655 S
C35241 H25339  1.082   1_655 S
C37242 N2194   1.453   1_655 S
C37242 C27239  1.424   1_655 S
C43243 C49244  1.523   .     S
C43243 C45349  1.551   1_565 S
C43243 H39352  1.113   1_565 S
C49244 C47350  1.557   1_565 S
C49244 H41353  1.113   1_565 S
C135247 C137248  1.489   .     S
C135247 C141253  1.352   .     D
C137248 O2250   1.223   .     D
C137248 C139249  1.490   1_645 S
C139249 C143255  1.349   .     D
C139249 C129121  1.482   1_465 S
C139249 C137248  1.490   1_465 S
C141253 H111254  1.089   .     S
C141253 N3259   1.439   .     S
C143255 H113256  1.083   .     S
C143255 N7263   1.436   .     S
C145257 H115258  1.086   .     S
C145257 N5261   1.438   .     S
N3259  H117260  1.043   .     S
N5261  H119262  1.046   .     S
N7263  H121264  1.045   .     S
C147265 C149266  1.488   .     S
C147265 C157270  1.483   .     S
C147265 O10272  1.221   .     D
C149266 C151267  1.486   .     S
C149266 C163278  1.355   .     D
C151267 C153268  1.488   .     S
C151267 O12273  1.223   .     D
C153268 C155269  1.482   .     S
C153268 C159274  1.348   .     D
C155269 C157270  1.487   .     S
C155269 O8271   1.223   .     D
C157270 C161276  1.349   .     D
C159274 H123275  1.086   .     S
C159274 N9280   1.435   .     S
C161276 H125277  1.088   .     S
C163278 H127279  1.086   .     S
C163278 N11282  1.444   .     S
N9280  H129281  1.046   .     S
N11282 H131283  1.046   .     S
C164284 H132285  1.111   .     S
C164284 H133286  1.108   .     S
C166287 H136288  1.110   .     S
C166287 H137289  1.110   .     S
C169291 H145292  1.110   .     S
C169291 H146293  1.110   .     S
C171294 H149295  1.111   .     S
C171294 H150296  1.110   .     S
H151297 C174298  1.110   .     S
C174298 H155299  1.111   .     S
C174298 H156300  1.110   .     S
C1309  C3310   1.556   .     S
C1309  C7312   1.531   .     S
C1309  H3313   1.113   .     S
C1309  C29333  1.507   .     S
C3310  C9315   1.523   .     S
C3310  C11318  1.558   .     S
C3310  H15322  1.110   .     S
C5311  C7312   1.552   .     S
C5311  C9315   1.525   .     S
C5311  C13320  1.550   .     S
C5311  H17323  1.110   .     S
C7312  H5314   1.113   .     S
C7312  C31334  1.497   .     S
C9315  H7316   1.112   .     S
C9315  H9317   1.112   .     S
C11318 H11319  1.113   .     S
C11318 C13320  1.531   .     S
C11318 C15324  1.503   .     S
C13320 H13321  1.113   .     S
C13320 C25329  1.503   .     S
C15324 C17325  1.390   .     S
C15324 C25329  1.387   .     D
C17325 C19326  1.411   .     D
C17325 C41344  1.498   .     S
C19326 C21327  1.432   .     S
C19326 H19330  1.082   .     S
C21327 C23328  1.427   .     D
C23328 C25329  1.396   .     S
C29333 C31334  1.387   .     S
C29333 C27239  1.399   1_655 D
C31334 C33240  1.389   1_655 D
H25339 C35241  1.082   1_455 S
C39340 H27341  1.108   .     S
C39340 H29342  1.111   .     S
C39340 H31343  1.110   .     S
C39340 C33240  1.497   1_655 S
C41344 H33345  1.110   .     S
C41344 H35346  1.110   .     S
C41344 H37347  1.110   .     S
C45349 C51354  1.521   .     S
C45349 C53357  1.559   .     S
C45349 H51361  1.110   .     S
C45349 C43243  1.551   1_545 S
C47350 C51354  1.521   .     S
C47350 C55359  1.549   .     S
C47350 H53362  1.110   .     S
C47350 C49244  1.557   1_545 S
H39352 C43243  1.113   1_545 S
H41353 C49244  1.113   1_545 S
C51354 H43355  1.112   .     S
C51354 H45356  1.112   .     S
C53357 H47358  1.113   .     S
C53357 C55359  1.523   .     S
C53357 C57363  1.504   .     S
C55359 H49360  1.113   .     S
C55359 C67368  1.504   .     S
C57363 C59364  1.404   .     S
C57363 C67368  1.399   .     D
C59364 C61365  1.429   .     D
C61365 C63366  1.413   .     S
C63366 C65367  1.405   .     D
C63366 H55369  1.082   .     S
C65367 C67368  1.392   .     S
