data_115
_audit_creation_date              2023-09-08
_audit_creation_method            'Materials Studio'
_symmetry_space_group_name_H-M    'P1'
_symmetry_Int_Tables_number       1
_symmetry_cell_setting            triclinic
loop_
_symmetry_equiv_pos_as_xyz
  x,y,z
_cell_length_a                    42.4325
_cell_length_b                    30.6471
_cell_length_c                    4.6597
_cell_angle_alpha                 90.0000
_cell_angle_beta                  90.0000
_cell_angle_gamma                 90.0000
loop_
_atom_site_label
_atom_site_type_symbol
_atom_site_fract_x
_atom_site_fract_y
_atom_site_fract_z
_atom_site_U_iso_or_equiv
_atom_site_adp_type
_atom_site_occupancy
C1     C     0.36299   0.37105  -0.29137   0.00000  Uiso   1.00
C2     C     0.39177   0.39473  -0.28666   0.00000  Uiso   1.00
C3     C     0.41548   0.38815  -0.07506   0.00000  Uiso   1.00
C4     C     0.35646   0.33762  -0.09482   0.00000  Uiso   1.00
H5     H     0.34534   0.37940  -0.45074   0.00000  Uiso   1.00
H6     H     0.39487   0.42022  -0.44406   0.00000  Uiso   1.00
C7     C     0.61895   0.67228   0.10282   0.00000  Uiso   1.00
C8     C     0.59017   0.64744   0.11280   0.00000  Uiso   1.00
H9     H     0.62217   0.69786   0.25858   0.00000  Uiso   1.00
H10    H     0.57344   0.65431   0.28266   0.00000  Uiso   1.00
C11    C     0.47396   0.40793  -0.01427   0.00000  Uiso   1.00
C12    C     0.43312   0.46475  -0.01753   0.00000  Uiso   1.00
C13    C     0.48388   0.36511  -0.01326   0.00000  Uiso   1.00
C14    C     0.40183   0.47825  -0.00177   0.00000  Uiso   1.00
H15    H     0.46952   0.33619  -0.03042   0.00000  Uiso   1.00
H16    H     0.38037   0.45923   0.01052   0.00000  Uiso   1.00
C17    C     0.55868   0.42009   0.03631   0.00000  Uiso   1.00
N18    N     0.17320   0.81754  -0.10429   0.00000  Uiso   1.00
C19    C     0.18580   0.78438   0.05917   0.00000  Uiso   1.00
C20    C     0.21780   0.76755   0.02632   0.00000  Uiso   1.00
C21    C     0.23997   0.78486  -0.16993   0.00000  Uiso   1.00
C22    C     0.22869   0.73212   0.19570   0.00000  Uiso   1.00
H23    H     0.17094   0.76981   0.22175   0.00000  Uiso   1.00
H24    H     0.23317   0.81180  -0.30567   0.00000  Uiso   1.00
F25    F     0.29108   0.78654  -0.38936   0.00000  Uiso   1.00
C26    C     0.63701   0.62895  -0.29137   0.00000  Uiso   1.00
C27    C     0.60823   0.60527  -0.28666   0.00000  Uiso   1.00
C28    C     0.58452   0.61185  -0.07506   0.00000  Uiso   1.00
C29    C     0.64354   0.66238  -0.09482   0.00000  Uiso   1.00
H30    H     0.65466   0.62060  -0.45074   0.00000  Uiso   1.00
H31    H     0.60513   0.57978  -0.44406   0.00000  Uiso   1.00
C32    C     0.38105   0.32772   0.10282   0.00000  Uiso   1.00
C33    C     0.40983   0.35256   0.11280   0.00000  Uiso   1.00
H34    H     0.37783   0.30214   0.25858   0.00000  Uiso   1.00
H35    H     0.42656   0.34569   0.28266   0.00000  Uiso   1.00
C36    C     0.52604   0.59207  -0.01427   0.00000  Uiso   1.00
C37    C     0.56688   0.53525  -0.01753   0.00000  Uiso   1.00
C38    C     0.51612   0.63489  -0.01326   0.00000  Uiso   1.00
C39    C     0.59817   0.52175  -0.00177   0.00000  Uiso   1.00
H40    H     0.53048   0.66381  -0.03042   0.00000  Uiso   1.00
H41    H     0.61963   0.54077   0.01052   0.00000  Uiso   1.00
C42    C     0.44132   0.57991   0.03631   0.00000  Uiso   1.00
N43    N     0.82680   0.18246  -0.10429   0.00000  Uiso   1.00
C44    C     0.81420   0.21562   0.05917   0.00000  Uiso   1.00
C45    C     0.78220   0.23245   0.02632   0.00000  Uiso   1.00
C46    C     0.76003   0.21514  -0.16993   0.00000  Uiso   1.00
C47    C     0.77131   0.26788   0.19570   0.00000  Uiso   1.00
H48    H     0.82906   0.23019   0.22175   0.00000  Uiso   1.00
H49    H     0.76683   0.18820  -0.30567   0.00000  Uiso   1.00
F50    F     0.70892   0.21346  -0.38936   0.00000  Uiso   1.00
C51    C     0.63701   0.37105   0.29137   0.00000  Uiso   1.00
C52    C     0.60823   0.39473   0.28666   0.00000  Uiso   1.00
C53    C     0.58452   0.38815   0.07506   0.00000  Uiso   1.00
C54    C     0.64354   0.33762   0.09482   0.00000  Uiso   1.00
H55    H     0.65466   0.37940   0.45074   0.00000  Uiso   1.00
H56    H     0.60513   0.42022   0.44406   0.00000  Uiso   1.00
C57    C     0.38105   0.67228  -0.10282   0.00000  Uiso   1.00
C58    C     0.40983   0.64744  -0.11280   0.00000  Uiso   1.00
H59    H     0.37783   0.69786  -0.25858   0.00000  Uiso   1.00
H60    H     0.42656   0.65431  -0.28266   0.00000  Uiso   1.00
C61    C     0.52604   0.40793   0.01427   0.00000  Uiso   1.00
C62    C     0.56688   0.46475   0.01753   0.00000  Uiso   1.00
C63    C     0.51612   0.36511   0.01326   0.00000  Uiso   1.00
C64    C     0.59817   0.47825   0.00177   0.00000  Uiso   1.00
H65    H     0.53048   0.33619   0.03042   0.00000  Uiso   1.00
H66    H     0.61963   0.45923  -0.01052   0.00000  Uiso   1.00
C67    C     0.44132   0.42009  -0.03631   0.00000  Uiso   1.00
N68    N     0.82680   0.81754   0.10429   0.00000  Uiso   1.00
C69    C     0.81420   0.78438  -0.05917   0.00000  Uiso   1.00
C70    C     0.78220   0.76755  -0.02632   0.00000  Uiso   1.00
C71    C     0.76003   0.78486   0.16993   0.00000  Uiso   1.00
C72    C     0.77131   0.73212  -0.19570   0.00000  Uiso   1.00
H73    H     0.82906   0.76981  -0.22175   0.00000  Uiso   1.00
H74    H     0.76683   0.81180   0.30567   0.00000  Uiso   1.00
F75    F     0.70892   0.78654   0.38936   0.00000  Uiso   1.00
C76    C     0.36299   0.62895   0.29137   0.00000  Uiso   1.00
C77    C     0.39177   0.60527   0.28666   0.00000  Uiso   1.00
C78    C     0.41548   0.61185   0.07506   0.00000  Uiso   1.00
C79    C     0.35646   0.66238   0.09482   0.00000  Uiso   1.00
H80    H     0.34534   0.62060   0.45074   0.00000  Uiso   1.00
H81    H     0.39487   0.57978   0.44406   0.00000  Uiso   1.00
C82    C     0.61895   0.32772  -0.10282   0.00000  Uiso   1.00
C83    C     0.59017   0.35256  -0.11280   0.00000  Uiso   1.00
H84    H     0.62217   0.30214  -0.25858   0.00000  Uiso   1.00
H85    H     0.57344   0.34569  -0.28266   0.00000  Uiso   1.00
C86    C     0.47396   0.59207   0.01427   0.00000  Uiso   1.00
C87    C     0.43312   0.53525   0.01753   0.00000  Uiso   1.00
C88    C     0.48388   0.63489   0.01326   0.00000  Uiso   1.00
C89    C     0.40183   0.52175   0.00177   0.00000  Uiso   1.00
H90    H     0.46952   0.66381   0.03042   0.00000  Uiso   1.00
H91    H     0.38037   0.54077  -0.01052   0.00000  Uiso   1.00
C92    C     0.55868   0.57991  -0.03631   0.00000  Uiso   1.00
N93    N     0.17320   0.18246   0.10429   0.00000  Uiso   1.00
C94    C     0.18580   0.21562  -0.05917   0.00000  Uiso   1.00
C95    C     0.21780   0.23245  -0.02632   0.00000  Uiso   1.00
C96    C     0.23997   0.21514   0.16993   0.00000  Uiso   1.00
C97    C     0.22869   0.26788  -0.19570   0.00000  Uiso   1.00
H98    H     0.17094   0.23019  -0.22175   0.00000  Uiso   1.00
H99    H     0.23317   0.18820   0.30567   0.00000  Uiso   1.00
F100   F     0.29108   0.21346   0.38936   0.00000  Uiso   1.00
C101   C     0.13701   0.12895   0.29137   0.00000  Uiso   1.00
C102   C     0.10823   0.10527   0.28666   0.00000  Uiso   1.00
C103   C     0.08452   0.11185   0.07506   0.00000  Uiso   1.00
C104   C     0.14354   0.16238   0.09482   0.00000  Uiso   1.00
H105   H     0.15466   0.12060   0.45074   0.00000  Uiso   1.00
H106   H     0.10513   0.07978   0.44406   0.00000  Uiso   1.00
C107   C     0.88105   0.82772  -0.10282   0.00000  Uiso   1.00
C108   C     0.90983   0.85256  -0.11280   0.00000  Uiso   1.00
H109   H     0.87783   0.80214  -0.25858   0.00000  Uiso   1.00
H110   H     0.92656   0.84569  -0.28266   0.00000  Uiso   1.00
C111   C     0.02604   0.09207   0.01427   0.00000  Uiso   1.00
C112   C     0.06688   0.03525   0.01753   0.00000  Uiso   1.00
C113   C     0.01612   0.13489   0.01326   0.00000  Uiso   1.00
C114   C     0.09817   0.02175   0.00177   0.00000  Uiso   1.00
H115   H     0.03048   0.16381   0.03042   0.00000  Uiso   1.00
H116   H     0.11963   0.04077  -0.01052   0.00000  Uiso   1.00
C117   C     0.94132   0.07991  -0.03631   0.00000  Uiso   1.00
N118   N     0.32680   0.68246   0.10429   0.00000  Uiso   1.00
C119   C     0.31420   0.71562  -0.05917   0.00000  Uiso   1.00
C120   C     0.28220   0.73245  -0.02632   0.00000  Uiso   1.00
C121   C     0.26003   0.71514   0.16993   0.00000  Uiso   1.00
C122   C     0.27131   0.76788  -0.19570   0.00000  Uiso   1.00
H123   H     0.32906   0.73019  -0.22175   0.00000  Uiso   1.00
H124   H     0.26683   0.68820   0.30567   0.00000  Uiso   1.00
F125   F     0.20892   0.71346   0.38936   0.00000  Uiso   1.00
C126   C     0.86299   0.87105   0.29137   0.00000  Uiso   1.00
C127   C     0.89177   0.89473   0.28666   0.00000  Uiso   1.00
C128   C     0.91548   0.88815   0.07506   0.00000  Uiso   1.00
C129   C     0.85646   0.83762   0.09482   0.00000  Uiso   1.00
H130   H     0.84534   0.87940   0.45074   0.00000  Uiso   1.00
H131   H     0.89487   0.92022   0.44406   0.00000  Uiso   1.00
C132   C     0.11895   0.17228  -0.10282   0.00000  Uiso   1.00
C133   C     0.09017   0.14744  -0.11280   0.00000  Uiso   1.00
H134   H     0.12217   0.19786  -0.25858   0.00000  Uiso   1.00
H135   H     0.07344   0.15431  -0.28266   0.00000  Uiso   1.00
C136   C     0.97396   0.90793   0.01427   0.00000  Uiso   1.00
C137   C     0.93312   0.96475   0.01753   0.00000  Uiso   1.00
C138   C     0.98388   0.86511   0.01326   0.00000  Uiso   1.00
C139   C     0.90183   0.97825   0.00177   0.00000  Uiso   1.00
H140   H     0.96952   0.83619   0.03042   0.00000  Uiso   1.00
H141   H     0.88037   0.95923  -0.01052   0.00000  Uiso   1.00
C142   C     0.05868   0.92009  -0.03631   0.00000  Uiso   1.00
N143   N     0.67320   0.31754   0.10429   0.00000  Uiso   1.00
C144   C     0.68580   0.28438  -0.05917   0.00000  Uiso   1.00
C145   C     0.71780   0.26755  -0.02632   0.00000  Uiso   1.00
C146   C     0.73997   0.28486   0.16993   0.00000  Uiso   1.00
C147   C     0.72869   0.23212  -0.19570   0.00000  Uiso   1.00
H148   H     0.67094   0.26981  -0.22175   0.00000  Uiso   1.00
H149   H     0.73317   0.31180   0.30567   0.00000  Uiso   1.00
F150   F     0.79108   0.28654   0.38936   0.00000  Uiso   1.00
C151   C     0.86299   0.12895  -0.29137   0.00000  Uiso   1.00
C152   C     0.89177   0.10527  -0.28666   0.00000  Uiso   1.00
C153   C     0.91548   0.11185  -0.07506   0.00000  Uiso   1.00
C154   C     0.85646   0.16238  -0.09482   0.00000  Uiso   1.00
H155   H     0.84534   0.12060  -0.45074   0.00000  Uiso   1.00
H156   H     0.89487   0.07978  -0.44406   0.00000  Uiso   1.00
C157   C     0.11895   0.82772   0.10282   0.00000  Uiso   1.00
C158   C     0.09017   0.85256   0.11280   0.00000  Uiso   1.00
H159   H     0.12217   0.80214   0.25858   0.00000  Uiso   1.00
H160   H     0.07344   0.84569   0.28266   0.00000  Uiso   1.00
C161   C     0.97396   0.09207  -0.01427   0.00000  Uiso   1.00
C162   C     0.93312   0.03525  -0.01753   0.00000  Uiso   1.00
C163   C     0.98388   0.13489  -0.01326   0.00000  Uiso   1.00
C164   C     0.90183   0.02175  -0.00177   0.00000  Uiso   1.00
H165   H     0.96952   0.16381  -0.03042   0.00000  Uiso   1.00
H166   H     0.88037   0.04077   0.01052   0.00000  Uiso   1.00
C167   C     0.05868   0.07991   0.03631   0.00000  Uiso   1.00
N168   N     0.67320   0.68246  -0.10429   0.00000  Uiso   1.00
C169   C     0.68580   0.71562   0.05917   0.00000  Uiso   1.00
C170   C     0.71780   0.73245   0.02632   0.00000  Uiso   1.00
C171   C     0.73997   0.71514  -0.16993   0.00000  Uiso   1.00
C172   C     0.72869   0.76788   0.19570   0.00000  Uiso   1.00
H173   H     0.67094   0.73019   0.22175   0.00000  Uiso   1.00
H174   H     0.73317   0.68820  -0.30567   0.00000  Uiso   1.00
F175   F     0.79108   0.71346  -0.38936   0.00000  Uiso   1.00
C176   C     0.13701   0.87105  -0.29137   0.00000  Uiso   1.00
C177   C     0.10823   0.89473  -0.28666   0.00000  Uiso   1.00
C178   C     0.08452   0.88815  -0.07506   0.00000  Uiso   1.00
C179   C     0.14354   0.83762  -0.09482   0.00000  Uiso   1.00
H180   H     0.15466   0.87940  -0.45074   0.00000  Uiso   1.00
H181   H     0.10513   0.92022  -0.44406   0.00000  Uiso   1.00
C182   C     0.88105   0.17228   0.10282   0.00000  Uiso   1.00
C183   C     0.90983   0.14744   0.11280   0.00000  Uiso   1.00
H184   H     0.87783   0.19786   0.25858   0.00000  Uiso   1.00
H185   H     0.92656   0.15431   0.28266   0.00000  Uiso   1.00
C186   C     0.02604   0.90793  -0.01427   0.00000  Uiso   1.00
C187   C     0.06688   0.96475  -0.01753   0.00000  Uiso   1.00
C188   C     0.01612   0.86511  -0.01326   0.00000  Uiso   1.00
C189   C     0.09817   0.97825  -0.00177   0.00000  Uiso   1.00
H190   H     0.03048   0.83619  -0.03042   0.00000  Uiso   1.00
H191   H     0.11963   0.95923   0.01052   0.00000  Uiso   1.00
C192   C     0.94132   0.92009   0.03631   0.00000  Uiso   1.00
N193   N     0.32680   0.31754  -0.10429   0.00000  Uiso   1.00
C194   C     0.31420   0.28438   0.05917   0.00000  Uiso   1.00
C195   C     0.28220   0.26755   0.02632   0.00000  Uiso   1.00
C196   C     0.26003   0.28486  -0.16993   0.00000  Uiso   1.00
C197   C     0.27131   0.23212   0.19570   0.00000  Uiso   1.00
H198   H     0.32906   0.26981   0.22175   0.00000  Uiso   1.00
H199   H     0.26683   0.31180  -0.30567   0.00000  Uiso   1.00
F200   F     0.20892   0.28654  -0.38936   0.00000  Uiso   1.00
N201   N     0.45313   0.50000   0.00000   0.00000  Uiso   1.00
N202   N     0.54687   0.50000   0.00000   0.00000  Uiso   1.00
N203   N     0.04687   0.00000   0.00000   0.00000  Uiso   1.00
N204   N     0.95313   0.00000   0.00000   0.00000  Uiso   1.00
Co205  Co    0.50000   0.50000   0.00000   0.00000  Uiso   1.00
Co206  Co    0.00000   0.00000   0.00000   0.00000  Uiso   1.00
N207   N     0.50000   0.56475   0.00000   0.00000  Uiso   1.00
N208   N     0.50000   0.43525   0.00000   0.00000  Uiso   1.00
N209   N     0.00000   0.93525   0.00000   0.00000  Uiso   1.00
N210   N     0.00000   0.06475   0.00000   0.00000  Uiso   1.00
loop_
_geom_bond_atom_site_label_1
_geom_bond_atom_site_label_2
_geom_bond_distance
_geom_bond_site_symmetry_2
_ccdc_geom_bond_type
C1     C2      1.421   .     D
C1     C4      1.402   .     S
C1     H5      1.085   .     S
C2     C3      1.423   .     S
C2     H6      1.080   .     S
C3     C33     1.419   .     D
C3     C67     1.481   .     S
C4     C32     1.424   .     D
C4     N193    1.402   .     S
C7     C8      1.440   .     S
C7     H9      1.077   .     S
C7     C29     1.424   .     D
C8     H10     1.084   .     S
C8     C28     1.419   .     D
C11    C13     1.378   .     S
C11    C67     1.438   .     S
C11    N208    1.388   .     D
C12    C14     1.393   .     S
C12    C67     1.415   .     D
C12    N201    1.376   .     S
C13    H15     1.079   .     S
C13    C63     1.374   .     D
C14    H16     1.083   .     S
C14    C89     1.333   .     D
C17    C53     1.481   .     S
C17    C61     1.438   .     D
C17    C62     1.415   .     S
N18    C19     1.378   .     D
N18    C179    1.402   .     S
C19    C20     1.461   .     S
C19    H23     1.082   .     S
C20    C21     1.415   .     S
C20    C22     1.420   .     D
C21    H24     1.079   .     S
C21    C122    1.433   .     D
C22    C121    1.433   .     S
C22    F125    1.358   .     S
F25    C122    1.358   .     S
C26    C27     1.421   .     D
C26    C29     1.402   .     S
C26    H30     1.085   .     S
C27    C28     1.423   .     S
C27    H31     1.080   .     S
C28    C92     1.481   .     S
C29    N168    1.402   .     S
C32    C33     1.440   .     S
C32    H34     1.077   .     S
C33    H35     1.084   .     S
C36    C38     1.378   .     S
C36    C92     1.438   .     S
C36    N207    1.388   .     D
C37    C39     1.393   .     S
C37    C92     1.415   .     D
C37    N202    1.376   .     S
C38    H40     1.079   .     S
C38    C88     1.374   .     D
C39    H41     1.083   .     S
C39    C64     1.333   .     D
C42    C78     1.481   .     S
C42    C86     1.438   .     D
C42    C87     1.415   .     S
N43    C44     1.378   .     D
N43    C154    1.402   .     S
C44    C45     1.461   .     S
C44    H48     1.082   .     S
C45    C46     1.415   .     D
C45    C47     1.420   .     S
C46    H49     1.079   .     S
C46    C147    1.433   .     S
C47    C146    1.433   .     D
C47    F150    1.358   .     S
F50    C147    1.358   .     S
C51    C52     1.421   .     D
C51    C54     1.402   .     S
C51    H55     1.085   .     S
C52    C53     1.423   .     S
C52    H56     1.080   .     S
C53    C83     1.419   .     D
C54    C82     1.424   .     D
C54    N143    1.402   .     S
C57    C58     1.440   .     D
C57    H59     1.077   .     S
C57    C79     1.424   .     S
C58    H60     1.084   .     S
C58    C78     1.419   .     S
C61    C63     1.378   .     S
C61    N208    1.388   .     S
C62    C64     1.393   .     S
C62    N202    1.376   .     D
C63    H65     1.079   .     S
C64    H66     1.083   .     S
N68    C69     1.378   .     D
N68    C129    1.402   .     S
C69    C70     1.461   .     S
C69    H73     1.082   .     S
C70    C71     1.415   .     D
C70    C72     1.420   .     S
C71    H74     1.079   .     S
C71    C172    1.433   .     S
C72    C171    1.433   .     D
C72    F175    1.358   .     S
F75    C172    1.358   .     S
C76    C77     1.421   .     S
C76    C79     1.402   .     D
C76    H80     1.085   .     S
C77    C78     1.423   .     D
C77    H81     1.080   .     S
C79    N118    1.402   .     S
C82    C83     1.440   .     S
C82    H84     1.077   .     S
C83    H85     1.084   .     S
C86    C88     1.378   .     S
C86    N207    1.388   .     S
C87    C89     1.393   .     S
C87    N201    1.376   .     D
C88    H90     1.079   .     S
C89    H91     1.083   .     S
N93    C94     1.378   .     D
N93    C104    1.402   .     S
C94    C95     1.461   .     S
C94    H98     1.082   .     S
C95    C96     1.415   .     D
C95    C97     1.420   .     S
C96    H99     1.079   .     S
C96    C197    1.433   .     S
C97    C196    1.433   .     D
C97    F200    1.358   .     S
F100   C197    1.358   .     S
C101   C102    1.421   .     S
C101   C104    1.402   .     D
C101   H105    1.085   .     S
C102   C103    1.423   .     D
C102   H106    1.080   .     S
C103   C133    1.419   .     S
C103   C167    1.481   .     S
C104   C132    1.424   .     S
C107   C108    1.440   .     S
C107   H109    1.077   .     S
C107   C129    1.424   .     D
C108   H110    1.084   .     S
C108   C128    1.419   .     D
C111   C113    1.378   .     S
C111   C167    1.438   .     D
C111   N210    1.388   .     S
C112   C114    1.393   .     S
C112   C167    1.415   .     S
C112   N203    1.376   .     D
C113   H115    1.079   .     S
C113   C163    1.374   1_455 D
C114   H116    1.083   .     S
C114   C189    1.333   1_545 D
C117   C153    1.481   .     S
C117   C161    1.438   .     S
C117   C162    1.415   .     D
N118   C119    1.378   .     D
C119   C120    1.461   .     S
C119   H123    1.082   .     S
C120   C121    1.415   .     D
C120   C122    1.420   .     S
C121   H124    1.079   .     S
C126   C127    1.421   .     D
C126   C129    1.402   .     S
C126   H130    1.085   .     S
C127   C128    1.423   .     S
C127   H131    1.080   .     S
C128   C192    1.481   .     S
C132   C133    1.440   .     D
C132   H134    1.077   .     S
C133   H135    1.084   .     S
C136   C138    1.378   .     S
C136   C192    1.438   .     D
C136   N209    1.388   1_655 S
C137   C139    1.393   .     S
C137   C192    1.415   .     S
C137   N204    1.376   1_565 D
C138   H140    1.079   .     S
C138   C188    1.374   1_655 D
C139   H141    1.083   .     S
C139   C164    1.333   1_565 D
C142   C178    1.481   .     S
C142   C186    1.438   .     S
C142   C187    1.415   .     D
N143   C144    1.378   .     D
C144   C145    1.461   .     S
C144   H148    1.082   .     S
C145   C146    1.415   .     S
C145   C147    1.420   .     D
C146   H149    1.079   .     S
C151   C152    1.421   .     D
C151   C154    1.402   .     S
C151   H155    1.085   .     S
C152   C153    1.423   .     S
C152   H156    1.080   .     S
C153   C183    1.419   .     D
C154   C182    1.424   .     D
C157   C158    1.440   .     D
C157   H159    1.077   .     S
C157   C179    1.424   .     S
C158   H160    1.084   .     S
C158   C178    1.419   .     S
C161   C163    1.378   .     S
C161   N210    1.388   1_655 D
C162   C164    1.393   .     S
C162   N204    1.376   .     S
C163   C113    1.374   1_655 D
C163   H165    1.079   .     S
C164   C139    1.333   1_545 D
C164   H166    1.083   .     S
N168   C169    1.378   .     D
C169   C170    1.461   .     S
C169   H173    1.082   .     S
C170   C171    1.415   .     S
C170   C172    1.420   .     D
C171   H174    1.079   .     S
C176   C177    1.421   .     S
C176   C179    1.402   .     D
C176   H180    1.085   .     S
C177   C178    1.423   .     D
C177   H181    1.080   .     S
C182   C183    1.440   .     S
C182   H184    1.077   .     S
C183   H185    1.084   .     S
C186   C188    1.378   .     S
C186   N209    1.388   .     D
C187   C189    1.393   .     S
C187   N203    1.376   1_565 S
C188   C138    1.374   1_455 D
C188   H190    1.079   .     S
C189   C114    1.333   1_565 D
C189   H191    1.083   .     S
N193   C194    1.378   .     D
C194   C195    1.461   .     S
C194   H198    1.082   .     S
C195   C196    1.415   .     S
C195   C197    1.420   .     D
C196   H199    1.079   .     S
N201   Co205   1.989   .     S
N202   Co205   1.989   .     S
N203   C187    1.376   1_545 S
N203   Co206   1.989   .     S
N204   C137    1.376   1_545 D
N204   Co206   1.989   1_655 S
Co205  N207    1.984   .     S
Co205  N208    1.984   .     S
Co206  N204    1.989   1_455 S
Co206  N209    1.984   1_545 S
Co206  N210    1.984   .     S
N209   Co206   1.984   1_565 S
N209   C136    1.388   1_455 S
N210   C161    1.388   1_455 D
