data_1151
_audit_creation_date              2023-09-08
_audit_creation_method            'Materials Studio'
_symmetry_space_group_name_H-M    'P1'
_symmetry_Int_Tables_number       1
_symmetry_cell_setting            triclinic
loop_
_symmetry_equiv_pos_as_xyz
  x,y,z
_cell_length_a                    27.9400
_cell_length_b                    27.9400
_cell_length_c                    41.9340
_cell_angle_alpha                 90.0000
_cell_angle_beta                  90.0000
_cell_angle_gamma                 90.0000
loop_
_atom_site_label
_atom_site_type_symbol
_atom_site_fract_x
_atom_site_fract_y
_atom_site_fract_z
_atom_site_U_iso_or_equiv
_atom_site_adp_type
_atom_site_occupancy
C1     C     0.77036   0.22572   0.22200   0.00000  Uiso   1.00
C2     C     0.79508   0.22802   0.25139   0.00000  Uiso   1.00
C3     C     0.77518   0.25166   0.27859   0.00000  Uiso   1.00
H4     H     0.83186   0.21076   0.25385   0.00000  Uiso   1.00
H5     H     0.79603   0.25287   0.30194   0.00000  Uiso   1.00
C6     C     0.92316   0.07764   0.07834   0.00000  Uiso   1.00
C7     C     0.91210   0.08859   0.04584   0.00000  Uiso   1.00
C8     C     0.93503   0.06538   0.01949   0.00000  Uiso   1.00
C9     C     0.97013   0.03008   0.02464   0.00000  Uiso   1.00
C10    C     0.98147   0.01873   0.05631   0.00000  Uiso   1.00
C11    C     0.95892   0.04152   0.08288   0.00000  Uiso   1.00
H12    H     0.88398   0.11685   0.04005   0.00000  Uiso   1.00
H13    H     0.96931   0.03104   0.10823   0.00000  Uiso   1.00
C14    C     0.89820   0.10386   0.10684   0.00000  Uiso   1.00
C15    C     0.92008   0.10768   0.13728   0.00000  Uiso   1.00
C16    C     0.89785   0.13180   0.16333   0.00000  Uiso   1.00
C17    C     0.85238   0.15372   0.16085   0.00000  Uiso   1.00
C18    C     0.82996   0.15026   0.13063   0.00000  Uiso   1.00
C19    C     0.85231   0.12602   0.10438   0.00000  Uiso   1.00
H20    H     0.95680   0.09111   0.14160   0.00000  Uiso   1.00
H21    H     0.91680   0.13397   0.18736   0.00000  Uiso   1.00
H22    H     0.79321   0.16698   0.12668   0.00000  Uiso   1.00
H23    H     0.83189   0.12489   0.08086   0.00000  Uiso   1.00
C24    C     0.78989   0.20077   0.19174   0.00000  Uiso   1.00
N25    N     0.83145   0.17832   0.18901   0.00000  Uiso   1.00
H26    H     0.92490   0.07544   0.99402   0.00000  Uiso   1.00
H27    H     0.76779   0.20063   0.16889   0.00000  Uiso   1.00
C28    C     0.22964   0.77428   0.22200   0.00000  Uiso   1.00
C29    C     0.20492   0.77198   0.25139   0.00000  Uiso   1.00
C30    C     0.22482   0.74834   0.27859   0.00000  Uiso   1.00
H31    H     0.16814   0.78924   0.25385   0.00000  Uiso   1.00
H32    H     0.20397   0.74713   0.30194   0.00000  Uiso   1.00
C33    C     0.07684   0.92236   0.07834   0.00000  Uiso   1.00
C34    C     0.08790   0.91141   0.04584   0.00000  Uiso   1.00
C35    C     0.06497   0.93462   0.01949   0.00000  Uiso   1.00
C36    C     0.02987   0.96992   0.02464   0.00000  Uiso   1.00
C37    C     0.01853   0.98127   0.05631   0.00000  Uiso   1.00
C38    C     0.04108   0.95848   0.08288   0.00000  Uiso   1.00
H39    H     0.11602   0.88315   0.04005   0.00000  Uiso   1.00
H40    H     0.03069   0.96896   0.10823   0.00000  Uiso   1.00
C41    C     0.10180   0.89614   0.10684   0.00000  Uiso   1.00
C42    C     0.07992   0.89232   0.13728   0.00000  Uiso   1.00
C43    C     0.10215   0.86820   0.16333   0.00000  Uiso   1.00
C44    C     0.14762   0.84628   0.16085   0.00000  Uiso   1.00
C45    C     0.17004   0.84974   0.13063   0.00000  Uiso   1.00
C46    C     0.14769   0.87398   0.10438   0.00000  Uiso   1.00
H47    H     0.04320   0.90889   0.14160   0.00000  Uiso   1.00
H48    H     0.08320   0.86603   0.18736   0.00000  Uiso   1.00
H49    H     0.20679   0.83302   0.12668   0.00000  Uiso   1.00
H50    H     0.16811   0.87511   0.08086   0.00000  Uiso   1.00
C51    C     0.21011   0.79923   0.19174   0.00000  Uiso   1.00
N52    N     0.16855   0.82168   0.18901   0.00000  Uiso   1.00
H53    H     0.07510   0.92456   0.99402   0.00000  Uiso   1.00
H54    H     0.23221   0.79937   0.16889   0.00000  Uiso   1.00
C55    C     0.27428   0.27036   0.72200   0.00000  Uiso   1.00
C56    C     0.27198   0.29508   0.75139   0.00000  Uiso   1.00
C57    C     0.24834   0.27518   0.77859   0.00000  Uiso   1.00
H58    H     0.28924   0.33186   0.75385   0.00000  Uiso   1.00
H59    H     0.24713   0.29603   0.80194   0.00000  Uiso   1.00
C60    C     0.42236   0.42316   0.57834   0.00000  Uiso   1.00
C61    C     0.41141   0.41210   0.54584   0.00000  Uiso   1.00
C62    C     0.43462   0.43503   0.51949   0.00000  Uiso   1.00
C63    C     0.46992   0.47013   0.52464   0.00000  Uiso   1.00
C64    C     0.48127   0.48147   0.55631   0.00000  Uiso   1.00
C65    C     0.45848   0.45892   0.58288   0.00000  Uiso   1.00
H66    H     0.38315   0.38398   0.54005   0.00000  Uiso   1.00
H67    H     0.46896   0.46931   0.60823   0.00000  Uiso   1.00
C68    C     0.39614   0.39820   0.60684   0.00000  Uiso   1.00
C69    C     0.39232   0.42008   0.63728   0.00000  Uiso   1.00
C70    C     0.36820   0.39785   0.66333   0.00000  Uiso   1.00
C71    C     0.34628   0.35238   0.66085   0.00000  Uiso   1.00
C72    C     0.34974   0.32996   0.63063   0.00000  Uiso   1.00
C73    C     0.37398   0.35231   0.60438   0.00000  Uiso   1.00
H74    H     0.40889   0.45680   0.64160   0.00000  Uiso   1.00
H75    H     0.36603   0.41680   0.68736   0.00000  Uiso   1.00
H76    H     0.33302   0.29321   0.62668   0.00000  Uiso   1.00
H77    H     0.37511   0.33189   0.58086   0.00000  Uiso   1.00
C78    C     0.29923   0.28989   0.69174   0.00000  Uiso   1.00
N79    N     0.32168   0.33145   0.68901   0.00000  Uiso   1.00
H80    H     0.42456   0.42490   0.49402   0.00000  Uiso   1.00
H81    H     0.29937   0.26779   0.66889   0.00000  Uiso   1.00
C82    C     0.72572   0.72964   0.72200   0.00000  Uiso   1.00
C83    C     0.72802   0.70492   0.75139   0.00000  Uiso   1.00
C84    C     0.75166   0.72482   0.77859   0.00000  Uiso   1.00
H85    H     0.71076   0.66814   0.75385   0.00000  Uiso   1.00
H86    H     0.75287   0.70397   0.80194   0.00000  Uiso   1.00
C87    C     0.57764   0.57684   0.57834   0.00000  Uiso   1.00
C88    C     0.58859   0.58790   0.54584   0.00000  Uiso   1.00
C89    C     0.56538   0.56497   0.51949   0.00000  Uiso   1.00
C90    C     0.53008   0.52987   0.52464   0.00000  Uiso   1.00
C91    C     0.51873   0.51853   0.55631   0.00000  Uiso   1.00
C92    C     0.54152   0.54108   0.58288   0.00000  Uiso   1.00
H93    H     0.61685   0.61602   0.54005   0.00000  Uiso   1.00
H94    H     0.53104   0.53069   0.60823   0.00000  Uiso   1.00
C95    C     0.60386   0.60180   0.60684   0.00000  Uiso   1.00
C96    C     0.60768   0.57992   0.63728   0.00000  Uiso   1.00
C97    C     0.63180   0.60215   0.66333   0.00000  Uiso   1.00
C98    C     0.65372   0.64762   0.66085   0.00000  Uiso   1.00
C99    C     0.65026   0.67004   0.63063   0.00000  Uiso   1.00
C100   C     0.62602   0.64769   0.60438   0.00000  Uiso   1.00
H101   H     0.59111   0.54320   0.64160   0.00000  Uiso   1.00
H102   H     0.63397   0.58320   0.68736   0.00000  Uiso   1.00
H103   H     0.66698   0.70679   0.62668   0.00000  Uiso   1.00
H104   H     0.62489   0.66811   0.58086   0.00000  Uiso   1.00
C105   C     0.70077   0.71011   0.69174   0.00000  Uiso   1.00
N106   N     0.67832   0.66855   0.68901   0.00000  Uiso   1.00
H107   H     0.57544   0.57510   0.49402   0.00000  Uiso   1.00
H108   H     0.70063   0.73221   0.66889   0.00000  Uiso   1.00
C109   C     0.72964   0.27428   0.27800   0.00000  Uiso   1.00
C110   C     0.70492   0.27198   0.24861   0.00000  Uiso   1.00
C111   C     0.72482   0.24834   0.22141   0.00000  Uiso   1.00
H112   H     0.66814   0.28924   0.24615   0.00000  Uiso   1.00
H113   H     0.70397   0.24713   0.19806   0.00000  Uiso   1.00
C114   C     0.57684   0.42236   0.42166   0.00000  Uiso   1.00
C115   C     0.58790   0.41141   0.45416   0.00000  Uiso   1.00
C116   C     0.56497   0.43462   0.48051   0.00000  Uiso   1.00
C117   C     0.52987   0.46992   0.47536   0.00000  Uiso   1.00
C118   C     0.51853   0.48127   0.44369   0.00000  Uiso   1.00
C119   C     0.54108   0.45848   0.41712   0.00000  Uiso   1.00
H120   H     0.61602   0.38315   0.45995   0.00000  Uiso   1.00
H121   H     0.53069   0.46896   0.39177   0.00000  Uiso   1.00
C122   C     0.60180   0.39614   0.39316   0.00000  Uiso   1.00
C123   C     0.57992   0.39232   0.36272   0.00000  Uiso   1.00
C124   C     0.60215   0.36820   0.33667   0.00000  Uiso   1.00
C125   C     0.64762   0.34628   0.33915   0.00000  Uiso   1.00
C126   C     0.67004   0.34974   0.36937   0.00000  Uiso   1.00
C127   C     0.64769   0.37398   0.39562   0.00000  Uiso   1.00
H128   H     0.54320   0.40889   0.35840   0.00000  Uiso   1.00
H129   H     0.58320   0.36603   0.31264   0.00000  Uiso   1.00
H130   H     0.70679   0.33302   0.37332   0.00000  Uiso   1.00
H131   H     0.66811   0.37511   0.41914   0.00000  Uiso   1.00
C132   C     0.71011   0.29923   0.30826   0.00000  Uiso   1.00
N133   N     0.66855   0.32168   0.31099   0.00000  Uiso   1.00
H134   H     0.57510   0.42456   0.50598   0.00000  Uiso   1.00
H135   H     0.73221   0.29937   0.33111   0.00000  Uiso   1.00
C136   C     0.27036   0.72572   0.27800   0.00000  Uiso   1.00
C137   C     0.29508   0.72802   0.24861   0.00000  Uiso   1.00
C138   C     0.27518   0.75166   0.22141   0.00000  Uiso   1.00
H139   H     0.33186   0.71076   0.24615   0.00000  Uiso   1.00
H140   H     0.29603   0.75287   0.19806   0.00000  Uiso   1.00
C141   C     0.42316   0.57764   0.42166   0.00000  Uiso   1.00
C142   C     0.41210   0.58859   0.45416   0.00000  Uiso   1.00
C143   C     0.43503   0.56538   0.48051   0.00000  Uiso   1.00
C144   C     0.47013   0.53008   0.47536   0.00000  Uiso   1.00
C145   C     0.48147   0.51873   0.44369   0.00000  Uiso   1.00
C146   C     0.45892   0.54152   0.41712   0.00000  Uiso   1.00
H147   H     0.38398   0.61685   0.45995   0.00000  Uiso   1.00
H148   H     0.46931   0.53104   0.39177   0.00000  Uiso   1.00
C149   C     0.39820   0.60386   0.39316   0.00000  Uiso   1.00
C150   C     0.42008   0.60768   0.36272   0.00000  Uiso   1.00
C151   C     0.39785   0.63180   0.33667   0.00000  Uiso   1.00
C152   C     0.35238   0.65372   0.33915   0.00000  Uiso   1.00
C153   C     0.32996   0.65026   0.36937   0.00000  Uiso   1.00
C154   C     0.35231   0.62602   0.39562   0.00000  Uiso   1.00
H155   H     0.45680   0.59111   0.35840   0.00000  Uiso   1.00
H156   H     0.41680   0.63397   0.31264   0.00000  Uiso   1.00
H157   H     0.29321   0.66698   0.37332   0.00000  Uiso   1.00
H158   H     0.33189   0.62489   0.41914   0.00000  Uiso   1.00
C159   C     0.28989   0.70077   0.30826   0.00000  Uiso   1.00
N160   N     0.33145   0.67832   0.31099   0.00000  Uiso   1.00
H161   H     0.42490   0.57544   0.50598   0.00000  Uiso   1.00
H162   H     0.26779   0.70063   0.33111   0.00000  Uiso   1.00
C163   C     0.22572   0.22964   0.77800   0.00000  Uiso   1.00
C164   C     0.22802   0.20492   0.74861   0.00000  Uiso   1.00
C165   C     0.25166   0.22482   0.72141   0.00000  Uiso   1.00
H166   H     0.21076   0.16814   0.74615   0.00000  Uiso   1.00
H167   H     0.25287   0.20397   0.69806   0.00000  Uiso   1.00
C168   C     0.07764   0.07684   0.92166   0.00000  Uiso   1.00
C169   C     0.08859   0.08790   0.95416   0.00000  Uiso   1.00
C170   C     0.06538   0.06497   0.98051   0.00000  Uiso   1.00
C171   C     0.03008   0.02987   0.97536   0.00000  Uiso   1.00
C172   C     0.01873   0.01853   0.94369   0.00000  Uiso   1.00
C173   C     0.04152   0.04108   0.91712   0.00000  Uiso   1.00
H174   H     0.11685   0.11602   0.95995   0.00000  Uiso   1.00
H175   H     0.03104   0.03069   0.89177   0.00000  Uiso   1.00
C176   C     0.10386   0.10180   0.89316   0.00000  Uiso   1.00
C177   C     0.10768   0.07992   0.86272   0.00000  Uiso   1.00
C178   C     0.13180   0.10215   0.83667   0.00000  Uiso   1.00
C179   C     0.15372   0.14762   0.83915   0.00000  Uiso   1.00
C180   C     0.15026   0.17004   0.86937   0.00000  Uiso   1.00
C181   C     0.12602   0.14769   0.89562   0.00000  Uiso   1.00
H182   H     0.09111   0.04320   0.85840   0.00000  Uiso   1.00
H183   H     0.13397   0.08320   0.81264   0.00000  Uiso   1.00
H184   H     0.16698   0.20679   0.87332   0.00000  Uiso   1.00
H185   H     0.12489   0.16811   0.91914   0.00000  Uiso   1.00
C186   C     0.20077   0.21011   0.80826   0.00000  Uiso   1.00
N187   N     0.17832   0.16855   0.81099   0.00000  Uiso   1.00
H188   H     0.07544   0.07510   0.00598   0.00000  Uiso   1.00
H189   H     0.20063   0.23221   0.83111   0.00000  Uiso   1.00
C190   C     0.77428   0.77036   0.77800   0.00000  Uiso   1.00
C191   C     0.77198   0.79508   0.74861   0.00000  Uiso   1.00
C192   C     0.74834   0.77518   0.72141   0.00000  Uiso   1.00
H193   H     0.78924   0.83186   0.74615   0.00000  Uiso   1.00
H194   H     0.74713   0.79603   0.69806   0.00000  Uiso   1.00
C195   C     0.92236   0.92316   0.92166   0.00000  Uiso   1.00
C196   C     0.91141   0.91210   0.95416   0.00000  Uiso   1.00
C197   C     0.93462   0.93503   0.98051   0.00000  Uiso   1.00
C198   C     0.96992   0.97013   0.97536   0.00000  Uiso   1.00
C199   C     0.98127   0.98147   0.94369   0.00000  Uiso   1.00
C200   C     0.95848   0.95892   0.91712   0.00000  Uiso   1.00
H201   H     0.88315   0.88398   0.95995   0.00000  Uiso   1.00
H202   H     0.96896   0.96931   0.89177   0.00000  Uiso   1.00
C203   C     0.89614   0.89820   0.89316   0.00000  Uiso   1.00
C204   C     0.89232   0.92008   0.86272   0.00000  Uiso   1.00
C205   C     0.86820   0.89785   0.83667   0.00000  Uiso   1.00
C206   C     0.84628   0.85238   0.83915   0.00000  Uiso   1.00
C207   C     0.84974   0.82996   0.86937   0.00000  Uiso   1.00
C208   C     0.87398   0.85231   0.89562   0.00000  Uiso   1.00
H209   H     0.90889   0.95680   0.85840   0.00000  Uiso   1.00
H210   H     0.86603   0.91680   0.81264   0.00000  Uiso   1.00
H211   H     0.83302   0.79321   0.87332   0.00000  Uiso   1.00
H212   H     0.87511   0.83189   0.91914   0.00000  Uiso   1.00
C213   C     0.79923   0.78989   0.80826   0.00000  Uiso   1.00
N214   N     0.82168   0.83145   0.81099   0.00000  Uiso   1.00
H215   H     0.92456   0.92490   0.00598   0.00000  Uiso   1.00
H216   H     0.79937   0.76779   0.83111   0.00000  Uiso   1.00
C217   C     0.00000   0.00000   0.00000   0.00000  Uiso   1.00
C218   C     0.50000   0.50000   0.50000   0.00000  Uiso   1.00
loop_
_geom_bond_atom_site_label_1
_geom_bond_atom_site_label_2
_geom_bond_distance
_geom_bond_site_symmetry_2
_ccdc_geom_bond_type
C1     C2      1.414   .     D
C1     C24     1.547   .     S
C1     C111    1.421   .     S
C2     C3      1.431   .     S
C2     H4      1.140   .     S
C3     H5      1.140   .     S
C3     C109    1.421   .     D
C6     C7      1.431   .     S
C6     C11     1.433   .     D
C6     C14     1.566   .     S
C7     C8      1.432   .     D
C7     H12     1.140   .     S
C8     C9      1.408   .     S
C8     H26     1.140   1_554 S
C9     C10     1.402   .     D
C9     C217    1.572   1_655 S
C10    C11     1.430   .     S
C10    C37     1.472   1_645 S
C11    H13     1.140   .     S
C14    C15     1.419   .     D
C14    C19     1.428   .     S
C15    C16     1.426   .     S
C15    H20     1.140   .     S
C16    C17     1.414   .     D
C16    H21     1.140   .     S
C17    C18     1.417   .     S
C17    N25     1.486   .     S
C18    C19     1.435   .     D
C18    H22     1.140   .     S
C19    H23     1.140   .     S
C24    N25     1.325   .     D
C24    H27     1.140   .     S
H26    C8      1.140   1_556 S
C28    C29     1.414   .     S
C28    C51     1.547   .     S
C28    C138    1.421   .     D
C29    C30     1.431   .     D
C29    H31     1.140   .     S
C30    H32     1.140   .     S
C30    C136    1.421   .     S
C33    C34     1.431   .     S
C33    C38     1.433   .     D
C33    C41     1.566   .     S
C34    C35     1.432   .     D
C34    H39     1.140   .     S
C35    C36     1.408   .     S
C35    H53     1.140   1_554 S
C36    C37     1.402   .     D
C36    C217    1.572   1_565 S
C37    C38     1.430   .     S
C37    C10     1.472   1_465 S
C38    H40     1.140   .     S
C41    C42     1.419   .     S
C41    C46     1.428   .     D
C42    C43     1.426   .     D
C42    H47     1.140   .     S
C43    C44     1.414   .     S
C43    H48     1.140   .     S
C44    C45     1.417   .     D
C44    N52     1.486   .     S
C45    C46     1.435   .     S
C45    H49     1.140   .     S
C46    H50     1.140   .     S
C51    N52     1.325   .     D
C51    H54     1.140   .     S
H53    C35     1.140   1_556 S
C55    C56     1.414   .     D
C55    C78     1.547   .     S
C55    C165    1.421   .     S
C56    C57     1.431   .     S
C56    H58     1.140   .     S
C57    H59     1.140   .     S
C57    C163    1.421   .     D
C60    C61     1.431   .     S
C60    C65     1.433   .     D
C60    C68     1.566   .     S
C61    C62     1.432   .     D
C61    H66     1.140   .     S
C62    C63     1.408   .     S
C62    H80     1.140   .     S
C63    C64     1.402   .     D
C63    C218    1.572   .     S
C64    C65     1.430   .     S
C64    C91     1.472   .     S
C65    H67     1.140   .     S
C68    C69     1.419   .     D
C68    C73     1.428   .     S
C69    C70     1.426   .     S
C69    H74     1.140   .     S
C70    C71     1.414   .     D
C70    H75     1.140   .     S
C71    C72     1.417   .     S
C71    N79     1.486   .     S
C72    C73     1.435   .     D
C72    H76     1.140   .     S
C73    H77     1.140   .     S
C78    N79     1.325   .     D
C78    H81     1.140   .     S
C82    C83     1.414   .     S
C82    C105    1.547   .     S
C82    C192    1.421   .     D
C83    C84     1.431   .     D
C83    H85     1.140   .     S
C84    H86     1.140   .     S
C84    C190    1.421   .     S
C87    C88     1.431   .     S
C87    C92     1.433   .     D
C87    C95     1.566   .     S
C88    C89     1.432   .     D
C88    H93     1.140   .     S
C89    C90     1.408   .     S
C89    H107    1.140   .     S
C90    C91     1.402   .     D
C90    C218    1.572   .     S
C91    C92     1.430   .     S
C92    H94     1.140   .     S
C95    C96     1.419   .     S
C95    C100    1.428   .     D
C96    C97     1.426   .     D
C96    H101    1.140   .     S
C97    C98     1.414   .     S
C97    H102    1.140   .     S
C98    C99     1.417   .     D
C98    N106    1.486   .     S
C99    C100    1.435   .     S
C99    H103    1.140   .     S
C100   H104    1.140   .     S
C105   N106    1.325   .     D
C105   H108    1.140   .     S
C109   C110    1.414   .     S
C109   C132    1.547   .     S
C110   C111    1.431   .     D
C110   H112    1.140   .     S
C111   H113    1.140   .     S
C114   C115    1.431   .     S
C114   C119    1.433   .     D
C114   C122    1.566   .     S
C115   C116    1.432   .     D
C115   H120    1.140   .     S
C116   C117    1.408   .     S
C116   H134    1.140   .     S
C117   C118    1.402   .     D
C117   C218    1.572   .     S
C118   C119    1.430   .     S
C118   C145    1.472   .     S
C119   H121    1.140   .     S
C122   C123    1.419   .     D
C122   C127    1.428   .     S
C123   C124    1.426   .     S
C123   H128    1.140   .     S
C124   C125    1.414   .     D
C124   H129    1.140   .     S
C125   C126    1.417   .     S
C125   N133    1.486   .     S
C126   C127    1.435   .     D
C126   H130    1.140   .     S
C127   H131    1.140   .     S
C132   N133    1.325   .     D
C132   H135    1.140   .     S
C136   C137    1.414   .     D
C136   C159    1.547   .     S
C137   C138    1.431   .     S
C137   H139    1.140   .     S
C138   H140    1.140   .     S
C141   C142    1.431   .     S
C141   C146    1.433   .     D
C141   C149    1.566   .     S
C142   C143    1.432   .     D
C142   H147    1.140   .     S
C143   C144    1.408   .     S
C143   H161    1.140   .     S
C144   C145    1.402   .     D
C144   C218    1.572   .     S
C145   C146    1.430   .     S
C146   H148    1.140   .     S
C149   C150    1.419   .     S
C149   C154    1.428   .     D
C150   C151    1.426   .     D
C150   H155    1.140   .     S
C151   C152    1.414   .     S
C151   H156    1.140   .     S
C152   C153    1.417   .     D
C152   N160    1.486   .     S
C153   C154    1.435   .     S
C153   H157    1.140   .     S
C154   H158    1.140   .     S
C159   N160    1.325   .     D
C159   H162    1.140   .     S
C163   C164    1.414   .     S
C163   C186    1.547   .     S
C164   C165    1.431   .     D
C164   H166    1.140   .     S
C165   H167    1.140   .     S
C168   C169    1.431   .     S
C168   C173    1.433   .     D
C168   C176    1.566   .     S
C169   C170    1.432   .     D
C169   H174    1.140   .     S
C170   C171    1.408   .     S
C170   H188    1.140   1_556 S
C171   C172    1.402   .     D
C171   C217    1.572   1_556 S
C172   C173    1.430   .     S
C172   C199    1.472   1_445 S
C173   H175    1.140   .     S
C176   C177    1.419   .     D
C176   C181    1.428   .     S
C177   C178    1.426   .     S
C177   H182    1.140   .     S
C178   C179    1.414   .     D
C178   H183    1.140   .     S
C179   C180    1.417   .     S
C179   N187    1.486   .     S
C180   C181    1.435   .     D
C180   H184    1.140   .     S
C181   H185    1.140   .     S
C186   N187    1.325   .     D
C186   H189    1.140   .     S
H188   C170    1.140   1_554 S
C190   C191    1.414   .     D
C190   C213    1.547   .     S
C191   C192    1.431   .     S
C191   H193    1.140   .     S
C192   H194    1.140   .     S
C195   C196    1.431   .     S
C195   C200    1.433   .     D
C195   C203    1.566   .     S
C196   C197    1.432   .     D
C196   H201    1.140   .     S
C197   C198    1.408   .     S
C197   H215    1.140   1_556 S
C198   C199    1.402   .     D
C198   C217    1.572   1_666 S
C199   C200    1.430   .     S
C199   C172    1.472   1_665 S
C200   H202    1.140   .     S
C203   C204    1.419   .     S
C203   C208    1.428   .     D
C204   C205    1.426   .     D
C204   H209    1.140   .     S
C205   C206    1.414   .     S
C205   H210    1.140   .     S
C206   C207    1.417   .     D
C206   N214    1.486   .     S
C207   C208    1.435   .     S
C207   H211    1.140   .     S
C208   H212    1.140   .     S
C213   N214    1.325   .     D
C213   H216    1.140   .     S
H215   C197    1.140   1_554 S
C217   C9      1.572   1_455 S
C217   C36     1.572   1_545 S
C217   C171    1.572   1_554 S
C217   C198    1.572   1_444 S
