data_1153
_audit_creation_date              2023-09-08
_audit_creation_method            'Materials Studio'
_symmetry_space_group_name_H-M    'P1'
_symmetry_Int_Tables_number       1
_symmetry_cell_setting            triclinic
loop_
_symmetry_equiv_pos_as_xyz
  x,y,z
_cell_length_a                    27.8220
_cell_length_b                    27.8220
_cell_length_c                    21.0300
_cell_angle_alpha                 90.0000
_cell_angle_beta                  90.0000
_cell_angle_gamma                 90.0000
loop_
_atom_site_label
_atom_site_type_symbol
_atom_site_fract_x
_atom_site_fract_y
_atom_site_fract_z
_atom_site_U_iso_or_equiv
_atom_site_adp_type
_atom_site_occupancy
C1     C     0.23885   0.73266   0.43878   0.00000  Uiso   1.00
C2     C     0.22625   0.77971   0.45646   0.00000  Uiso   1.00
H3     H     0.06739   0.72032   0.20521   0.00000  Uiso   1.00
C4     C     0.22510   0.71264   0.37645   0.00000  Uiso   1.00
N5     N     0.19873   0.73710   0.33697   0.00000  Uiso   1.00
C6     C     0.17795   0.71752   0.28010   0.00000  Uiso   1.00
C7     C     0.19834   0.67800   0.24813   0.00000  Uiso   1.00
C8     C     0.17078   0.65153   0.20501   0.00000  Uiso   1.00
C9     C     0.12285   0.66435   0.19347   0.00000  Uiso   1.00
C10    C     0.10478   0.70725   0.21909   0.00000  Uiso   1.00
C11    C     0.13253   0.73402   0.26162   0.00000  Uiso   1.00
H12    H     0.23762   0.67514   0.36221   0.00000  Uiso   1.00
H13    H     0.23734   0.66759   0.25742   0.00000  Uiso   1.00
H14    H     0.11819   0.76939   0.28135   0.00000  Uiso   1.00
C15    C     0.08889   0.62643   0.17514   0.00000  Uiso   1.00
C16    C     0.06428   0.60323   0.22419   0.00000  Uiso   1.00
C17    C     0.03599   0.56358   0.21130   0.00000  Uiso   1.00
C18    C     0.02993   0.54618   0.14845   0.00000  Uiso   1.00
C19    C     0.05373   0.57084   0.09886   0.00000  Uiso   1.00
C20    C     0.08367   0.61028   0.11228   0.00000  Uiso   1.00
H21    H     0.18728   0.61950   0.17920   0.00000  Uiso   1.00
H22    H     0.06748   0.61698   0.27508   0.00000  Uiso   1.00
H23    H     0.10370   0.62914   0.07211   0.00000  Uiso   1.00
H24    H     0.04874   0.55880   0.04747   0.00000  Uiso   1.00
C25    C     0.29682   0.26269   0.51719   0.00000  Uiso   1.00
H26    H     0.33506   0.27319   0.53086   0.00000  Uiso   1.00
H27    H     0.19590   0.20692   0.57880   0.00000  Uiso   1.00
H28    H     0.01687   0.54406   0.25169   0.00000  Uiso   1.00
C29    C     0.76115   0.26734   0.43878   0.00000  Uiso   1.00
C30    C     0.77375   0.22029   0.45646   0.00000  Uiso   1.00
H31    H     0.93261   0.27968   0.20521   0.00000  Uiso   1.00
C32    C     0.77490   0.28736   0.37645   0.00000  Uiso   1.00
N33    N     0.80127   0.26290   0.33697   0.00000  Uiso   1.00
C34    C     0.82205   0.28248   0.28010   0.00000  Uiso   1.00
C35    C     0.80166   0.32200   0.24813   0.00000  Uiso   1.00
C36    C     0.82922   0.34847   0.20501   0.00000  Uiso   1.00
C37    C     0.87715   0.33565   0.19347   0.00000  Uiso   1.00
C38    C     0.89522   0.29275   0.21909   0.00000  Uiso   1.00
C39    C     0.86747   0.26598   0.26162   0.00000  Uiso   1.00
H40    H     0.76238   0.32486   0.36221   0.00000  Uiso   1.00
H41    H     0.76266   0.33241   0.25742   0.00000  Uiso   1.00
H42    H     0.88181   0.23061   0.28135   0.00000  Uiso   1.00
C43    C     0.91111   0.37357   0.17514   0.00000  Uiso   1.00
C44    C     0.93572   0.39677   0.22419   0.00000  Uiso   1.00
C45    C     0.96401   0.43642   0.21130   0.00000  Uiso   1.00
C46    C     0.97007   0.45382   0.14845   0.00000  Uiso   1.00
C47    C     0.94627   0.42916   0.09886   0.00000  Uiso   1.00
C48    C     0.91633   0.38972   0.11228   0.00000  Uiso   1.00
H49    H     0.81272   0.38050   0.17920   0.00000  Uiso   1.00
H50    H     0.93252   0.38302   0.27508   0.00000  Uiso   1.00
H51    H     0.89630   0.37086   0.07211   0.00000  Uiso   1.00
H52    H     0.95126   0.44120   0.04747   0.00000  Uiso   1.00
C53    C     0.70318   0.73731   0.51719   0.00000  Uiso   1.00
H54    H     0.66494   0.72681   0.53086   0.00000  Uiso   1.00
H55    H     0.80410   0.79308   0.57880   0.00000  Uiso   1.00
H56    H     0.98313   0.45594   0.25169   0.00000  Uiso   1.00
C57    C     0.76734   0.73885   0.43878   0.00000  Uiso   1.00
C58    C     0.72029   0.72625   0.45646   0.00000  Uiso   1.00
H59    H     0.77968   0.56739   0.20521   0.00000  Uiso   1.00
C60    C     0.78736   0.72510   0.37645   0.00000  Uiso   1.00
N61    N     0.76290   0.69873   0.33697   0.00000  Uiso   1.00
C62    C     0.78248   0.67795   0.28010   0.00000  Uiso   1.00
C63    C     0.82200   0.69834   0.24813   0.00000  Uiso   1.00
C64    C     0.84847   0.67078   0.20501   0.00000  Uiso   1.00
C65    C     0.83565   0.62285   0.19347   0.00000  Uiso   1.00
C66    C     0.79275   0.60478   0.21909   0.00000  Uiso   1.00
C67    C     0.76598   0.63253   0.26162   0.00000  Uiso   1.00
H68    H     0.82486   0.73762   0.36221   0.00000  Uiso   1.00
H69    H     0.83241   0.73734   0.25742   0.00000  Uiso   1.00
H70    H     0.73061   0.61819   0.28135   0.00000  Uiso   1.00
C71    C     0.87357   0.58889   0.17514   0.00000  Uiso   1.00
C72    C     0.89677   0.56428   0.22419   0.00000  Uiso   1.00
C73    C     0.93642   0.53599   0.21130   0.00000  Uiso   1.00
C74    C     0.95382   0.52993   0.14845   0.00000  Uiso   1.00
C75    C     0.92916   0.55373   0.09886   0.00000  Uiso   1.00
C76    C     0.88972   0.58367   0.11228   0.00000  Uiso   1.00
H77    H     0.88050   0.68728   0.17920   0.00000  Uiso   1.00
H78    H     0.88302   0.56748   0.27508   0.00000  Uiso   1.00
H79    H     0.87086   0.60370   0.07211   0.00000  Uiso   1.00
H80    H     0.94120   0.54874   0.04747   0.00000  Uiso   1.00
C81    C     0.23731   0.79682   0.51719   0.00000  Uiso   1.00
H82    H     0.22681   0.83506   0.53086   0.00000  Uiso   1.00
H83    H     0.29308   0.69590   0.57880   0.00000  Uiso   1.00
H84    H     0.95594   0.51687   0.25169   0.00000  Uiso   1.00
C85    C     0.23266   0.26115   0.43878   0.00000  Uiso   1.00
C86    C     0.27971   0.27375   0.45646   0.00000  Uiso   1.00
H87    H     0.22032   0.43261   0.20521   0.00000  Uiso   1.00
C88    C     0.21264   0.27490   0.37645   0.00000  Uiso   1.00
N89    N     0.23710   0.30127   0.33697   0.00000  Uiso   1.00
C90    C     0.21752   0.32205   0.28010   0.00000  Uiso   1.00
C91    C     0.17800   0.30166   0.24813   0.00000  Uiso   1.00
C92    C     0.15153   0.32922   0.20501   0.00000  Uiso   1.00
C93    C     0.16435   0.37715   0.19347   0.00000  Uiso   1.00
C94    C     0.20725   0.39522   0.21909   0.00000  Uiso   1.00
C95    C     0.23402   0.36747   0.26162   0.00000  Uiso   1.00
H96    H     0.17514   0.26238   0.36221   0.00000  Uiso   1.00
H97    H     0.16759   0.26266   0.25742   0.00000  Uiso   1.00
H98    H     0.26939   0.38181   0.28135   0.00000  Uiso   1.00
C99    C     0.12643   0.41111   0.17514   0.00000  Uiso   1.00
C100   C     0.10323   0.43572   0.22419   0.00000  Uiso   1.00
C101   C     0.06358   0.46401   0.21130   0.00000  Uiso   1.00
C102   C     0.04618   0.47007   0.14845   0.00000  Uiso   1.00
C103   C     0.07084   0.44627   0.09886   0.00000  Uiso   1.00
C104   C     0.11028   0.41633   0.11228   0.00000  Uiso   1.00
H105   H     0.11950   0.31272   0.17920   0.00000  Uiso   1.00
H106   H     0.11698   0.43252   0.27508   0.00000  Uiso   1.00
H107   H     0.12914   0.39630   0.07211   0.00000  Uiso   1.00
H108   H     0.05880   0.45126   0.04747   0.00000  Uiso   1.00
C109   C     0.76269   0.20318   0.51719   0.00000  Uiso   1.00
H110   H     0.77319   0.16494   0.53086   0.00000  Uiso   1.00
H111   H     0.70692   0.30410   0.57880   0.00000  Uiso   1.00
H112   H     0.04406   0.48313   0.25169   0.00000  Uiso   1.00
C113   C     0.26115   0.76734   0.56122   0.00000  Uiso   1.00
C114   C     0.27375   0.72029   0.54354   0.00000  Uiso   1.00
H115   H     0.43261   0.77968   0.79479   0.00000  Uiso   1.00
C116   C     0.27490   0.78736   0.62355   0.00000  Uiso   1.00
N117   N     0.30127   0.76290   0.66303   0.00000  Uiso   1.00
C118   C     0.32205   0.78248   0.71990   0.00000  Uiso   1.00
C119   C     0.30166   0.82200   0.75187   0.00000  Uiso   1.00
C120   C     0.32922   0.84847   0.79499   0.00000  Uiso   1.00
C121   C     0.37715   0.83565   0.80653   0.00000  Uiso   1.00
C122   C     0.39522   0.79275   0.78091   0.00000  Uiso   1.00
C123   C     0.36747   0.76598   0.73838   0.00000  Uiso   1.00
H124   H     0.26238   0.82486   0.63779   0.00000  Uiso   1.00
H125   H     0.26266   0.83241   0.74258   0.00000  Uiso   1.00
H126   H     0.38181   0.73061   0.71865   0.00000  Uiso   1.00
C127   C     0.41111   0.87357   0.82486   0.00000  Uiso   1.00
C128   C     0.43572   0.89677   0.77581   0.00000  Uiso   1.00
C129   C     0.46401   0.93642   0.78870   0.00000  Uiso   1.00
C130   C     0.47007   0.95382   0.85155   0.00000  Uiso   1.00
C131   C     0.44627   0.92916   0.90114   0.00000  Uiso   1.00
C132   C     0.41633   0.88972   0.88772   0.00000  Uiso   1.00
H133   H     0.31272   0.88050   0.82080   0.00000  Uiso   1.00
H134   H     0.43252   0.88302   0.72492   0.00000  Uiso   1.00
H135   H     0.39630   0.87086   0.92789   0.00000  Uiso   1.00
H136   H     0.45126   0.94120   0.95253   0.00000  Uiso   1.00
C137   C     0.20318   0.23731   0.48281   0.00000  Uiso   1.00
H138   H     0.16494   0.22681   0.46914   0.00000  Uiso   1.00
H139   H     0.30410   0.29308   0.42120   0.00000  Uiso   1.00
H140   H     0.48313   0.95594   0.74831   0.00000  Uiso   1.00
C141   C     0.73885   0.23266   0.56122   0.00000  Uiso   1.00
C142   C     0.72625   0.27971   0.54354   0.00000  Uiso   1.00
H143   H     0.56739   0.22032   0.79479   0.00000  Uiso   1.00
C144   C     0.72510   0.21264   0.62355   0.00000  Uiso   1.00
N145   N     0.69873   0.23710   0.66303   0.00000  Uiso   1.00
C146   C     0.67795   0.21752   0.71990   0.00000  Uiso   1.00
C147   C     0.69834   0.17800   0.75187   0.00000  Uiso   1.00
C148   C     0.67078   0.15153   0.79499   0.00000  Uiso   1.00
C149   C     0.62285   0.16435   0.80653   0.00000  Uiso   1.00
C150   C     0.60478   0.20725   0.78091   0.00000  Uiso   1.00
C151   C     0.63253   0.23402   0.73838   0.00000  Uiso   1.00
H152   H     0.73762   0.17514   0.63779   0.00000  Uiso   1.00
H153   H     0.73734   0.16759   0.74258   0.00000  Uiso   1.00
H154   H     0.61819   0.26939   0.71865   0.00000  Uiso   1.00
C155   C     0.58889   0.12643   0.82486   0.00000  Uiso   1.00
C156   C     0.56428   0.10323   0.77581   0.00000  Uiso   1.00
C157   C     0.53599   0.06358   0.78870   0.00000  Uiso   1.00
C158   C     0.52993   0.04618   0.85155   0.00000  Uiso   1.00
C159   C     0.55373   0.07084   0.90114   0.00000  Uiso   1.00
C160   C     0.58367   0.11028   0.88772   0.00000  Uiso   1.00
H161   H     0.68728   0.11950   0.82080   0.00000  Uiso   1.00
H162   H     0.56748   0.11698   0.72492   0.00000  Uiso   1.00
H163   H     0.60370   0.12914   0.92789   0.00000  Uiso   1.00
H164   H     0.54874   0.05880   0.95253   0.00000  Uiso   1.00
C165   C     0.79682   0.76269   0.48281   0.00000  Uiso   1.00
H166   H     0.83506   0.77319   0.46914   0.00000  Uiso   1.00
H167   H     0.69590   0.70692   0.42120   0.00000  Uiso   1.00
H168   H     0.51687   0.04406   0.74831   0.00000  Uiso   1.00
C169   C     0.73266   0.76115   0.56122   0.00000  Uiso   1.00
C170   C     0.77971   0.77375   0.54354   0.00000  Uiso   1.00
H171   H     0.72032   0.93261   0.79479   0.00000  Uiso   1.00
C172   C     0.71264   0.77490   0.62355   0.00000  Uiso   1.00
N173   N     0.73710   0.80127   0.66303   0.00000  Uiso   1.00
C174   C     0.71752   0.82205   0.71990   0.00000  Uiso   1.00
C175   C     0.67800   0.80166   0.75187   0.00000  Uiso   1.00
C176   C     0.65153   0.82922   0.79499   0.00000  Uiso   1.00
C177   C     0.66435   0.87715   0.80653   0.00000  Uiso   1.00
C178   C     0.70725   0.89522   0.78091   0.00000  Uiso   1.00
C179   C     0.73402   0.86747   0.73838   0.00000  Uiso   1.00
H180   H     0.67514   0.76238   0.63779   0.00000  Uiso   1.00
H181   H     0.66759   0.76266   0.74258   0.00000  Uiso   1.00
H182   H     0.76939   0.88181   0.71865   0.00000  Uiso   1.00
C183   C     0.62643   0.91111   0.82486   0.00000  Uiso   1.00
C184   C     0.60323   0.93572   0.77581   0.00000  Uiso   1.00
C185   C     0.56358   0.96401   0.78870   0.00000  Uiso   1.00
C186   C     0.54618   0.97007   0.85155   0.00000  Uiso   1.00
C187   C     0.57084   0.94627   0.90114   0.00000  Uiso   1.00
C188   C     0.61028   0.91633   0.88772   0.00000  Uiso   1.00
H189   H     0.61950   0.81272   0.82080   0.00000  Uiso   1.00
H190   H     0.61698   0.93252   0.72492   0.00000  Uiso   1.00
H191   H     0.62914   0.89630   0.92789   0.00000  Uiso   1.00
H192   H     0.55880   0.95126   0.95253   0.00000  Uiso   1.00
C193   C     0.26269   0.70318   0.48281   0.00000  Uiso   1.00
H194   H     0.27319   0.66494   0.46914   0.00000  Uiso   1.00
H195   H     0.20692   0.80410   0.42120   0.00000  Uiso   1.00
H196   H     0.54406   0.98313   0.74831   0.00000  Uiso   1.00
C197   C     0.26734   0.23885   0.56122   0.00000  Uiso   1.00
C198   C     0.22029   0.22625   0.54354   0.00000  Uiso   1.00
H199   H     0.27968   0.06739   0.79479   0.00000  Uiso   1.00
C200   C     0.28736   0.22510   0.62355   0.00000  Uiso   1.00
N201   N     0.26290   0.19873   0.66303   0.00000  Uiso   1.00
C202   C     0.28248   0.17795   0.71990   0.00000  Uiso   1.00
C203   C     0.32200   0.19834   0.75187   0.00000  Uiso   1.00
C204   C     0.34847   0.17078   0.79499   0.00000  Uiso   1.00
C205   C     0.33565   0.12285   0.80653   0.00000  Uiso   1.00
C206   C     0.29275   0.10478   0.78091   0.00000  Uiso   1.00
C207   C     0.26598   0.13253   0.73838   0.00000  Uiso   1.00
H208   H     0.32486   0.23762   0.63779   0.00000  Uiso   1.00
H209   H     0.33241   0.23734   0.74258   0.00000  Uiso   1.00
H210   H     0.23061   0.11819   0.71865   0.00000  Uiso   1.00
C211   C     0.37357   0.08889   0.82486   0.00000  Uiso   1.00
C212   C     0.39677   0.06428   0.77581   0.00000  Uiso   1.00
C213   C     0.43642   0.03599   0.78870   0.00000  Uiso   1.00
C214   C     0.45382   0.02993   0.85155   0.00000  Uiso   1.00
C215   C     0.42916   0.05373   0.90114   0.00000  Uiso   1.00
C216   C     0.38972   0.08367   0.88772   0.00000  Uiso   1.00
H217   H     0.38050   0.18728   0.82080   0.00000  Uiso   1.00
H218   H     0.38302   0.06748   0.72492   0.00000  Uiso   1.00
H219   H     0.37086   0.10370   0.92789   0.00000  Uiso   1.00
H220   H     0.44120   0.04874   0.95253   0.00000  Uiso   1.00
C221   C     0.73731   0.29682   0.48281   0.00000  Uiso   1.00
H222   H     0.72681   0.33506   0.46914   0.00000  Uiso   1.00
H223   H     0.79308   0.19590   0.42120   0.00000  Uiso   1.00
H224   H     0.45594   0.01687   0.74831   0.00000  Uiso   1.00
C225   C     0.00000   0.50000   0.13407   0.00000  Uiso   1.00
C226   C     0.50000   0.00000   0.86593   0.00000  Uiso   1.00
loop_
_geom_bond_atom_site_label_1
_geom_bond_atom_site_label_2
_geom_bond_distance
_geom_bond_site_symmetry_2
_ccdc_geom_bond_type
C1     C2      1.405   .     D
C1     C4      1.475   .     S
C1     C193    1.404   .     S
C2     H195    1.140   .     S
C2     C81     1.397   .     S
H3     C10     1.140   .     S
C4     N5      1.300   .     D
C4     H12     1.140   .     S
N5     C6      1.436   .     S
C6     C7      1.408   .     D
C6     C11     1.400   .     S
C7     C8      1.397   .     S
C7     H13     1.140   .     S
C8     C9      1.402   .     D
C8     H21     1.140   .     S
C9     C10     1.403   .     S
C9     C15     1.468   .     S
C10    C11     1.397   .     D
C11    H14     1.140   .     S
C15    C16     1.396   .     D
C15    C20     1.404   .     S
C16    C17     1.382   .     S
C16    H22     1.140   .     S
C17    C18     1.418   .     D
C17    H28     1.140   .     S
C18    C19     1.413   .     S
C18    C225    1.561   .     S
C19    C20     1.406   .     D
C19    H24     1.140   .     S
C20    H23     1.140   .     S
C25    H26     1.140   .     S
C25    C197    1.404   .     D
C25    C86     1.397   .     S
H27    C198    1.140   .     S
C29    C30     1.405   .     D
C29    C32     1.475   .     S
C29    C221    1.404   .     S
C30    H223    1.140   .     S
C30    C109    1.397   .     S
H31    C38     1.140   .     S
C32    N33     1.300   .     D
C32    H40     1.140   .     S
N33    C34     1.436   .     S
C34    C35     1.408   .     D
C34    C39     1.400   .     S
C35    C36     1.397   .     S
C35    H41     1.140   .     S
C36    C37     1.402   .     D
C36    H49     1.140   .     S
C37    C38     1.403   .     S
C37    C43     1.468   .     S
C38    C39     1.397   .     D
C39    H42     1.140   .     S
C43    C44     1.396   .     D
C43    C48     1.404   .     S
C44    C45     1.382   .     S
C44    H50     1.140   .     S
C45    C46     1.418   .     D
C45    H56     1.140   .     S
C46    C47     1.413   .     S
C46    C225    1.561   1_655 S
C47    C48     1.406   .     D
C47    H52     1.140   .     S
C48    H51     1.140   .     S
C53    H54     1.140   .     S
C53    C169    1.404   .     D
C53    C58     1.397   .     S
H55    C170    1.140   .     S
C57    C58     1.405   .     D
C57    C60     1.475   .     S
C57    C165    1.404   .     S
C58    H167    1.140   .     S
H59    C66     1.140   .     S
C60    N61     1.300   .     D
C60    H68     1.140   .     S
N61    C62     1.436   .     S
C62    C63     1.408   .     D
C62    C67     1.400   .     S
C63    C64     1.397   .     S
C63    H69     1.140   .     S
C64    C65     1.402   .     D
C64    H77     1.140   .     S
C65    C66     1.403   .     S
C65    C71     1.468   .     S
C66    C67     1.397   .     D
C67    H70     1.140   .     S
C71    C72     1.396   .     D
C71    C76     1.404   .     S
C72    C73     1.382   .     S
C72    H78     1.140   .     S
C73    C74     1.418   .     D
C73    H84     1.140   .     S
C74    C75     1.413   .     S
C74    C225    1.561   1_655 S
C75    C76     1.406   .     D
C75    H80     1.140   .     S
C76    H79     1.140   .     S
C81    H82     1.140   .     S
C81    C113    1.404   .     D
H83    C114    1.140   .     S
C85    C86     1.405   .     D
C85    C88     1.475   .     S
C85    C137    1.404   .     S
C86    H139    1.140   .     S
H87    C94     1.140   .     S
C88    N89     1.300   .     D
C88    H96     1.140   .     S
N89    C90     1.436   .     S
C90    C91     1.408   .     D
C90    C95     1.400   .     S
C91    C92     1.397   .     S
C91    H97     1.140   .     S
C92    C93     1.402   .     D
C92    H105    1.140   .     S
C93    C94     1.403   .     S
C93    C99     1.468   .     S
C94    C95     1.397   .     D
C95    H98     1.140   .     S
C99    C100    1.396   .     D
C99    C104    1.404   .     S
C100   C101    1.382   .     S
C100   H106    1.140   .     S
C101   C102    1.418   .     D
C101   H112    1.140   .     S
C102   C103    1.413   .     S
C102   C225    1.561   .     S
C103   C104    1.406   .     D
C103   H108    1.140   .     S
C104   H107    1.140   .     S
C109   H110    1.140   .     S
C109   C141    1.404   .     D
H111   C142    1.140   .     S
C113   C114    1.405   .     S
C113   C116    1.475   .     S
C114   C193    1.397   .     D
H115   C122    1.140   .     S
C116   N117    1.300   .     D
C116   H124    1.140   .     S
N117   C118    1.436   .     S
C118   C119    1.408   .     D
C118   C123    1.400   .     S
C119   C120    1.397   .     S
C119   H125    1.140   .     S
C120   C121    1.402   .     D
C120   H133    1.140   .     S
C121   C122    1.403   .     S
C121   C127    1.468   .     S
C122   C123    1.397   .     D
C123   H126    1.140   .     S
C127   C128    1.396   .     S
C127   C132    1.404   .     D
C128   C129    1.382   .     D
C128   H134    1.140   .     S
C129   C130    1.418   .     S
C129   H140    1.140   .     S
C130   C131    1.413   .     D
C130   C226    1.561   1_565 S
C131   C132    1.406   .     S
C131   H136    1.140   .     S
C132   H135    1.140   .     S
C137   H138    1.140   .     S
C137   C198    1.397   .     D
C141   C142    1.405   .     S
C141   C144    1.475   .     S
C142   C221    1.397   .     D
H143   C150    1.140   .     S
C144   N145    1.300   .     D
C144   H152    1.140   .     S
N145   C146    1.436   .     S
C146   C147    1.408   .     D
C146   C151    1.400   .     S
C147   C148    1.397   .     S
C147   H153    1.140   .     S
C148   C149    1.402   .     D
C148   H161    1.140   .     S
C149   C150    1.403   .     S
C149   C155    1.468   .     S
C150   C151    1.397   .     D
C151   H154    1.140   .     S
C155   C156    1.396   .     S
C155   C160    1.404   .     D
C156   C157    1.382   .     D
C156   H162    1.140   .     S
C157   C158    1.418   .     S
C157   H168    1.140   .     S
C158   C159    1.413   .     D
C158   C226    1.561   .     S
C159   C160    1.406   .     S
C159   H164    1.140   .     S
C160   H163    1.140   .     S
C165   H166    1.140   .     S
C165   C170    1.397   .     D
C169   C170    1.405   .     S
C169   C172    1.475   .     S
H171   C178    1.140   .     S
C172   N173    1.300   .     D
C172   H180    1.140   .     S
N173   C174    1.436   .     S
C174   C175    1.408   .     D
C174   C179    1.400   .     S
C175   C176    1.397   .     S
C175   H181    1.140   .     S
C176   C177    1.402   .     D
C176   H189    1.140   .     S
C177   C178    1.403   .     S
C177   C183    1.468   .     S
C178   C179    1.397   .     D
C179   H182    1.140   .     S
C183   C184    1.396   .     S
C183   C188    1.404   .     D
C184   C185    1.382   .     D
C184   H190    1.140   .     S
C185   C186    1.418   .     S
C185   H196    1.140   .     S
C186   C187    1.413   .     D
C186   C226    1.561   1_565 S
C187   C188    1.406   .     S
C187   H192    1.140   .     S
C188   H191    1.140   .     S
C193   H194    1.140   .     S
C197   C198    1.405   .     S
C197   C200    1.475   .     S
H199   C206    1.140   .     S
C200   N201    1.300   .     D
C200   H208    1.140   .     S
N201   C202    1.436   .     S
C202   C203    1.408   .     D
C202   C207    1.400   .     S
C203   C204    1.397   .     S
C203   H209    1.140   .     S
C204   C205    1.402   .     D
C204   H217    1.140   .     S
C205   C206    1.403   .     S
C205   C211    1.468   .     S
C206   C207    1.397   .     D
C207   H210    1.140   .     S
C211   C212    1.396   .     S
C211   C216    1.404   .     D
C212   C213    1.382   .     D
C212   H218    1.140   .     S
C213   C214    1.418   .     S
C213   H224    1.140   .     S
C214   C215    1.413   .     D
C214   C226    1.561   .     S
C215   C216    1.406   .     S
C215   H220    1.140   .     S
C216   H219    1.140   .     S
C221   H222    1.140   .     S
C225   C46     1.561   1_455 S
C225   C74     1.561   1_455 S
C226   C130    1.561   1_545 S
C226   C186    1.561   1_545 S
