data_1155
_audit_creation_date              2023-09-08
_audit_creation_method            'Materials Studio'
_symmetry_space_group_name_H-M    'P1'
_symmetry_Int_Tables_number       1
_symmetry_cell_setting            triclinic
loop_
_symmetry_equiv_pos_as_xyz
  x,y,z
_cell_length_a                    27.2690
_cell_length_b                    27.2690
_cell_length_c                    14.2000
_cell_angle_alpha                 90.0000
_cell_angle_beta                  90.0000
_cell_angle_gamma                 90.0000
loop_
_atom_site_label
_atom_site_type_symbol
_atom_site_fract_x
_atom_site_fract_y
_atom_site_fract_z
_atom_site_U_iso_or_equiv
_atom_site_adp_type
_atom_site_occupancy
C1     C     0.21484   0.21484   0.72879   0.00000  Uiso   1.00
C2     C     0.23978   0.23978   0.65502   0.00000  Uiso   1.00
H3     H     0.18599   0.18599   0.71134   0.00000  Uiso   1.00
H4     H     0.23092   0.23092   0.57843   0.00000  Uiso   1.00
C5     C     0.22441   0.22441   0.82539   0.00000  Uiso   1.00
H6     H     0.08585   0.08585   0.10030   0.00000  Uiso   1.00
C7     C     0.19618   0.19618   0.90118   0.00000  Uiso   1.00
N8     N     0.20147   0.20147   0.99336   0.00000  Uiso   1.00
C9     C     0.17487   0.17487   0.06863   0.00000  Uiso   1.00
C10    C     0.18437   0.18437   0.16521   0.00000  Uiso   1.00
C11    C     0.15917   0.15917   0.23936   0.00000  Uiso   1.00
C12    C     0.12301   0.12301   0.22066   0.00000  Uiso   1.00
C13    C     0.11422   0.11422   0.12282   0.00000  Uiso   1.00
C14    C     0.13907   0.13907   0.04989   0.00000  Uiso   1.00
H15    H     0.16767   0.16767   0.87996   0.00000  Uiso   1.00
H16    H     0.21292   0.21292   0.18605   0.00000  Uiso   1.00
H17    H     0.13032   0.13032   0.97321   0.00000  Uiso   1.00
C18    C     0.09437   0.09437   0.29880   0.00000  Uiso   1.00
C19    C     0.05952   0.05952   0.27177   0.00000  Uiso   1.00
C20    C     0.03289   0.03289   0.33686   0.00000  Uiso   1.00
C21    C     0.03519   0.03519   0.43508   0.00000  Uiso   1.00
C22    C     0.07051   0.07051   0.46576   0.00000  Uiso   1.00
C23    C     0.09942   0.09942   0.39938   0.00000  Uiso   1.00
H24    H     0.16796   0.16796   0.31601   0.00000  Uiso   1.00
H25    H     0.05234   0.05234   0.19389   0.00000  Uiso   1.00
H26    H     0.12678   0.12678   0.42976   0.00000  Uiso   1.00
H27    H     0.07679   0.07679   0.54421   0.00000  Uiso   1.00
C28    C     0.78516   0.78516   0.72879   0.00000  Uiso   1.00
C29    C     0.76022   0.76022   0.65502   0.00000  Uiso   1.00
H30    H     0.81401   0.81401   0.71134   0.00000  Uiso   1.00
H31    H     0.76908   0.76908   0.57843   0.00000  Uiso   1.00
C32    C     0.77559   0.77559   0.82539   0.00000  Uiso   1.00
H33    H     0.91415   0.91415   0.10030   0.00000  Uiso   1.00
C34    C     0.80382   0.80382   0.90118   0.00000  Uiso   1.00
N35    N     0.79853   0.79853   0.99336   0.00000  Uiso   1.00
C36    C     0.82513   0.82513   0.06863   0.00000  Uiso   1.00
C37    C     0.81563   0.81563   0.16521   0.00000  Uiso   1.00
C38    C     0.84083   0.84083   0.23936   0.00000  Uiso   1.00
C39    C     0.87699   0.87699   0.22066   0.00000  Uiso   1.00
C40    C     0.88578   0.88578   0.12282   0.00000  Uiso   1.00
C41    C     0.86093   0.86093   0.04989   0.00000  Uiso   1.00
H42    H     0.83233   0.83233   0.87996   0.00000  Uiso   1.00
H43    H     0.78708   0.78708   0.18605   0.00000  Uiso   1.00
H44    H     0.86968   0.86968   0.97321   0.00000  Uiso   1.00
C45    C     0.90563   0.90563   0.29880   0.00000  Uiso   1.00
C46    C     0.94048   0.94048   0.27177   0.00000  Uiso   1.00
C47    C     0.96711   0.96711   0.33686   0.00000  Uiso   1.00
C48    C     0.96481   0.96481   0.43508   0.00000  Uiso   1.00
C49    C     0.92949   0.92949   0.46576   0.00000  Uiso   1.00
C50    C     0.90058   0.90058   0.39938   0.00000  Uiso   1.00
H51    H     0.83204   0.83204   0.31601   0.00000  Uiso   1.00
H52    H     0.94766   0.94766   0.19389   0.00000  Uiso   1.00
H53    H     0.87322   0.87322   0.42976   0.00000  Uiso   1.00
H54    H     0.92321   0.92321   0.54421   0.00000  Uiso   1.00
C55    C     0.28516   0.71484   0.22879   0.00000  Uiso   1.00
C56    C     0.26022   0.73978   0.15502   0.00000  Uiso   1.00
H57    H     0.31401   0.68599   0.21134   0.00000  Uiso   1.00
H58    H     0.26908   0.73092   0.07843   0.00000  Uiso   1.00
C59    C     0.27559   0.72441   0.32539   0.00000  Uiso   1.00
H60    H     0.41415   0.58585   0.60030   0.00000  Uiso   1.00
C61    C     0.30382   0.69618   0.40118   0.00000  Uiso   1.00
N62    N     0.29853   0.70147   0.49336   0.00000  Uiso   1.00
C63    C     0.32513   0.67487   0.56863   0.00000  Uiso   1.00
C64    C     0.31563   0.68437   0.66521   0.00000  Uiso   1.00
C65    C     0.34083   0.65917   0.73936   0.00000  Uiso   1.00
C66    C     0.37699   0.62301   0.72066   0.00000  Uiso   1.00
C67    C     0.38578   0.61422   0.62282   0.00000  Uiso   1.00
C68    C     0.36093   0.63907   0.54989   0.00000  Uiso   1.00
H69    H     0.33233   0.66767   0.37996   0.00000  Uiso   1.00
H70    H     0.28708   0.71292   0.68605   0.00000  Uiso   1.00
H71    H     0.36968   0.63032   0.47321   0.00000  Uiso   1.00
C72    C     0.40563   0.59437   0.79880   0.00000  Uiso   1.00
C73    C     0.44048   0.55952   0.77177   0.00000  Uiso   1.00
C74    C     0.46711   0.53289   0.83686   0.00000  Uiso   1.00
C75    C     0.46481   0.53519   0.93508   0.00000  Uiso   1.00
C76    C     0.42949   0.57051   0.96576   0.00000  Uiso   1.00
C77    C     0.40058   0.59942   0.89938   0.00000  Uiso   1.00
H78    H     0.33204   0.66796   0.81601   0.00000  Uiso   1.00
H79    H     0.44766   0.55234   0.69389   0.00000  Uiso   1.00
H80    H     0.37322   0.62678   0.92976   0.00000  Uiso   1.00
H81    H     0.42321   0.57679   0.04421   0.00000  Uiso   1.00
C82    C     0.71484   0.28516   0.22879   0.00000  Uiso   1.00
C83    C     0.73978   0.26022   0.15502   0.00000  Uiso   1.00
H84    H     0.68599   0.31401   0.21134   0.00000  Uiso   1.00
H85    H     0.73092   0.26908   0.07843   0.00000  Uiso   1.00
C86    C     0.72441   0.27559   0.32539   0.00000  Uiso   1.00
H87    H     0.58585   0.41415   0.60030   0.00000  Uiso   1.00
C88    C     0.69618   0.30382   0.40118   0.00000  Uiso   1.00
N89    N     0.70147   0.29853   0.49336   0.00000  Uiso   1.00
C90    C     0.67487   0.32513   0.56863   0.00000  Uiso   1.00
C91    C     0.68437   0.31563   0.66521   0.00000  Uiso   1.00
C92    C     0.65917   0.34083   0.73936   0.00000  Uiso   1.00
C93    C     0.62301   0.37699   0.72066   0.00000  Uiso   1.00
C94    C     0.61422   0.38578   0.62282   0.00000  Uiso   1.00
C95    C     0.63907   0.36093   0.54989   0.00000  Uiso   1.00
H96    H     0.66767   0.33233   0.37996   0.00000  Uiso   1.00
H97    H     0.71292   0.28708   0.68605   0.00000  Uiso   1.00
H98    H     0.63032   0.36968   0.47321   0.00000  Uiso   1.00
C99    C     0.59437   0.40563   0.79880   0.00000  Uiso   1.00
C100   C     0.55952   0.44048   0.77177   0.00000  Uiso   1.00
C101   C     0.53289   0.46711   0.83686   0.00000  Uiso   1.00
C102   C     0.53519   0.46481   0.93508   0.00000  Uiso   1.00
C103   C     0.57051   0.42949   0.96576   0.00000  Uiso   1.00
C104   C     0.59942   0.40058   0.89938   0.00000  Uiso   1.00
H105   H     0.66796   0.33204   0.81601   0.00000  Uiso   1.00
H106   H     0.55234   0.44766   0.69389   0.00000  Uiso   1.00
H107   H     0.62678   0.37322   0.92976   0.00000  Uiso   1.00
H108   H     0.57679   0.42321   0.04421   0.00000  Uiso   1.00
C109   C     0.78516   0.21484   0.27121   0.00000  Uiso   1.00
C110   C     0.76022   0.23978   0.34498   0.00000  Uiso   1.00
H111   H     0.81401   0.18599   0.28866   0.00000  Uiso   1.00
H112   H     0.76908   0.23092   0.42157   0.00000  Uiso   1.00
C113   C     0.77559   0.22441   0.17461   0.00000  Uiso   1.00
H114   H     0.91415   0.08585   0.89970   0.00000  Uiso   1.00
C115   C     0.80382   0.19618   0.09882   0.00000  Uiso   1.00
N116   N     0.79853   0.20147   0.00664   0.00000  Uiso   1.00
C117   C     0.82513   0.17487   0.93137   0.00000  Uiso   1.00
C118   C     0.81563   0.18437   0.83479   0.00000  Uiso   1.00
C119   C     0.84083   0.15917   0.76064   0.00000  Uiso   1.00
C120   C     0.87699   0.12301   0.77934   0.00000  Uiso   1.00
C121   C     0.88578   0.11422   0.87718   0.00000  Uiso   1.00
C122   C     0.86093   0.13907   0.95011   0.00000  Uiso   1.00
H123   H     0.83233   0.16767   0.12004   0.00000  Uiso   1.00
H124   H     0.78708   0.21292   0.81395   0.00000  Uiso   1.00
H125   H     0.86968   0.13032   0.02679   0.00000  Uiso   1.00
C126   C     0.90563   0.09437   0.70120   0.00000  Uiso   1.00
C127   C     0.94048   0.05952   0.72823   0.00000  Uiso   1.00
C128   C     0.96711   0.03289   0.66314   0.00000  Uiso   1.00
C129   C     0.96481   0.03519   0.56492   0.00000  Uiso   1.00
C130   C     0.92949   0.07051   0.53424   0.00000  Uiso   1.00
C131   C     0.90058   0.09942   0.60062   0.00000  Uiso   1.00
H132   H     0.83204   0.16796   0.68399   0.00000  Uiso   1.00
H133   H     0.94766   0.05234   0.80611   0.00000  Uiso   1.00
H134   H     0.87322   0.12678   0.57024   0.00000  Uiso   1.00
H135   H     0.92321   0.07679   0.45579   0.00000  Uiso   1.00
C136   C     0.21484   0.78516   0.27121   0.00000  Uiso   1.00
C137   C     0.23978   0.76022   0.34498   0.00000  Uiso   1.00
H138   H     0.18599   0.81401   0.28866   0.00000  Uiso   1.00
H139   H     0.23092   0.76908   0.42157   0.00000  Uiso   1.00
C140   C     0.22441   0.77559   0.17461   0.00000  Uiso   1.00
H141   H     0.08585   0.91415   0.89970   0.00000  Uiso   1.00
C142   C     0.19618   0.80382   0.09882   0.00000  Uiso   1.00
N143   N     0.20147   0.79853   0.00664   0.00000  Uiso   1.00
C144   C     0.17487   0.82513   0.93137   0.00000  Uiso   1.00
C145   C     0.18437   0.81563   0.83479   0.00000  Uiso   1.00
C146   C     0.15917   0.84083   0.76064   0.00000  Uiso   1.00
C147   C     0.12301   0.87699   0.77934   0.00000  Uiso   1.00
C148   C     0.11422   0.88578   0.87718   0.00000  Uiso   1.00
C149   C     0.13907   0.86093   0.95011   0.00000  Uiso   1.00
H150   H     0.16767   0.83233   0.12004   0.00000  Uiso   1.00
H151   H     0.21292   0.78708   0.81395   0.00000  Uiso   1.00
H152   H     0.13032   0.86968   0.02679   0.00000  Uiso   1.00
C153   C     0.09437   0.90563   0.70120   0.00000  Uiso   1.00
C154   C     0.05952   0.94048   0.72823   0.00000  Uiso   1.00
C155   C     0.03289   0.96711   0.66314   0.00000  Uiso   1.00
C156   C     0.03519   0.96481   0.56492   0.00000  Uiso   1.00
C157   C     0.07051   0.92949   0.53424   0.00000  Uiso   1.00
C158   C     0.09942   0.90058   0.60062   0.00000  Uiso   1.00
H159   H     0.16796   0.83204   0.68399   0.00000  Uiso   1.00
H160   H     0.05234   0.94766   0.80611   0.00000  Uiso   1.00
H161   H     0.12678   0.87322   0.57024   0.00000  Uiso   1.00
H162   H     0.07679   0.92321   0.45579   0.00000  Uiso   1.00
C163   C     0.71484   0.71484   0.77121   0.00000  Uiso   1.00
C164   C     0.73978   0.73978   0.84498   0.00000  Uiso   1.00
H165   H     0.68599   0.68599   0.78866   0.00000  Uiso   1.00
H166   H     0.73092   0.73092   0.92157   0.00000  Uiso   1.00
C167   C     0.72441   0.72441   0.67461   0.00000  Uiso   1.00
H168   H     0.58585   0.58585   0.39970   0.00000  Uiso   1.00
C169   C     0.69618   0.69618   0.59882   0.00000  Uiso   1.00
N170   N     0.70147   0.70147   0.50664   0.00000  Uiso   1.00
C171   C     0.67487   0.67487   0.43137   0.00000  Uiso   1.00
C172   C     0.68437   0.68437   0.33479   0.00000  Uiso   1.00
C173   C     0.65917   0.65917   0.26064   0.00000  Uiso   1.00
C174   C     0.62301   0.62301   0.27934   0.00000  Uiso   1.00
C175   C     0.61422   0.61422   0.37718   0.00000  Uiso   1.00
C176   C     0.63907   0.63907   0.45011   0.00000  Uiso   1.00
H177   H     0.66767   0.66767   0.62004   0.00000  Uiso   1.00
H178   H     0.71292   0.71292   0.31395   0.00000  Uiso   1.00
H179   H     0.63032   0.63032   0.52679   0.00000  Uiso   1.00
C180   C     0.59437   0.59437   0.20120   0.00000  Uiso   1.00
C181   C     0.55952   0.55952   0.22823   0.00000  Uiso   1.00
C182   C     0.53289   0.53289   0.16314   0.00000  Uiso   1.00
C183   C     0.53519   0.53519   0.06492   0.00000  Uiso   1.00
C184   C     0.57051   0.57051   0.03424   0.00000  Uiso   1.00
C185   C     0.59942   0.59942   0.10062   0.00000  Uiso   1.00
H186   H     0.66796   0.66796   0.18399   0.00000  Uiso   1.00
H187   H     0.55234   0.55234   0.30611   0.00000  Uiso   1.00
H188   H     0.62678   0.62678   0.07024   0.00000  Uiso   1.00
H189   H     0.57679   0.57679   0.95579   0.00000  Uiso   1.00
C190   C     0.28516   0.28516   0.77121   0.00000  Uiso   1.00
C191   C     0.26022   0.26022   0.84498   0.00000  Uiso   1.00
H192   H     0.31401   0.31401   0.78866   0.00000  Uiso   1.00
H193   H     0.26908   0.26908   0.92157   0.00000  Uiso   1.00
C194   C     0.27559   0.27559   0.67461   0.00000  Uiso   1.00
H195   H     0.41415   0.41415   0.39970   0.00000  Uiso   1.00
C196   C     0.30382   0.30382   0.59882   0.00000  Uiso   1.00
N197   N     0.29853   0.29853   0.50664   0.00000  Uiso   1.00
C198   C     0.32513   0.32513   0.43137   0.00000  Uiso   1.00
C199   C     0.31563   0.31563   0.33479   0.00000  Uiso   1.00
C200   C     0.34083   0.34083   0.26064   0.00000  Uiso   1.00
C201   C     0.37699   0.37699   0.27934   0.00000  Uiso   1.00
C202   C     0.38578   0.38578   0.37718   0.00000  Uiso   1.00
C203   C     0.36093   0.36093   0.45011   0.00000  Uiso   1.00
H204   H     0.33233   0.33233   0.62004   0.00000  Uiso   1.00
H205   H     0.28708   0.28708   0.31395   0.00000  Uiso   1.00
H206   H     0.36968   0.36968   0.52679   0.00000  Uiso   1.00
C207   C     0.40563   0.40563   0.20120   0.00000  Uiso   1.00
C208   C     0.44048   0.44048   0.22823   0.00000  Uiso   1.00
C209   C     0.46711   0.46711   0.16314   0.00000  Uiso   1.00
C210   C     0.46481   0.46481   0.06492   0.00000  Uiso   1.00
C211   C     0.42949   0.42949   0.03424   0.00000  Uiso   1.00
C212   C     0.40058   0.40058   0.10062   0.00000  Uiso   1.00
H213   H     0.33204   0.33204   0.18399   0.00000  Uiso   1.00
H214   H     0.44766   0.44766   0.30611   0.00000  Uiso   1.00
H215   H     0.37322   0.37322   0.07024   0.00000  Uiso   1.00
H216   H     0.42321   0.42321   0.95579   0.00000  Uiso   1.00
C217   C     0.00000   0.00000   0.50000   0.00000  Uiso   1.00
C218   C     0.50000   0.50000   0.00000   0.00000  Uiso   1.00
H219   H     0.00478   0.00478   0.31203   0.00000  Uiso   1.00
H220   H     0.99522   0.99522   0.31203   0.00000  Uiso   1.00
H221   H     0.49522   0.50478   0.81203   0.00000  Uiso   1.00
H222   H     0.50478   0.49522   0.81203   0.00000  Uiso   1.00
H223   H     0.99522   0.00478   0.68797   0.00000  Uiso   1.00
H224   H     0.00478   0.99522   0.68797   0.00000  Uiso   1.00
H225   H     0.50478   0.50478   0.18797   0.00000  Uiso   1.00
H226   H     0.49522   0.49522   0.18797   0.00000  Uiso   1.00
loop_
_geom_bond_atom_site_label_1
_geom_bond_atom_site_label_2
_geom_bond_distance
_geom_bond_site_symmetry_2
_ccdc_geom_bond_type
C1     C2      1.422   .     S
C1     H3      1.140   .     S
C1     C5      1.421   .     D
C2     H4      1.140   .     S
C2     C194    1.409   .     D
C5     C7      1.531   .     S
C5     C191    1.409   .     S
H6     C13     1.140   .     S
C7     N8      1.325   .     D
C7     H15     1.140   .     S
N8     C9      1.481   1_556 S
C9     C10     1.420   .     D
C9     C14     1.406   .     S
C9     N8      1.481   1_554 S
C10    C11     1.433   .     S
C10    H16     1.140   .     S
C11    C12     1.420   .     D
C11    H24     1.140   .     S
C12    C13     1.430   .     S
C12    C18     1.566   .     S
C13    C14     1.411   .     D
C14    H17     1.140   1_554 S
H17    C14     1.140   1_556 S
C18    C19     1.398   .     D
C18    C23     1.441   .     S
C19    C20     1.382   .     S
C19    H25     1.140   .     S
C20    C21     1.398   .     D
C20    H219    1.140   .     S
C21    C22     1.430   .     S
C21    C217    1.641   .     S
C22    C23     1.460   .     D
C22    H27     1.140   .     S
C23    H26     1.140   .     S
C28    C29     1.422   .     S
C28    H30     1.140   .     S
C28    C32     1.421   .     D
C29    H31     1.140   .     S
C29    C167    1.409   .     D
C32    C34     1.531   .     S
C32    C164    1.409   .     S
H33    C40     1.140   .     S
C34    N35     1.325   .     D
C34    H42     1.140   .     S
N35    C36     1.481   1_556 S
C36    C37     1.420   .     D
C36    C41     1.406   .     S
C36    N35     1.481   1_554 S
C37    C38     1.433   .     S
C37    H43     1.140   .     S
C38    C39     1.420   .     D
C38    H51     1.140   .     S
C39    C40     1.430   .     S
C39    C45     1.566   .     S
C40    C41     1.411   .     D
C41    H44     1.140   1_554 S
H44    C41     1.140   1_556 S
C45    C46     1.398   .     D
C45    C50     1.441   .     S
C46    C47     1.382   .     S
C46    H52     1.140   .     S
C47    C48     1.398   .     D
C47    H220    1.140   .     S
C48    C49     1.430   .     S
C48    C217    1.641   1_665 S
C49    C50     1.460   .     D
C49    H54     1.140   .     S
C50    H53     1.140   .     S
C55    C56     1.422   .     S
C55    H57     1.140   .     S
C55    C59     1.421   .     D
C56    H58     1.140   .     S
C56    C140    1.409   .     D
C59    C61     1.531   .     S
C59    C137    1.409   .     S
H60    C67     1.140   .     S
C61    N62     1.325   .     D
C61    H69     1.140   .     S
N62    C63     1.481   .     S
C63    C64     1.420   .     D
C63    C68     1.406   .     S
C64    C65     1.433   .     S
C64    H70     1.140   .     S
C65    C66     1.420   .     D
C65    H78     1.140   .     S
C66    C67     1.430   .     S
C66    C72     1.566   .     S
C67    C68     1.411   .     D
C68    H71     1.140   .     S
C72    C73     1.398   .     D
C72    C77     1.441   .     S
C73    C74     1.382   .     S
C73    H79     1.140   .     S
C74    C75     1.398   .     D
C74    H221    1.140   .     S
C75    C76     1.430   .     S
C75    C218    1.641   1_556 S
C76    C77     1.460   .     D
C76    H81     1.140   1_556 S
C77    H80     1.140   .     S
H81    C76     1.140   1_554 S
C82    C83     1.422   .     S
C82    H84     1.140   .     S
C82    C86     1.421   .     D
C83    H85     1.140   .     S
C83    C113    1.409   .     D
C86    C88     1.531   .     S
C86    C110    1.409   .     S
H87    C94     1.140   .     S
C88    N89     1.325   .     D
C88    H96     1.140   .     S
N89    C90     1.481   .     S
C90    C91     1.420   .     D
C90    C95     1.406   .     S
C91    C92     1.433   .     S
C91    H97     1.140   .     S
C92    C93     1.420   .     D
C92    H105    1.140   .     S
C93    C94     1.430   .     S
C93    C99     1.566   .     S
C94    C95     1.411   .     D
C95    H98     1.140   .     S
C99    C100    1.398   .     D
C99    C104    1.441   .     S
C100   C101    1.382   .     S
C100   H106    1.140   .     S
C101   C102    1.398   .     D
C101   H222    1.140   .     S
C102   C103    1.430   .     S
C102   C218    1.641   1_556 S
C103   C104    1.460   .     D
C103   H108    1.140   1_556 S
C104   H107    1.140   .     S
H108   C103    1.140   1_554 S
C109   C110    1.422   .     D
C109   H111    1.140   .     S
C109   C113    1.421   .     S
C110   H112    1.140   .     S
C113   C115    1.531   .     S
H114   C121    1.140   .     S
C115   N116    1.325   .     D
C115   H123    1.140   .     S
N116   C117    1.481   1_554 S
C117   C118    1.420   .     D
C117   C122    1.406   .     S
C117   N116    1.481   1_556 S
C118   C119    1.433   .     S
C118   H124    1.140   .     S
C119   C120    1.420   .     D
C119   H132    1.140   .     S
C120   C121    1.430   .     S
C120   C126    1.566   .     S
C121   C122    1.411   .     D
C122   H125    1.140   1_556 S
H125   C122    1.140   1_554 S
C126   C127    1.398   .     S
C126   C131    1.441   .     D
C127   C128    1.382   .     D
C127   H133    1.140   .     S
C128   C129    1.398   .     S
C128   H223    1.140   .     S
C129   C130    1.430   .     D
C129   C217    1.641   1_655 S
C130   C131    1.460   .     S
C130   H135    1.140   .     S
C131   H134    1.140   .     S
C136   C137    1.422   .     D
C136   H138    1.140   .     S
C136   C140    1.421   .     S
C137   H139    1.140   .     S
C140   C142    1.531   .     S
H141   C148    1.140   .     S
C142   N143    1.325   .     D
C142   H150    1.140   .     S
N143   C144    1.481   1_554 S
C144   C145    1.420   .     D
C144   C149    1.406   .     S
C144   N143    1.481   1_556 S
C145   C146    1.433   .     S
C145   H151    1.140   .     S
C146   C147    1.420   .     D
C146   H159    1.140   .     S
C147   C148    1.430   .     S
C147   C153    1.566   .     S
C148   C149    1.411   .     D
C149   H152    1.140   1_556 S
H152   C149    1.140   1_554 S
C153   C154    1.398   .     S
C153   C158    1.441   .     D
C154   C155    1.382   .     D
C154   H160    1.140   .     S
C155   C156    1.398   .     S
C155   H224    1.140   .     S
C156   C157    1.430   .     D
C156   C217    1.641   1_565 S
C157   C158    1.460   .     S
C157   H162    1.140   .     S
C158   H161    1.140   .     S
C163   C164    1.422   .     D
C163   H165    1.140   .     S
C163   C167    1.421   .     S
C164   H166    1.140   .     S
C167   C169    1.531   .     S
H168   C175    1.140   .     S
C169   N170    1.325   .     D
C169   H177    1.140   .     S
N170   C171    1.481   .     S
C171   C172    1.420   .     D
C171   C176    1.406   .     S
C172   C173    1.433   .     S
C172   H178    1.140   .     S
C173   C174    1.420   .     D
C173   H186    1.140   .     S
C174   C175    1.430   .     S
C174   C180    1.566   .     S
C175   C176    1.411   .     D
C176   H179    1.140   .     S
C180   C181    1.398   .     S
C180   C185    1.441   .     D
C181   C182    1.382   .     D
C181   H187    1.140   .     S
C182   C183    1.398   .     S
C182   H225    1.140   .     S
C183   C184    1.430   .     D
C183   C218    1.641   .     S
C184   C185    1.460   .     S
C184   H189    1.140   1_554 S
C185   H188    1.140   .     S
H189   C184    1.140   1_556 S
C190   C191    1.422   .     D
C190   H192    1.140   .     S
C190   C194    1.421   .     S
C191   H193    1.140   .     S
C194   C196    1.531   .     S
H195   C202    1.140   .     S
C196   N197    1.325   .     D
C196   H204    1.140   .     S
N197   C198    1.481   .     S
C198   C199    1.420   .     D
C198   C203    1.406   .     S
C199   C200    1.433   .     S
C199   H205    1.140   .     S
C200   C201    1.420   .     D
C200   H213    1.140   .     S
C201   C202    1.430   .     S
C201   C207    1.566   .     S
C202   C203    1.411   .     D
C203   H206    1.140   .     S
C207   C208    1.398   .     S
C207   C212    1.441   .     D
C208   C209    1.382   .     D
C208   H214    1.140   .     S
C209   C210    1.398   .     S
C209   H226    1.140   .     S
C210   C211    1.430   .     D
C210   C218    1.641   .     S
C211   C212    1.460   .     S
C211   H216    1.140   1_554 S
C212   H215    1.140   .     S
H216   C211    1.140   1_556 S
C217   C48     1.641   1_445 S
C217   C129    1.641   1_455 S
C217   C156    1.641   1_545 S
C218   C75     1.641   1_554 S
C218   C102    1.641   1_554 S
