data_1157
_audit_creation_date              2023-09-08
_audit_creation_method            'Materials Studio'
_symmetry_space_group_name_H-M    'P1'
_symmetry_Int_Tables_number       1
_symmetry_cell_setting            triclinic
loop_
_symmetry_equiv_pos_as_xyz
  x,y,z
_cell_length_a                    37.2100
_cell_length_b                    37.2100
_cell_length_c                    3.7700
_cell_angle_alpha                 90.0000
_cell_angle_beta                  90.0000
_cell_angle_gamma                 120.0000
loop_
_atom_site_label
_atom_site_type_symbol
_atom_site_fract_x
_atom_site_fract_y
_atom_site_fract_z
_atom_site_U_iso_or_equiv
_atom_site_adp_type
_atom_site_occupancy
C1     C     0.39185   0.82447   0.00637   0.00000  Uiso   1.00
C2     C     0.36893   0.78066   0.01042   0.00000  Uiso   1.00
C3     C     0.38373   0.75677  -0.15777   0.00000  Uiso   1.00
C4     C     0.42323   0.77740  -0.31622   0.00000  Uiso   1.00
C5     C     0.44734   0.82054  -0.30311   0.00000  Uiso   1.00
C6     C     0.43203   0.84404  -0.14498   0.00000  Uiso   1.00
C7     C     0.35788   0.71048  -0.16561   0.00000  Uiso   1.00
C8     C     0.37655   0.68570  -0.16729   0.00000  Uiso   1.00
N9     N     0.42967   0.54376  -0.13879   0.00000  Uiso   1.00
C10    C     0.44350   0.91104   0.00648   0.00000  Uiso   1.00
C11    C     0.48454   0.52788   0.00440   0.00000  Uiso   1.00
C12    C     0.52753   0.54279  -0.00105   0.00000  Uiso   1.00
C13    C     0.54272   0.51520  -0.00031   0.00000  Uiso   1.00
C14    C     0.47276   0.62284   0.15539   0.00000  Uiso   1.00
C15    C     0.48937   0.59617   0.15688   0.00000  Uiso   1.00
C16    C     0.49913   0.66531   0.30556   0.00000  Uiso   1.00
O17    O     0.49365   0.69398   0.22798   0.00000  Uiso   1.00
O18    O     0.53157   0.67302   0.53295   0.00000  Uiso   1.00
H19    H     0.34042   0.76457   0.15758   0.00000  Uiso   1.00
H20    H     0.43544   0.76046  -0.45711   0.00000  Uiso   1.00
H21    H     0.47781   0.83607  -0.42412   0.00000  Uiso   1.00
H22    H     0.40998   0.70044  -0.16797   0.00000  Uiso   1.00
H23    H     0.54957   0.57571  -0.01212   0.00000  Uiso   1.00
H24    H     0.57596   0.52749  -0.00200   0.00000  Uiso   1.00
H25    H     0.51927   0.60647   0.27893   0.00000  Uiso   1.00
H26    H     0.54582   0.70293   0.61567   0.00000  Uiso   1.00
C27    C     0.17553   0.56738   0.00637   0.00000  Uiso   1.00
C28    C     0.21934   0.58827   0.01042   0.00000  Uiso   1.00
C29    C     0.24323   0.62696  -0.15777   0.00000  Uiso   1.00
C30    C     0.22260   0.64583  -0.31622   0.00000  Uiso   1.00
C31    C     0.17946   0.62680  -0.30311   0.00000  Uiso   1.00
C32    C     0.15596   0.58799  -0.14498   0.00000  Uiso   1.00
C33    C     0.28952   0.64740  -0.16561   0.00000  Uiso   1.00
C34    C     0.31430   0.69085  -0.16729   0.00000  Uiso   1.00
N35    N     0.45624   0.88591  -0.13879   0.00000  Uiso   1.00
C36    C     0.08896   0.53246   0.00648   0.00000  Uiso   1.00
C37    C     0.47212   0.95666   0.00440   0.00000  Uiso   1.00
C38    C     0.45721   0.98474  -0.00105   0.00000  Uiso   1.00
C39    C     0.48480   0.02752  -0.00031   0.00000  Uiso   1.00
C40    C     0.37716   0.84992   0.15539   0.00000  Uiso   1.00
C41    C     0.40383   0.89320   0.15688   0.00000  Uiso   1.00
C42    C     0.33469   0.83382   0.30556   0.00000  Uiso   1.00
O43    O     0.30602   0.79967   0.22798   0.00000  Uiso   1.00
O44    O     0.32698   0.85855   0.53295   0.00000  Uiso   1.00
H45    H     0.23543   0.57585   0.15758   0.00000  Uiso   1.00
H46    H     0.23954   0.67498  -0.45711   0.00000  Uiso   1.00
H47    H     0.16393   0.64174  -0.42412   0.00000  Uiso   1.00
H48    H     0.29956   0.70954  -0.16797   0.00000  Uiso   1.00
H49    H     0.42429   0.97386  -0.01212   0.00000  Uiso   1.00
H50    H     0.47251   0.04847  -0.00200   0.00000  Uiso   1.00
H51    H     0.39353   0.91280   0.27893   0.00000  Uiso   1.00
H52    H     0.29707   0.84289   0.61567   0.00000  Uiso   1.00
C53    C     0.43262   0.60815   0.00637   0.00000  Uiso   1.00
C54    C     0.41173   0.63107   0.01042   0.00000  Uiso   1.00
C55    C     0.37304   0.61627  -0.15777   0.00000  Uiso   1.00
C56    C     0.35417   0.57677  -0.31622   0.00000  Uiso   1.00
C57    C     0.37320   0.55266  -0.30311   0.00000  Uiso   1.00
C58    C     0.41201   0.56797  -0.14498   0.00000  Uiso   1.00
C59    C     0.35260   0.64212  -0.16561   0.00000  Uiso   1.00
C60    C     0.30915   0.62345  -0.16729   0.00000  Uiso   1.00
N61    N     0.11409   0.57033  -0.13879   0.00000  Uiso   1.00
C62    C     0.46754   0.55650   0.00648   0.00000  Uiso   1.00
C63    C     0.04334   0.51546   0.00440   0.00000  Uiso   1.00
C64    C     0.01526   0.47247  -0.00105   0.00000  Uiso   1.00
C65    C     0.97248   0.45728  -0.00031   0.00000  Uiso   1.00
C66    C     0.15008   0.52724   0.15539   0.00000  Uiso   1.00
C67    C     0.10680   0.51063   0.15688   0.00000  Uiso   1.00
C68    C     0.16618   0.50087   0.30556   0.00000  Uiso   1.00
O69    O     0.20033   0.50635   0.22798   0.00000  Uiso   1.00
O70    O     0.14145   0.46843   0.53295   0.00000  Uiso   1.00
H71    H     0.42415   0.65958   0.15758   0.00000  Uiso   1.00
H72    H     0.32502   0.56456  -0.45711   0.00000  Uiso   1.00
H73    H     0.35826   0.52219  -0.42412   0.00000  Uiso   1.00
H74    H     0.29046   0.59002  -0.16797   0.00000  Uiso   1.00
H75    H     0.02614   0.45043  -0.01212   0.00000  Uiso   1.00
H76    H     0.95153   0.42404  -0.00200   0.00000  Uiso   1.00
H77    H     0.08720   0.48073   0.27893   0.00000  Uiso   1.00
H78    H     0.15711   0.45418   0.61567   0.00000  Uiso   1.00
C79    C     0.60815   0.17553   0.00637   0.00000  Uiso   1.00
C80    C     0.63107   0.21934   0.01042   0.00000  Uiso   1.00
C81    C     0.61627   0.24323  -0.15777   0.00000  Uiso   1.00
C82    C     0.57677   0.22260  -0.31622   0.00000  Uiso   1.00
C83    C     0.55266   0.17946  -0.30311   0.00000  Uiso   1.00
C84    C     0.56797   0.15596  -0.14498   0.00000  Uiso   1.00
C85    C     0.64212   0.28952  -0.16561   0.00000  Uiso   1.00
C86    C     0.62345   0.31430  -0.16729   0.00000  Uiso   1.00
N87    N     0.57033   0.45624  -0.13879   0.00000  Uiso   1.00
C88    C     0.55650   0.08896   0.00648   0.00000  Uiso   1.00
C89    C     0.51546   0.47212   0.00440   0.00000  Uiso   1.00
C90    C     0.47247   0.45721  -0.00105   0.00000  Uiso   1.00
C91    C     0.45728   0.48480  -0.00031   0.00000  Uiso   1.00
C92    C     0.52724   0.37716   0.15539   0.00000  Uiso   1.00
C93    C     0.51063   0.40383   0.15688   0.00000  Uiso   1.00
C94    C     0.50087   0.33469   0.30556   0.00000  Uiso   1.00
O95    O     0.50635   0.30602   0.22798   0.00000  Uiso   1.00
O96    O     0.46843   0.32698   0.53295   0.00000  Uiso   1.00
H97    H     0.65958   0.23543   0.15758   0.00000  Uiso   1.00
H98    H     0.56456   0.23954  -0.45711   0.00000  Uiso   1.00
H99    H     0.52219   0.16393  -0.42412   0.00000  Uiso   1.00
H100   H     0.59002   0.29956  -0.16797   0.00000  Uiso   1.00
H101   H     0.45043   0.42429  -0.01212   0.00000  Uiso   1.00
H102   H     0.42404   0.47251  -0.00200   0.00000  Uiso   1.00
H103   H     0.48073   0.39353   0.27893   0.00000  Uiso   1.00
H104   H     0.45418   0.29707   0.61567   0.00000  Uiso   1.00
C105   C     0.82447   0.43262   0.00637   0.00000  Uiso   1.00
C106   C     0.78066   0.41173   0.01042   0.00000  Uiso   1.00
C107   C     0.75677   0.37304  -0.15777   0.00000  Uiso   1.00
C108   C     0.77740   0.35417  -0.31622   0.00000  Uiso   1.00
C109   C     0.82054   0.37320  -0.30311   0.00000  Uiso   1.00
C110   C     0.84404   0.41201  -0.14498   0.00000  Uiso   1.00
C111   C     0.71048   0.35260  -0.16561   0.00000  Uiso   1.00
C112   C     0.68570   0.30915  -0.16729   0.00000  Uiso   1.00
N113   N     0.54376   0.11409  -0.13879   0.00000  Uiso   1.00
C114   C     0.91104   0.46754   0.00648   0.00000  Uiso   1.00
C115   C     0.52788   0.04334   0.00440   0.00000  Uiso   1.00
C116   C     0.54279   0.01526  -0.00105   0.00000  Uiso   1.00
C117   C     0.51520   0.97248  -0.00031   0.00000  Uiso   1.00
C118   C     0.62284   0.15008   0.15539   0.00000  Uiso   1.00
C119   C     0.59617   0.10680   0.15688   0.00000  Uiso   1.00
C120   C     0.66531   0.16618   0.30556   0.00000  Uiso   1.00
O121   O     0.69398   0.20033   0.22798   0.00000  Uiso   1.00
O122   O     0.67302   0.14145   0.53295   0.00000  Uiso   1.00
H123   H     0.76457   0.42415   0.15758   0.00000  Uiso   1.00
H124   H     0.76046   0.32502  -0.45711   0.00000  Uiso   1.00
H125   H     0.83607   0.35826  -0.42412   0.00000  Uiso   1.00
H126   H     0.70044   0.29046  -0.16797   0.00000  Uiso   1.00
H127   H     0.57571   0.02614  -0.01212   0.00000  Uiso   1.00
H128   H     0.52749   0.95153  -0.00200   0.00000  Uiso   1.00
H129   H     0.60647   0.08720   0.27893   0.00000  Uiso   1.00
H130   H     0.70293   0.15711   0.61567   0.00000  Uiso   1.00
C131   C     0.56738   0.39185   0.00637   0.00000  Uiso   1.00
C132   C     0.58827   0.36893   0.01042   0.00000  Uiso   1.00
C133   C     0.62696   0.38373  -0.15777   0.00000  Uiso   1.00
C134   C     0.64583   0.42323  -0.31622   0.00000  Uiso   1.00
C135   C     0.62680   0.44734  -0.30311   0.00000  Uiso   1.00
C136   C     0.58799   0.43203  -0.14498   0.00000  Uiso   1.00
C137   C     0.64740   0.35788  -0.16561   0.00000  Uiso   1.00
C138   C     0.69085   0.37655  -0.16729   0.00000  Uiso   1.00
N139   N     0.88591   0.42967  -0.13879   0.00000  Uiso   1.00
C140   C     0.53246   0.44350   0.00648   0.00000  Uiso   1.00
C141   C     0.95666   0.48454   0.00440   0.00000  Uiso   1.00
C142   C     0.98474   0.52753  -0.00105   0.00000  Uiso   1.00
C143   C     0.02752   0.54272  -0.00031   0.00000  Uiso   1.00
C144   C     0.84992   0.47276   0.15539   0.00000  Uiso   1.00
C145   C     0.89320   0.48937   0.15688   0.00000  Uiso   1.00
C146   C     0.83382   0.49913   0.30556   0.00000  Uiso   1.00
O147   O     0.79967   0.49365   0.22798   0.00000  Uiso   1.00
O148   O     0.85855   0.53157   0.53295   0.00000  Uiso   1.00
H149   H     0.57585   0.34042   0.15758   0.00000  Uiso   1.00
H150   H     0.67498   0.43544  -0.45711   0.00000  Uiso   1.00
H151   H     0.64174   0.47781  -0.42412   0.00000  Uiso   1.00
H152   H     0.70954   0.40998  -0.16797   0.00000  Uiso   1.00
H153   H     0.97386   0.54957  -0.01212   0.00000  Uiso   1.00
H154   H     0.04847   0.57596  -0.00200   0.00000  Uiso   1.00
H155   H     0.91280   0.51927   0.27893   0.00000  Uiso   1.00
H156   H     0.84289   0.54582   0.61567   0.00000  Uiso   1.00
loop_
_geom_bond_atom_site_label_1
_geom_bond_atom_site_label_2
_geom_bond_distance
_geom_bond_site_symmetry_2
_ccdc_geom_bond_type
C1     C2      1.412   .     S
C1     C6      1.415   .     S
C1     C40     1.424   .     D
C2     C3      1.409   .     D
C2     H19     1.075   .     S
C3     C4      1.406   .     S
C3     C7      1.495   .     S
C4     C5      1.394   .     D
C4     H20     1.083   .     S
C5     C6      1.394   .     S
C5     H21     1.083   .     S
C6     N35     1.355   .     D
C7     C8      1.405   .     D
C7     C34     1.407   .     S
C8     H22     1.080   .     S
C8     C59     1.407   .     S
N9     C58     1.355   .     S
N9     C62     1.357   .     D
C10    N35     1.357   .     S
C10    C41     1.400   .     D
C10    C37     1.486   .     S
C11    C12     1.407   .     D
C11    C62     1.486   .     S
C11    C91     1.405   .     S
C12    C13     1.398   .     S
C12    H23     1.082   .     S
C13    H24     1.083   .     S
C13    C89     1.405   .     D
C14    C15     1.407   .     D
C14    C16     1.493   .     S
C14    C53     1.424   .     S
C15    H25     1.082   .     S
C15    C62     1.400   .     S
C16    O17     1.218   .     D
C16    O18     1.389   .     S
O18    H26     1.013   .     S
C27    C28     1.412   .     S
C27    C32     1.415   .     D
C27    C66     1.424   .     S
C28    C29     1.409   .     D
C28    H45     1.075   .     S
C29    C30     1.406   .     S
C29    C33     1.495   .     S
C30    C31     1.394   .     D
C30    H46     1.083   .     S
C31    C32     1.394   .     S
C31    H47     1.083   .     S
C32    N61     1.355   .     S
C33    C34     1.405   .     D
C33    C60     1.407   .     S
C34    H48     1.080   .     S
C36    N61     1.357   .     D
C36    C67     1.400   .     S
C36    C63     1.486   .     S
C37    C38     1.407   .     S
C37    C117    1.405   .     D
C38    H49     1.082   .     S
C38    C39     1.398   1_565 D
C39    H50     1.083   .     S
C39    C115    1.405   .     S
C39    C38     1.398   1_545 D
C40    C41     1.407   .     S
C40    C42     1.493   .     S
C41    H51     1.082   .     S
C42    O43     1.218   .     D
C42    O44     1.389   .     S
O44    H52     1.013   .     S
C53    C54     1.412   .     S
C53    C58     1.415   .     D
C54    C55     1.409   .     D
C54    H71     1.075   .     S
C55    C56     1.406   .     S
C55    C59     1.495   .     S
C56    C57     1.394   .     D
C56    H72     1.083   .     S
C57    C58     1.394   .     S
C57    H73     1.083   .     S
C59    C60     1.405   .     D
C60    H74     1.080   .     S
C63    C64     1.407   .     D
C63    C143    1.405   .     S
C64    H75     1.082   .     S
C64    C65     1.398   1_455 S
C65    H76     1.083   .     S
C65    C141    1.405   .     D
C65    C64     1.398   1_655 S
C66    C67     1.407   .     D
C66    C68     1.493   .     S
C67    H77     1.082   .     S
C68    O69     1.218   .     D
C68    O70     1.389   .     S
O70    H78     1.013   .     S
C79    C80     1.412   .     D
C79    C84     1.415   .     S
C79    C118    1.424   .     S
C80    C81     1.409   .     S
C80    H97     1.075   .     S
C81    C82     1.406   .     D
C81    C85     1.495   .     S
C82    C83     1.394   .     S
C82    H98     1.083   .     S
C83    C84     1.394   .     D
C83    H99     1.083   .     S
C84    N113    1.355   .     S
C85    C86     1.405   .     S
C85    C112    1.407   .     D
C86    H100    1.080   .     S
C86    C137    1.407   .     D
N87    C136    1.355   .     D
N87    C140    1.357   .     S
C88    N113    1.357   .     D
C88    C119    1.400   .     S
C88    C115    1.486   .     S
C89    C90     1.407   .     S
C89    C140    1.486   .     S
C90    C91     1.398   .     D
C90    H101    1.082   .     S
C91    H102    1.083   .     S
C92    C93     1.407   .     S
C92    C94     1.493   .     S
C92    C131    1.424   .     D
C93    H103    1.082   .     S
C93    C140    1.400   .     D
C94    O95     1.218   .     D
C94    O96     1.389   .     S
O96    H104    1.013   .     S
C105   C106    1.412   .     D
C105   C110    1.415   .     S
C105   C144    1.424   .     S
C106   C107    1.409   .     S
C106   H123    1.075   .     S
C107   C108    1.406   .     D
C107   C111    1.495   .     S
C108   C109    1.394   .     S
C108   H124    1.083   .     S
C109   C110    1.394   .     D
C109   H125    1.083   .     S
C110   N139    1.355   .     S
C111   C112    1.405   .     S
C111   C138    1.407   .     D
C112   H126    1.080   .     S
C114   N139    1.357   .     D
C114   C145    1.400   .     S
C114   C141    1.486   .     S
C115   C116    1.407   .     D
C116   H127    1.082   .     S
C116   C117    1.398   1_545 S
C117   H128    1.083   .     S
C117   C116    1.398   1_565 S
C118   C119    1.407   .     D
C118   C120    1.493   .     S
C119   H129    1.082   .     S
C120   O121    1.218   .     D
C120   O122    1.389   .     S
O122   H130    1.013   .     S
C131   C132    1.412   .     S
C131   C136    1.415   .     S
C132   C133    1.409   .     D
C132   H149    1.075   .     S
C133   C134    1.406   .     S
C133   C137    1.495   .     S
C134   C135    1.394   .     D
C134   H150    1.083   .     S
C135   C136    1.394   .     S
C135   H151    1.083   .     S
C137   C138    1.405   .     S
C138   H152    1.080   .     S
C141   C142    1.407   .     S
C142   H153    1.082   .     S
C142   C143    1.398   1_655 D
C143   H154    1.083   .     S
C143   C142    1.398   1_455 D
C144   C145    1.407   .     D
C144   C146    1.493   .     S
C145   H155    1.082   .     S
C146   O147    1.218   .     D
C146   O148    1.389   .     S
O148   H156    1.013   .     S
