data_1158
_audit_creation_date              2023-09-08
_audit_creation_method            'Materials Studio'
_symmetry_space_group_name_H-M    'P1'
_symmetry_Int_Tables_number       1
_symmetry_cell_setting            triclinic
loop_
_symmetry_equiv_pos_as_xyz
  x,y,z
_cell_length_a                    22.0100
_cell_length_b                    22.0100
_cell_length_c                    3.6800
_cell_angle_alpha                 90.0000
_cell_angle_beta                  90.0000
_cell_angle_gamma                 120.0000
loop_
_atom_site_label
_atom_site_type_symbol
_atom_site_fract_x
_atom_site_fract_y
_atom_site_fract_z
_atom_site_U_iso_or_equiv
_atom_site_adp_type
_atom_site_occupancy
C1     C     0.51887   0.22954   0.32187   0.00000  Uiso   1.00
N2     N     0.47564   0.25037   0.17872   0.00000  Uiso   1.00
C3     C     0.40608   0.20682   0.13407   0.00000  Uiso   1.00
C4     C     0.37476   0.13537   0.23576   0.00000  Uiso   1.00
C5     C     0.30148   0.09354   0.19585   0.00000  Uiso   1.00
C6     C     0.49061   0.15944   0.42900   0.00000  Uiso   1.00
C7     C     0.41867   0.11059   0.38171   0.00000  Uiso   1.00
C8     C     0.27734   0.29095  -0.32948   0.00000  Uiso   1.00
O9     O     0.33432   0.32377  -0.47712   0.00000  Uiso   1.00
O10    O     0.23481   0.32114  -0.30161   0.00000  Uiso   1.00
C11    C     0.59472   0.28214   0.35460   0.00000  Uiso   1.00
C12    C     0.61609   0.35389   0.35490   0.00000  Uiso   1.00
C13    C     0.02246   0.07157  -0.13956   0.00000  Uiso   1.00
C14    C     0.14872   0.10079  -0.11799   0.00000  Uiso   1.00
N15    N     0.19167   0.07879   0.01778   0.00000  Uiso   1.00
C16    C     0.26185   0.12114   0.04873   0.00000  Uiso   1.00
C17    C     0.29367   0.19205  -0.06021   0.00000  Uiso   1.00
C18    C     0.36633   0.23446  -0.00981   0.00000  Uiso   1.00
C19    C     0.17789   0.17064  -0.23245   0.00000  Uiso   1.00
C20    C     0.25043   0.21745  -0.20341   0.00000  Uiso   1.00
C21    C     0.39416   0.03606   0.48906   0.00000  Uiso   1.00
O22    O     0.33738   0.98787   0.39420   0.00000  Uiso   1.00
O23    O     0.43757   0.02078   0.70096   0.00000  Uiso   1.00
C24    C     0.07237   0.04969  -0.14030   0.00000  Uiso   1.00
H25    H     0.27282   0.03990   0.28539   0.00000  Uiso   1.00
H26    H     0.52424   0.14257   0.55229   0.00000  Uiso   1.00
H27    H     0.57666   0.36932   0.33965   0.00000  Uiso   1.00
H28    H     0.03939   0.12682  -0.12622   0.00000  Uiso   1.00
H29    H     0.39343   0.28973  -0.07233   0.00000  Uiso   1.00
H30    H     0.14513   0.18866  -0.35568   0.00000  Uiso   1.00
H31    H     0.41589   0.96889   0.75597   0.00000  Uiso   1.00
H32    H     0.25786   0.37046  -0.40434   0.00000  Uiso   1.00
C33    C     0.77046   0.28933   0.32187   0.00000  Uiso   1.00
N34    N     0.74963   0.22527   0.17872   0.00000  Uiso   1.00
C35    C     0.79318   0.19926   0.13407   0.00000  Uiso   1.00
C36    C     0.86463   0.23939   0.23576   0.00000  Uiso   1.00
C37    C     0.90646   0.20794   0.19585   0.00000  Uiso   1.00
C38    C     0.84056   0.33117   0.42900   0.00000  Uiso   1.00
C39    C     0.88941   0.30808   0.38171   0.00000  Uiso   1.00
C40    C     0.70905   0.98639  -0.32948   0.00000  Uiso   1.00
O41    O     0.67623   0.01055  -0.47712   0.00000  Uiso   1.00
O42    O     0.67886   0.91367  -0.30161   0.00000  Uiso   1.00
C43    C     0.71786   0.31258   0.35460   0.00000  Uiso   1.00
C44    C     0.64611   0.26220   0.35490   0.00000  Uiso   1.00
C45    C     0.92843   0.95089  -0.13956   0.00000  Uiso   1.00
C46    C     0.89921   0.04793  -0.11799   0.00000  Uiso   1.00
N47    N     0.92121   0.11288   0.01778   0.00000  Uiso   1.00
C48    C     0.87886   0.14071   0.04873   0.00000  Uiso   1.00
C49    C     0.80795   0.10162  -0.06021   0.00000  Uiso   1.00
C50    C     0.76554   0.13187  -0.00981   0.00000  Uiso   1.00
C51    C     0.82936   0.00725  -0.23245   0.00000  Uiso   1.00
C52    C     0.78255   0.03298  -0.20341   0.00000  Uiso   1.00
C53    C     0.96394   0.35810   0.48906   0.00000  Uiso   1.00
O54    O     0.01213   0.34951   0.39420   0.00000  Uiso   1.00
O55    O     0.97922   0.41679   0.70096   0.00000  Uiso   1.00
C56    C     0.95031   0.02268  -0.14030   0.00000  Uiso   1.00
H57    H     0.96010   0.23292   0.28539   0.00000  Uiso   1.00
H58    H     0.85743   0.38167   0.55229   0.00000  Uiso   1.00
H59    H     0.63068   0.20734   0.33965   0.00000  Uiso   1.00
H60    H     0.87318   0.91257  -0.12622   0.00000  Uiso   1.00
H61    H     0.71027   0.10370  -0.07233   0.00000  Uiso   1.00
H62    H     0.81134   0.95647  -0.35568   0.00000  Uiso   1.00
H63    H     0.03111   0.44700   0.75597   0.00000  Uiso   1.00
H64    H     0.62954   0.88740  -0.40434   0.00000  Uiso   1.00
C65    C     0.71067   0.48113   0.32187   0.00000  Uiso   1.00
N66    N     0.77473   0.52436   0.17872   0.00000  Uiso   1.00
C67    C     0.80074   0.59392   0.13407   0.00000  Uiso   1.00
C68    C     0.76061   0.62524   0.23576   0.00000  Uiso   1.00
C69    C     0.79206   0.69852   0.19585   0.00000  Uiso   1.00
C70    C     0.66883   0.50939   0.42900   0.00000  Uiso   1.00
C71    C     0.69192   0.58133   0.38171   0.00000  Uiso   1.00
C72    C     0.01361   0.72266  -0.32948   0.00000  Uiso   1.00
O73    O     0.98945   0.66568  -0.47712   0.00000  Uiso   1.00
O74    O     0.08633   0.76519  -0.30161   0.00000  Uiso   1.00
C75    C     0.68742   0.40528   0.35460   0.00000  Uiso   1.00
C76    C     0.73780   0.38391   0.35490   0.00000  Uiso   1.00
C77    C     0.04911   0.97754  -0.13956   0.00000  Uiso   1.00
C78    C     0.95207   0.85128  -0.11799   0.00000  Uiso   1.00
N79    N     0.88712   0.80833   0.01778   0.00000  Uiso   1.00
C80    C     0.85929   0.73815   0.04873   0.00000  Uiso   1.00
C81    C     0.89838   0.70633  -0.06021   0.00000  Uiso   1.00
C82    C     0.86813   0.63367  -0.00981   0.00000  Uiso   1.00
C83    C     0.99275   0.82211  -0.23245   0.00000  Uiso   1.00
C84    C     0.96702   0.74957  -0.20341   0.00000  Uiso   1.00
C85    C     0.64190   0.60584   0.48906   0.00000  Uiso   1.00
O86    O     0.65049   0.66262   0.39420   0.00000  Uiso   1.00
O87    O     0.58321   0.56243   0.70096   0.00000  Uiso   1.00
C88    C     0.97732   0.92763  -0.14030   0.00000  Uiso   1.00
H89    H     0.76708   0.72718   0.28539   0.00000  Uiso   1.00
H90    H     0.61833   0.47576   0.55229   0.00000  Uiso   1.00
H91    H     0.79266   0.42334   0.33965   0.00000  Uiso   1.00
H92    H     0.08743   0.96061  -0.12622   0.00000  Uiso   1.00
H93    H     0.89630   0.60657  -0.07233   0.00000  Uiso   1.00
H94    H     0.04353   0.85487  -0.35568   0.00000  Uiso   1.00
H95    H     0.55300   0.58411   0.75597   0.00000  Uiso   1.00
H96    H     0.11260   0.74214  -0.40434   0.00000  Uiso   1.00
loop_
_geom_bond_atom_site_label_1
_geom_bond_atom_site_label_2
_geom_bond_distance
_geom_bond_site_symmetry_2
_ccdc_geom_bond_type
C1     N2      1.353   .     S
C1     C6      1.401   .     D
C1     C11     1.486   .     S
N2     C3      1.350   .     D
C3     C4      1.416   .     S
C3     C18     1.396   .     S
C4     C5      1.409   .     S
C4     C7      1.431   .     D
C5     C16     1.397   .     D
C5     H25     1.075   .     S
C6     C7      1.411   .     S
C6     H26     1.080   .     S
C7     C21     1.501   .     S
C8     O9      1.218   .     D
C8     O10     1.397   .     S
C8     C20     1.492   .     S
O10    H32     1.014   .     S
C11    C12     1.404   .     D
C11    C44     1.403   .     S
C12    H27     1.080   .     S
C12    C75     1.403   .     S
C13    C24     1.403   .     D
C13    H28     1.080   .     S
C13    C56     1.404   1_455 S
C14    N15     1.355   .     D
C14    C19     1.402   .     S
C14    C24     1.485   .     S
N15    C16     1.352   .     S
C16    C17     1.412   .     S
C17    C18     1.404   .     D
C17    C20     1.424   .     S
C18    H29     1.078   .     S
C19    C20     1.406   .     D
C19    H30     1.081   .     S
C21    O23     1.398   .     S
C21    O22     1.218   1_545 D
O22    C21     1.218   1_565 D
O23    H31     1.014   1_545 S
C24    C77     1.404   1_545 S
H31    O23     1.014   1_565 S
C33    N34     1.353   .     D
C33    C38     1.401   .     S
C33    C43     1.486   .     S
N34    C35     1.350   .     S
C35    C36     1.416   .     S
C35    C50     1.396   .     D
C36    C37     1.409   .     D
C36    C39     1.431   .     S
C37    C48     1.397   .     S
C37    H57     1.075   .     S
C38    C39     1.411   .     D
C38    H58     1.080   .     S
C39    C53     1.501   .     S
C40    O42     1.397   .     S
C40    O41     1.218   1_565 D
C40    C52     1.492   1_565 S
O41    C40     1.218   1_545 D
O42    H64     1.014   .     S
C43    C44     1.404   .     D
C43    C76     1.403   .     S
C44    H59     1.080   .     S
C45    H60     1.080   .     S
C45    C88     1.404   .     S
C45    C56     1.403   1_565 D
C46    N47     1.355   .     S
C46    C51     1.402   .     D
C46    C56     1.485   .     S
N47    C48     1.352   .     D
C48    C49     1.412   .     S
C49    C50     1.404   .     S
C49    C52     1.424   .     D
C50    H61     1.078   .     S
C51    C52     1.406   .     S
C51    H62     1.081   1_545 S
C52    C40     1.492   1_545 S
C53    O55     1.398   .     S
C53    O54     1.218   1_655 D
O54    C53     1.218   1_455 D
O55    H63     1.014   1_655 S
C56    C13     1.404   1_655 S
C56    C45     1.403   1_545 D
H62    C51     1.081   1_565 S
H63    O55     1.014   1_455 S
C65    N66     1.353   .     S
C65    C70     1.401   .     D
C65    C75     1.486   .     S
N66    C67     1.350   .     D
C67    C68     1.416   .     S
C67    C82     1.396   .     S
C68    C69     1.409   .     S
C68    C71     1.431   .     D
C69    C80     1.397   .     D
C69    H89     1.075   .     S
C70    C71     1.411   .     S
C70    H90     1.080   .     S
C71    C85     1.501   .     S
C72    O74     1.397   .     S
C72    O73     1.218   1_455 D
C72    C84     1.492   1_455 S
O73    C72     1.218   1_655 D
O74    H96     1.014   .     S
C75    C76     1.404   .     D
C76    H91     1.080   .     S
C77    H92     1.080   .     S
C77    C24     1.404   1_565 S
C77    C88     1.403   1_455 D
C78    N79     1.355   .     D
C78    C83     1.402   .     S
C78    C88     1.485   .     S
N79    C80     1.352   .     S
C80    C81     1.412   .     S
C81    C82     1.404   .     D
C81    C84     1.424   .     S
C82    H93     1.078   .     S
C83    C84     1.406   .     D
C83    H94     1.081   1_655 S
C84    C72     1.492   1_655 S
C85    O86     1.218   .     D
C85    O87     1.398   .     S
O87    H95     1.014   .     S
C88    C77     1.403   1_655 D
H94    C83     1.081   1_455 S
