data_1159
_audit_creation_date              2023-09-08
_audit_creation_method            'Materials Studio'
_symmetry_space_group_name_H-M    'P1'
_symmetry_Int_Tables_number       1
_symmetry_cell_setting            triclinic
loop_
_symmetry_equiv_pos_as_xyz
  x,y,z
_cell_length_a                    38.3586
_cell_length_b                    38.3586
_cell_length_c                    4.5707
_cell_angle_alpha                 90.0000
_cell_angle_beta                  90.0000
_cell_angle_gamma                 120.0000
loop_
_atom_site_label
_atom_site_type_symbol
_atom_site_fract_x
_atom_site_fract_y
_atom_site_fract_z
_atom_site_U_iso_or_equiv
_atom_site_adp_type
_atom_site_occupancy
C1     C     0.77041   0.20289   0.42845   0.00000  Uiso   1.00
C2     C     0.80332   0.24151   0.43559   0.00000  Uiso   1.00
C3     C     0.79847   0.27526   0.47059   0.00000  Uiso   1.00
C4     C     0.75914   0.26836   0.50163   0.00000  Uiso   1.00
C5     C     0.72649   0.22966   0.51245   0.00000  Uiso   1.00
C6     C     0.00124   0.48256   0.40010   0.00000  Uiso   1.00
C7     C     0.96482   0.44007   0.40862   0.00000  Uiso   1.00
C8     C     0.92716   0.42967   0.28610   0.00000  Uiso   1.00
C9     C     0.89429   0.39149   0.32182   0.00000  Uiso   1.00
C10    C     0.89766   0.36094   0.46486   0.00000  Uiso   1.00
C11    C     0.93572   0.37051   0.56993   0.00000  Uiso   1.00
C12    C     0.96818   0.40917   0.54977   0.00000  Uiso   1.00
N13    N     0.86526   0.32128   0.51893   0.00000  Uiso   1.00
N14    N     0.83034   0.31596   0.48404   0.00000  Uiso   1.00
C15    C     0.55725   0.04101   0.42965   0.00000  Uiso   1.00
C16    C     0.59162   0.04921   0.26617   0.00000  Uiso   1.00
C17    C     0.62775   0.08441   0.31329   0.00000  Uiso   1.00
C18    C     0.63072   0.11343   0.51520   0.00000  Uiso   1.00
C19    C     0.59607   0.10534   0.67197   0.00000  Uiso   1.00
C20    C     0.56051   0.06933   0.63780   0.00000  Uiso   1.00
N21    N     0.66601   0.15048   0.58249   0.00000  Uiso   1.00
N22    N     0.69887   0.15531   0.48506   0.00000  Uiso   1.00
C23    C     0.73125   0.19589   0.47448   0.00000  Uiso   1.00
H24    H     0.77521   0.17718   0.39873   0.00000  Uiso   1.00
H25    H     0.83373   0.24594   0.40929   0.00000  Uiso   1.00
H26    H     0.75433   0.29406   0.53142   0.00000  Uiso   1.00
H27    H     0.69624   0.22528   0.54782   0.00000  Uiso   1.00
H28    H     0.92163   0.45146   0.17170   0.00000  Uiso   1.00
H29    H     0.86493   0.38479   0.23386   0.00000  Uiso   1.00
H30    H     0.93930   0.34738   0.68527   0.00000  Uiso   1.00
H31    H     0.99632   0.41470   0.65362   0.00000  Uiso   1.00
H32    H     0.59076   0.02763   0.10429   0.00000  Uiso   1.00
H33    H     0.65449   0.09019   0.18685   0.00000  Uiso   1.00
H34    H     0.59766   0.12725   0.83387   0.00000  Uiso   1.00
H35    H     0.53452   0.06327   0.77276   0.00000  Uiso   1.00
C36    C     0.79711   0.56752   0.42845   0.00000  Uiso   1.00
C37    C     0.75849   0.56181   0.43559   0.00000  Uiso   1.00
C38    C     0.72474   0.52321   0.47059   0.00000  Uiso   1.00
C39    C     0.73164   0.49078   0.50163   0.00000  Uiso   1.00
C40    C     0.77034   0.49683   0.51245   0.00000  Uiso   1.00
C41    C     0.51744   0.51868   0.40010   0.00000  Uiso   1.00
C42    C     0.55993   0.52475   0.40862   0.00000  Uiso   1.00
C43    C     0.57033   0.49749   0.28610   0.00000  Uiso   1.00
C44    C     0.60851   0.50280   0.32182   0.00000  Uiso   1.00
C45    C     0.63906   0.53672   0.46486   0.00000  Uiso   1.00
C46    C     0.62949   0.56521   0.56993   0.00000  Uiso   1.00
C47    C     0.59083   0.55901   0.54977   0.00000  Uiso   1.00
N48    N     0.67872   0.54398   0.51893   0.00000  Uiso   1.00
N49    N     0.68404   0.51438   0.48404   0.00000  Uiso   1.00
C50    C     0.95899   0.51624   0.42965   0.00000  Uiso   1.00
C51    C     0.95079   0.54241   0.26617   0.00000  Uiso   1.00
C52    C     0.91559   0.54334   0.31329   0.00000  Uiso   1.00
C53    C     0.88657   0.51729   0.51520   0.00000  Uiso   1.00
C54    C     0.89466   0.49073   0.67197   0.00000  Uiso   1.00
C55    C     0.93067   0.49118   0.63780   0.00000  Uiso   1.00
N56    N     0.84952   0.51553   0.58249   0.00000  Uiso   1.00
N57    N     0.84469   0.54356   0.48506   0.00000  Uiso   1.00
C58    C     0.80411   0.53536   0.47448   0.00000  Uiso   1.00
H59    H     0.82282   0.59803   0.39873   0.00000  Uiso   1.00
H60    H     0.75406   0.58779   0.40929   0.00000  Uiso   1.00
H61    H     0.70594   0.46027   0.53142   0.00000  Uiso   1.00
H62    H     0.77472   0.47096   0.54782   0.00000  Uiso   1.00
H63    H     0.54854   0.47017   0.17170   0.00000  Uiso   1.00
H64    H     0.61521   0.48014   0.23386   0.00000  Uiso   1.00
H65    H     0.65262   0.59192   0.68527   0.00000  Uiso   1.00
H66    H     0.58530   0.58162   0.65362   0.00000  Uiso   1.00
H67    H     0.97237   0.56313   0.10429   0.00000  Uiso   1.00
H68    H     0.90981   0.56430   0.18685   0.00000  Uiso   1.00
H69    H     0.87275   0.47041   0.83387   0.00000  Uiso   1.00
H70    H     0.93673   0.47125   0.77276   0.00000  Uiso   1.00
C71    C     0.43248   0.22959   0.42845   0.00000  Uiso   1.00
C72    C     0.43819   0.19668   0.43559   0.00000  Uiso   1.00
C73    C     0.47679   0.20153   0.47059   0.00000  Uiso   1.00
C74    C     0.50922   0.24086   0.50163   0.00000  Uiso   1.00
C75    C     0.50317   0.27351   0.51245   0.00000  Uiso   1.00
C76    C     0.48132   0.99876   0.40010   0.00000  Uiso   1.00
C77    C     0.47525   0.03518   0.40862   0.00000  Uiso   1.00
C78    C     0.50251   0.07284   0.28610   0.00000  Uiso   1.00
C79    C     0.49720   0.10571   0.32182   0.00000  Uiso   1.00
C80    C     0.46328   0.10234   0.46486   0.00000  Uiso   1.00
C81    C     0.43479   0.06428   0.56993   0.00000  Uiso   1.00
C82    C     0.44099   0.03182   0.54977   0.00000  Uiso   1.00
N83    N     0.45602   0.13474   0.51893   0.00000  Uiso   1.00
N84    N     0.48562   0.16966   0.48404   0.00000  Uiso   1.00
C85    C     0.48376   0.44275   0.42965   0.00000  Uiso   1.00
C86    C     0.45759   0.40838   0.26617   0.00000  Uiso   1.00
C87    C     0.45666   0.37225   0.31329   0.00000  Uiso   1.00
C88    C     0.48271   0.36928   0.51520   0.00000  Uiso   1.00
C89    C     0.50927   0.40393   0.67197   0.00000  Uiso   1.00
C90    C     0.50882   0.43949   0.63780   0.00000  Uiso   1.00
N91    N     0.48447   0.33399   0.58249   0.00000  Uiso   1.00
N92    N     0.45644   0.30113   0.48506   0.00000  Uiso   1.00
C93    C     0.46464   0.26875   0.47448   0.00000  Uiso   1.00
H94    H     0.40197   0.22479   0.39873   0.00000  Uiso   1.00
H95    H     0.41221   0.16627   0.40929   0.00000  Uiso   1.00
H96    H     0.53973   0.24567   0.53142   0.00000  Uiso   1.00
H97    H     0.52904   0.30376   0.54782   0.00000  Uiso   1.00
H98    H     0.52983   0.07837   0.17170   0.00000  Uiso   1.00
H99    H     0.51986   0.13507   0.23386   0.00000  Uiso   1.00
H100   H     0.40808   0.06070   0.68527   0.00000  Uiso   1.00
H101   H     0.41838   0.00368   0.65362   0.00000  Uiso   1.00
H102   H     0.43687   0.40924   0.10429   0.00000  Uiso   1.00
H103   H     0.43570   0.34551   0.18685   0.00000  Uiso   1.00
H104   H     0.52959   0.40234   0.83387   0.00000  Uiso   1.00
H105   H     0.52875   0.46548   0.77276   0.00000  Uiso   1.00
C106   C     0.22959   0.79711   0.42845   0.00000  Uiso   1.00
C107   C     0.19668   0.75849   0.43559   0.00000  Uiso   1.00
C108   C     0.20153   0.72474   0.47059   0.00000  Uiso   1.00
C109   C     0.24086   0.73164   0.50163   0.00000  Uiso   1.00
C110   C     0.27351   0.77034   0.51245   0.00000  Uiso   1.00
C111   C     0.99876   0.51744   0.40010   0.00000  Uiso   1.00
C112   C     0.03518   0.55993   0.40862   0.00000  Uiso   1.00
C113   C     0.07284   0.57033   0.28610   0.00000  Uiso   1.00
C114   C     0.10571   0.60851   0.32182   0.00000  Uiso   1.00
C115   C     0.10234   0.63906   0.46486   0.00000  Uiso   1.00
C116   C     0.06428   0.62949   0.56993   0.00000  Uiso   1.00
C117   C     0.03182   0.59083   0.54977   0.00000  Uiso   1.00
N118   N     0.13474   0.67872   0.51893   0.00000  Uiso   1.00
N119   N     0.16966   0.68404   0.48404   0.00000  Uiso   1.00
C120   C     0.44275   0.95899   0.42965   0.00000  Uiso   1.00
C121   C     0.40838   0.95079   0.26617   0.00000  Uiso   1.00
C122   C     0.37225   0.91559   0.31329   0.00000  Uiso   1.00
C123   C     0.36928   0.88657   0.51520   0.00000  Uiso   1.00
C124   C     0.40393   0.89466   0.67197   0.00000  Uiso   1.00
C125   C     0.43949   0.93067   0.63780   0.00000  Uiso   1.00
N126   N     0.33399   0.84952   0.58249   0.00000  Uiso   1.00
N127   N     0.30113   0.84469   0.48506   0.00000  Uiso   1.00
C128   C     0.26875   0.80411   0.47448   0.00000  Uiso   1.00
H129   H     0.22479   0.82282   0.39873   0.00000  Uiso   1.00
H130   H     0.16627   0.75406   0.40929   0.00000  Uiso   1.00
H131   H     0.24567   0.70594   0.53142   0.00000  Uiso   1.00
H132   H     0.30376   0.77472   0.54782   0.00000  Uiso   1.00
H133   H     0.07837   0.54854   0.17170   0.00000  Uiso   1.00
H134   H     0.13507   0.61521   0.23386   0.00000  Uiso   1.00
H135   H     0.06070   0.65262   0.68527   0.00000  Uiso   1.00
H136   H     0.00368   0.58530   0.65362   0.00000  Uiso   1.00
H137   H     0.40924   0.97237   0.10429   0.00000  Uiso   1.00
H138   H     0.34551   0.90981   0.18685   0.00000  Uiso   1.00
H139   H     0.40234   0.87275   0.83387   0.00000  Uiso   1.00
H140   H     0.46548   0.93673   0.77276   0.00000  Uiso   1.00
C141   C     0.20289   0.43248   0.42845   0.00000  Uiso   1.00
C142   C     0.24151   0.43819   0.43559   0.00000  Uiso   1.00
C143   C     0.27526   0.47679   0.47059   0.00000  Uiso   1.00
C144   C     0.26836   0.50922   0.50163   0.00000  Uiso   1.00
C145   C     0.22966   0.50317   0.51245   0.00000  Uiso   1.00
C146   C     0.48256   0.48132   0.40010   0.00000  Uiso   1.00
C147   C     0.44007   0.47525   0.40862   0.00000  Uiso   1.00
C148   C     0.42967   0.50251   0.28610   0.00000  Uiso   1.00
C149   C     0.39149   0.49720   0.32182   0.00000  Uiso   1.00
C150   C     0.36094   0.46328   0.46486   0.00000  Uiso   1.00
C151   C     0.37051   0.43479   0.56993   0.00000  Uiso   1.00
C152   C     0.40917   0.44099   0.54977   0.00000  Uiso   1.00
N153   N     0.32128   0.45602   0.51893   0.00000  Uiso   1.00
N154   N     0.31596   0.48562   0.48404   0.00000  Uiso   1.00
C155   C     0.04101   0.48376   0.42965   0.00000  Uiso   1.00
C156   C     0.04921   0.45759   0.26617   0.00000  Uiso   1.00
C157   C     0.08441   0.45666   0.31329   0.00000  Uiso   1.00
C158   C     0.11343   0.48271   0.51520   0.00000  Uiso   1.00
C159   C     0.10534   0.50927   0.67197   0.00000  Uiso   1.00
C160   C     0.06933   0.50882   0.63780   0.00000  Uiso   1.00
N161   N     0.15048   0.48447   0.58249   0.00000  Uiso   1.00
N162   N     0.15531   0.45644   0.48506   0.00000  Uiso   1.00
C163   C     0.19589   0.46464   0.47448   0.00000  Uiso   1.00
H164   H     0.17718   0.40197   0.39873   0.00000  Uiso   1.00
H165   H     0.24594   0.41221   0.40929   0.00000  Uiso   1.00
H166   H     0.29406   0.53973   0.53142   0.00000  Uiso   1.00
H167   H     0.22528   0.52904   0.54782   0.00000  Uiso   1.00
H168   H     0.45146   0.52983   0.17170   0.00000  Uiso   1.00
H169   H     0.38479   0.51986   0.23386   0.00000  Uiso   1.00
H170   H     0.34738   0.40808   0.68527   0.00000  Uiso   1.00
H171   H     0.41470   0.41838   0.65362   0.00000  Uiso   1.00
H172   H     0.02763   0.43687   0.10429   0.00000  Uiso   1.00
H173   H     0.09019   0.43570   0.18685   0.00000  Uiso   1.00
H174   H     0.12725   0.52959   0.83387   0.00000  Uiso   1.00
H175   H     0.06327   0.52875   0.77276   0.00000  Uiso   1.00
C176   C     0.56752   0.77041   0.42845   0.00000  Uiso   1.00
C177   C     0.56181   0.80332   0.43559   0.00000  Uiso   1.00
C178   C     0.52321   0.79847   0.47059   0.00000  Uiso   1.00
C179   C     0.49078   0.75914   0.50163   0.00000  Uiso   1.00
C180   C     0.49683   0.72649   0.51245   0.00000  Uiso   1.00
C181   C     0.51868   0.00124   0.40010   0.00000  Uiso   1.00
C182   C     0.52475   0.96482   0.40862   0.00000  Uiso   1.00
C183   C     0.49749   0.92716   0.28610   0.00000  Uiso   1.00
C184   C     0.50280   0.89429   0.32182   0.00000  Uiso   1.00
C185   C     0.53672   0.89766   0.46486   0.00000  Uiso   1.00
C186   C     0.56521   0.93572   0.56993   0.00000  Uiso   1.00
C187   C     0.55901   0.96818   0.54977   0.00000  Uiso   1.00
N188   N     0.54398   0.86526   0.51893   0.00000  Uiso   1.00
N189   N     0.51438   0.83034   0.48404   0.00000  Uiso   1.00
C190   C     0.51624   0.55725   0.42965   0.00000  Uiso   1.00
C191   C     0.54241   0.59162   0.26617   0.00000  Uiso   1.00
C192   C     0.54334   0.62775   0.31329   0.00000  Uiso   1.00
C193   C     0.51729   0.63072   0.51520   0.00000  Uiso   1.00
C194   C     0.49073   0.59607   0.67197   0.00000  Uiso   1.00
C195   C     0.49118   0.56051   0.63780   0.00000  Uiso   1.00
N196   N     0.51553   0.66601   0.58249   0.00000  Uiso   1.00
N197   N     0.54356   0.69887   0.48506   0.00000  Uiso   1.00
C198   C     0.53536   0.73125   0.47448   0.00000  Uiso   1.00
H199   H     0.59803   0.77521   0.39873   0.00000  Uiso   1.00
H200   H     0.58779   0.83373   0.40929   0.00000  Uiso   1.00
H201   H     0.46027   0.75433   0.53142   0.00000  Uiso   1.00
H202   H     0.47096   0.69624   0.54782   0.00000  Uiso   1.00
H203   H     0.47017   0.92163   0.17170   0.00000  Uiso   1.00
H204   H     0.48014   0.86493   0.23386   0.00000  Uiso   1.00
H205   H     0.59192   0.93930   0.68527   0.00000  Uiso   1.00
H206   H     0.58162   0.99632   0.65362   0.00000  Uiso   1.00
H207   H     0.56313   0.59076   0.10429   0.00000  Uiso   1.00
H208   H     0.56430   0.65449   0.18685   0.00000  Uiso   1.00
H209   H     0.47041   0.59766   0.83387   0.00000  Uiso   1.00
H210   H     0.47125   0.53452   0.77276   0.00000  Uiso   1.00
loop_
_geom_bond_atom_site_label_1
_geom_bond_atom_site_label_2
_geom_bond_distance
_geom_bond_site_symmetry_2
_ccdc_geom_bond_type
C1     C2      1.385   .     D
C1     C23     1.403   .     S
C1     H24     1.098   .     S
C2     C3      1.406   .     S
C2     H25     1.098   .     S
C3     C4      1.402   .     D
C3     N14     1.424   .     S
C4     C5      1.384   .     S
C4     H26     1.098   .     S
C5     C23     1.406   .     D
C5     H27     1.098   .     S
C6     C155    1.509   .     D
C6     C7      1.527   1_455 S
C6     C111    1.388   1_455 S
C7     C8      1.408   .     S
C7     C12     1.411   .     D
C7     C6      1.527   1_655 S
C8     C9      1.384   .     D
C8     H28     1.093   .     S
C9     C10     1.403   .     S
C9     H29     1.098   .     S
C10    C11     1.400   .     D
C10    N13     1.425   .     S
C11    C12     1.383   .     S
C11    H30     1.098   .     S
C12    H31     1.098   .     S
N13    N14     1.260   .     D
C15    C16     1.407   .     S
C15    C20     1.402   .     D
C15    C181    1.509   .     S
C16    C17     1.385   .     D
C16    H32     1.098   .     S
C17    C18     1.406   .     S
C17    H33     1.099   .     S
C18    C19     1.401   .     D
C18    N21     1.422   .     S
C19    C20     1.382   .     S
C19    H34     1.098   .     S
C20    H35     1.094   .     S
N21    N22     1.260   .     D
N22    C23     1.426   .     S
C36    C37     1.385   .     D
C36    C58     1.403   .     S
C36    H59     1.098   .     S
C37    C38     1.406   .     S
C37    H60     1.098   .     S
C38    C39     1.402   .     D
C38    N49     1.424   .     S
C39    C40     1.384   .     S
C39    H61     1.098   .     S
C40    C58     1.406   .     D
C40    H62     1.098   .     S
C41    C42     1.527   .     S
C41    C190    1.509   .     D
C41    C146    1.388   .     S
C42    C43     1.408   .     S
C42    C47     1.411   .     D
C43    C44     1.384   .     D
C43    H63     1.093   .     S
C44    C45     1.403   .     S
C44    H64     1.098   .     S
C45    C46     1.400   .     D
C45    N48     1.425   .     S
C46    C47     1.383   .     S
C46    H65     1.098   .     S
C47    H66     1.098   .     S
N48    N49     1.260   .     D
C50    C51     1.407   .     S
C50    C55     1.402   .     D
C50    C111    1.509   .     S
C51    C52     1.385   .     D
C51    H67     1.098   .     S
C52    C53     1.406   .     S
C52    H68     1.099   .     S
C53    C54     1.401   .     D
C53    N56     1.422   .     S
C54    C55     1.382   .     S
C54    H69     1.098   .     S
C55    H70     1.094   .     S
N56    N57     1.260   .     D
N57    C58     1.426   .     S
C71    C72     1.385   .     D
C71    C93     1.403   .     S
C71    H94     1.098   .     S
C72    C73     1.406   .     S
C72    H95     1.098   .     S
C73    C74     1.402   .     D
C73    N84     1.424   .     S
C74    C75     1.384   .     S
C74    H96     1.098   .     S
C75    C93     1.406   .     D
C75    H97     1.098   .     S
C76    C120    1.509   .     D
C76    C77     1.527   1_565 S
C76    C181    1.388   1_565 S
C77    C78     1.408   .     D
C77    C82     1.411   .     S
C77    C76     1.527   1_545 S
C78    C79     1.384   .     S
C78    H98     1.093   .     S
C79    C80     1.403   .     D
C79    H99     1.098   .     S
C80    C81     1.400   .     S
C80    N83     1.425   .     S
C81    C82     1.383   .     D
C81    H100    1.098   .     S
C82    H101    1.098   .     S
N83    N84     1.260   .     D
C85    C86     1.407   .     S
C85    C90     1.402   .     D
C85    C146    1.509   .     S
C86    C87     1.385   .     D
C86    H102    1.098   .     S
C87    C88     1.406   .     S
C87    H103    1.099   .     S
C88    C89     1.401   .     D
C88    N91     1.422   .     S
C89    C90     1.382   .     S
C89    H104    1.098   .     S
C90    H105    1.094   .     S
N91    N92     1.260   .     D
N92    C93     1.426   .     S
C106   C107    1.385   .     D
C106   C128    1.403   .     S
C106   H129    1.098   .     S
C107   C108    1.406   .     S
C107   H130    1.098   .     S
C108   C109    1.402   .     S
C108   N119    1.424   .     D
C109   C110    1.384   .     D
C109   H131    1.098   .     S
C110   C128    1.406   .     S
C110   H132    1.098   .     S
C111   C6      1.388   1_655 S
C111   C112    1.527   1_655 D
C112   C113    1.408   .     S
C112   C117    1.411   .     S
C112   C111    1.527   1_455 D
C113   C114    1.384   .     D
C113   H133    1.093   .     S
C114   C115    1.403   .     S
C114   H134    1.098   .     S
C115   C116    1.400   .     S
C115   N118    1.425   .     D
C116   C117    1.383   .     D
C116   H135    1.098   .     S
C117   H136    1.098   .     S
N118   N119    1.260   .     S
C120   C121    1.407   .     S
C120   C125    1.402   .     S
C121   C122    1.385   .     D
C121   H137    1.098   .     S
C122   C123    1.406   .     S
C122   H138    1.099   .     S
C123   C124    1.401   .     S
C123   N126    1.422   .     D
C124   C125    1.382   .     D
C124   H139    1.098   .     S
C125   H140    1.094   .     S
N126   N127    1.260   .     S
N127   C128    1.426   .     D
C141   C142    1.385   .     D
C141   C163    1.403   .     S
C141   H164    1.098   .     S
C142   C143    1.406   .     S
C142   H165    1.098   .     S
C143   C144    1.402   .     S
C143   N154    1.424   .     D
C144   C145    1.384   .     D
C144   H166    1.098   .     S
C145   C163    1.406   .     S
C145   H167    1.098   .     S
C146   C147    1.527   .     D
C147   C148    1.408   .     S
C147   C152    1.411   .     S
C148   C149    1.384   .     D
C148   H168    1.093   .     S
C149   C150    1.403   .     S
C149   H169    1.098   .     S
C150   C151    1.400   .     S
C150   N153    1.425   .     D
C151   C152    1.383   .     D
C151   H170    1.098   .     S
C152   H171    1.098   .     S
N153   N154    1.260   .     S
C155   C156    1.407   .     S
C155   C160    1.402   .     S
C156   C157    1.385   .     D
C156   H172    1.098   .     S
C157   C158    1.406   .     S
C157   H173    1.099   .     S
C158   C159    1.401   .     S
C158   N161    1.422   .     D
C159   C160    1.382   .     D
C159   H174    1.098   .     S
C160   H175    1.094   .     S
N161   N162    1.260   .     S
N162   C163    1.426   .     D
C176   C177    1.385   .     D
C176   C198    1.403   .     S
C176   H199    1.098   .     S
C177   C178    1.406   .     S
C177   H200    1.098   .     S
C178   C179    1.402   .     S
C178   N189    1.424   .     D
C179   C180    1.384   .     D
C179   H201    1.098   .     S
C180   C198    1.406   .     S
C180   H202    1.098   .     S
C181   C76     1.388   1_545 S
C181   C182    1.527   1_545 D
C182   C183    1.408   .     S
C182   C187    1.411   .     S
C182   C181    1.527   1_565 D
C183   C184    1.384   .     D
C183   H203    1.093   .     S
C184   C185    1.403   .     S
C184   H204    1.098   .     S
C185   C186    1.400   .     S
C185   N188    1.425   .     D
C186   C187    1.383   .     D
C186   H205    1.098   .     S
C187   H206    1.098   .     S
N188   N189    1.260   .     S
C190   C191    1.407   .     S
C190   C195    1.402   .     S
C191   C192    1.385   .     D
C191   H207    1.098   .     S
C192   C193    1.406   .     S
C192   H208    1.099   .     S
C193   C194    1.401   .     S
C193   N196    1.422   .     D
C194   C195    1.382   .     D
C194   H209    1.098   .     S
C195   H210    1.094   .     S
N196   N197    1.260   .     S
N197   C198    1.426   .     D
