data_116
_audit_creation_date              2023-09-08
_audit_creation_method            'Materials Studio'
_symmetry_space_group_name_H-M    'P1'
_symmetry_Int_Tables_number       1
_symmetry_cell_setting            triclinic
loop_
_symmetry_equiv_pos_as_xyz
  x,y,z
_cell_length_a                    44.7537
_cell_length_b                    30.2937
_cell_length_c                    4.6757
_cell_angle_alpha                 90.0000
_cell_angle_beta                  90.0000
_cell_angle_gamma                 90.0000
loop_
_atom_site_label
_atom_site_type_symbol
_atom_site_fract_x
_atom_site_fract_y
_atom_site_fract_z
_atom_site_U_iso_or_equiv
_atom_site_adp_type
_atom_site_occupancy
C1     C     0.47489   0.40548   0.49382   0.00000  Uiso   1.00
C2     C     0.44326   0.41751   0.47729   0.00000  Uiso   1.00
C3     C     0.43626   0.46375   0.49080   0.00000  Uiso   1.00
C4     C     0.48458   0.36207   0.49419   0.00000  Uiso   1.00
C5     C     0.40692   0.47793   0.50564   0.00000  Uiso   1.00
H6     H     0.47075   0.33283   0.48638   0.00000  Uiso   1.00
H7     H     0.38661   0.45904   0.52686   0.00000  Uiso   1.00
C8     C     0.36563   0.37042   0.23423   0.00000  Uiso   1.00
C9     C     0.39404   0.39275   0.23639   0.00000  Uiso   1.00
C10    C     0.41721   0.38517   0.44259   0.00000  Uiso   1.00
C11    C     0.35766   0.33632   0.42814   0.00000  Uiso   1.00
C12    C     0.61860   0.67487   0.62202   0.00000  Uiso   1.00
C13    C     0.58990   0.65134   0.62820   0.00000  Uiso   1.00
H14    H     0.34938   0.38047   0.07526   0.00000  Uiso   1.00
H15    H     0.39738   0.41832   0.07744   0.00000  Uiso   1.00
H16    H     0.62228   0.70087   0.77682   0.00000  Uiso   1.00
H17    H     0.57405   0.66022   0.79346   0.00000  Uiso   1.00
N18    N     0.32833   0.31732   0.41493   0.00000  Uiso   1.00
C19    C     0.31346   0.28347   0.56625   0.00000  Uiso   1.00
C20    C     0.28176   0.26720   0.52899   0.00000  Uiso   1.00
C21    C     0.26052   0.28552   0.33645   0.00000  Uiso   1.00
C22    C     0.27030   0.23047   0.69303   0.00000  Uiso   1.00
H23    H     0.32658   0.26693   0.72840   0.00000  Uiso   1.00
O24    O     0.29059   0.21051   0.88538   0.00000  Uiso   1.00
C25    C     0.21734   0.66960   1.01643   0.00000  Uiso   1.00
H26    H     0.26825   0.31288   0.20823   0.00000  Uiso   1.00
H27    H     0.23675   0.67388   1.16143   0.00000  Uiso   1.00
H28    H     0.22210   0.64421   0.85086   0.00000  Uiso   1.00
H29    H     0.19824   0.65802   1.14784   0.00000  Uiso   1.00
C30    C     0.52511   0.59452   0.49382   0.00000  Uiso   1.00
C31    C     0.55674   0.58249   0.47729   0.00000  Uiso   1.00
C32    C     0.56374   0.53625   0.49080   0.00000  Uiso   1.00
C33    C     0.51542   0.63793   0.49419   0.00000  Uiso   1.00
C34    C     0.59308   0.52207   0.50564   0.00000  Uiso   1.00
H35    H     0.52925   0.66717   0.48638   0.00000  Uiso   1.00
H36    H     0.61339   0.54096   0.52686   0.00000  Uiso   1.00
C37    C     0.63437   0.62958   0.23423   0.00000  Uiso   1.00
C38    C     0.60596   0.60725   0.23639   0.00000  Uiso   1.00
C39    C     0.58279   0.61483   0.44259   0.00000  Uiso   1.00
C40    C     0.64234   0.66368   0.42814   0.00000  Uiso   1.00
C41    C     0.38140   0.32513   0.62202   0.00000  Uiso   1.00
C42    C     0.41010   0.34866   0.62820   0.00000  Uiso   1.00
H43    H     0.65062   0.61953   0.07526   0.00000  Uiso   1.00
H44    H     0.60262   0.58168   0.07744   0.00000  Uiso   1.00
H45    H     0.37772   0.29913   0.77682   0.00000  Uiso   1.00
H46    H     0.42595   0.33978   0.79346   0.00000  Uiso   1.00
N47    N     0.67167   0.68268   0.41493   0.00000  Uiso   1.00
C48    C     0.68654   0.71653   0.56625   0.00000  Uiso   1.00
C49    C     0.71824   0.73280   0.52899   0.00000  Uiso   1.00
C50    C     0.73948   0.71448   0.33645   0.00000  Uiso   1.00
C51    C     0.72970   0.76953   0.69303   0.00000  Uiso   1.00
H52    H     0.67342   0.73307   0.72840   0.00000  Uiso   1.00
O53    O     0.70941   0.78949   0.88538   0.00000  Uiso   1.00
C54    C     0.78266   0.33040   1.01643   0.00000  Uiso   1.00
H55    H     0.73175   0.68712   0.20823   0.00000  Uiso   1.00
H56    H     0.76325   0.32612   1.16143   0.00000  Uiso   1.00
H57    H     0.77790   0.35579   0.85086   0.00000  Uiso   1.00
H58    H     0.80176   0.34198   1.14784   0.00000  Uiso   1.00
C59    C     0.52511   0.40548   0.50618   0.00000  Uiso   1.00
C60    C     0.55674   0.41751   0.52271   0.00000  Uiso   1.00
C61    C     0.56374   0.46375   0.50920   0.00000  Uiso   1.00
C62    C     0.51542   0.36207   0.50581   0.00000  Uiso   1.00
C63    C     0.59308   0.47793   0.49436   0.00000  Uiso   1.00
H64    H     0.52925   0.33283   0.51362   0.00000  Uiso   1.00
H65    H     0.61339   0.45904   0.47314   0.00000  Uiso   1.00
C66    C     0.63437   0.37042   0.76577   0.00000  Uiso   1.00
C67    C     0.60596   0.39275   0.76361   0.00000  Uiso   1.00
C68    C     0.58279   0.38517   0.55741   0.00000  Uiso   1.00
C69    C     0.64234   0.33632   0.57186   0.00000  Uiso   1.00
C70    C     0.38140   0.67487   0.37798   0.00000  Uiso   1.00
C71    C     0.41010   0.65134   0.37180   0.00000  Uiso   1.00
H72    H     0.65062   0.38047   0.92474   0.00000  Uiso   1.00
H73    H     0.60262   0.41832   0.92256   0.00000  Uiso   1.00
H74    H     0.37772   0.70087   0.22318   0.00000  Uiso   1.00
H75    H     0.42595   0.66022   0.20654   0.00000  Uiso   1.00
N76    N     0.67167   0.31732   0.58507   0.00000  Uiso   1.00
C77    C     0.68654   0.28347   0.43375   0.00000  Uiso   1.00
C78    C     0.71824   0.26720   0.47101   0.00000  Uiso   1.00
C79    C     0.73948   0.28552   0.66355   0.00000  Uiso   1.00
C80    C     0.72970   0.23047   0.30697   0.00000  Uiso   1.00
H81    H     0.67342   0.26693   0.27160   0.00000  Uiso   1.00
O82    O     0.70941   0.21051   0.11462   0.00000  Uiso   1.00
C83    C     0.78266   0.66960  -0.01643   0.00000  Uiso   1.00
H84    H     0.73175   0.31288   0.79177   0.00000  Uiso   1.00
H85    H     0.76325   0.67388  -0.16143   0.00000  Uiso   1.00
H86    H     0.77790   0.64421   0.14914   0.00000  Uiso   1.00
H87    H     0.80176   0.65802  -0.14784   0.00000  Uiso   1.00
C88    C     0.47489   0.59452   0.50618   0.00000  Uiso   1.00
C89    C     0.44326   0.58249   0.52271   0.00000  Uiso   1.00
C90    C     0.43626   0.53625   0.50920   0.00000  Uiso   1.00
C91    C     0.48458   0.63793   0.50581   0.00000  Uiso   1.00
C92    C     0.40692   0.52207   0.49436   0.00000  Uiso   1.00
H93    H     0.47075   0.66717   0.51362   0.00000  Uiso   1.00
H94    H     0.38661   0.54096   0.47314   0.00000  Uiso   1.00
C95    C     0.36563   0.62958   0.76577   0.00000  Uiso   1.00
C96    C     0.39404   0.60725   0.76361   0.00000  Uiso   1.00
C97    C     0.41721   0.61483   0.55741   0.00000  Uiso   1.00
C98    C     0.35766   0.66368   0.57186   0.00000  Uiso   1.00
C99    C     0.61860   0.32513   0.37798   0.00000  Uiso   1.00
C100   C     0.58990   0.34866   0.37180   0.00000  Uiso   1.00
H101   H     0.34938   0.61953   0.92474   0.00000  Uiso   1.00
H102   H     0.39738   0.58168   0.92256   0.00000  Uiso   1.00
H103   H     0.62228   0.29913   0.22318   0.00000  Uiso   1.00
H104   H     0.57405   0.33978   0.20654   0.00000  Uiso   1.00
N105   N     0.32833   0.68268   0.58507   0.00000  Uiso   1.00
C106   C     0.31346   0.71653   0.43375   0.00000  Uiso   1.00
C107   C     0.28176   0.73280   0.47101   0.00000  Uiso   1.00
C108   C     0.26052   0.71448   0.66355   0.00000  Uiso   1.00
C109   C     0.27030   0.76953   0.30697   0.00000  Uiso   1.00
H110   H     0.32658   0.73307   0.27160   0.00000  Uiso   1.00
O111   O     0.29059   0.78949   0.11462   0.00000  Uiso   1.00
C112   C     0.21734   0.33040  -0.01643   0.00000  Uiso   1.00
H113   H     0.26825   0.68712   0.79177   0.00000  Uiso   1.00
H114   H     0.23675   0.32612  -0.16143   0.00000  Uiso   1.00
H115   H     0.22210   0.35579   0.14914   0.00000  Uiso   1.00
H116   H     0.19824   0.34198  -0.14784   0.00000  Uiso   1.00
C117   C     0.02511   0.09452   0.50618   0.00000  Uiso   1.00
C118   C     0.05674   0.08249   0.52271   0.00000  Uiso   1.00
C119   C     0.06374   0.03625   0.50920   0.00000  Uiso   1.00
C120   C     0.01542   0.13793   0.50581   0.00000  Uiso   1.00
C121   C     0.09308   0.02207   0.49436   0.00000  Uiso   1.00
H122   H     0.02925   0.16717   0.51362   0.00000  Uiso   1.00
H123   H     0.11339   0.04096   0.47314   0.00000  Uiso   1.00
C124   C     0.13437   0.12958   0.76577   0.00000  Uiso   1.00
C125   C     0.10596   0.10725   0.76361   0.00000  Uiso   1.00
C126   C     0.08279   0.11483   0.55741   0.00000  Uiso   1.00
C127   C     0.14234   0.16368   0.57186   0.00000  Uiso   1.00
C128   C     0.88140   0.82513   0.37798   0.00000  Uiso   1.00
C129   C     0.91010   0.84866   0.37180   0.00000  Uiso   1.00
H130   H     0.15062   0.11953   0.92474   0.00000  Uiso   1.00
H131   H     0.10262   0.08168   0.92256   0.00000  Uiso   1.00
H132   H     0.87772   0.79913   0.22318   0.00000  Uiso   1.00
H133   H     0.92595   0.83978   0.20654   0.00000  Uiso   1.00
N134   N     0.17167   0.18268   0.58507   0.00000  Uiso   1.00
C135   C     0.18654   0.21653   0.43375   0.00000  Uiso   1.00
C136   C     0.21824   0.23280   0.47101   0.00000  Uiso   1.00
C137   C     0.23948   0.21448   0.66355   0.00000  Uiso   1.00
C138   C     0.22970   0.26953   0.30697   0.00000  Uiso   1.00
H139   H     0.17342   0.23307   0.27160   0.00000  Uiso   1.00
O140   O     0.20941   0.28949   0.11462   0.00000  Uiso   1.00
C141   C     0.28266   0.83040  -0.01643   0.00000  Uiso   1.00
H142   H     0.23175   0.18712   0.79177   0.00000  Uiso   1.00
H143   H     0.26325   0.82612  -0.16143   0.00000  Uiso   1.00
H144   H     0.27790   0.85579   0.14914   0.00000  Uiso   1.00
H145   H     0.30176   0.84198  -0.14784   0.00000  Uiso   1.00
C146   C     0.97489   0.90548   0.50618   0.00000  Uiso   1.00
C147   C     0.94326   0.91751   0.52271   0.00000  Uiso   1.00
C148   C     0.93626   0.96375   0.50920   0.00000  Uiso   1.00
C149   C     0.98458   0.86207   0.50581   0.00000  Uiso   1.00
C150   C     0.90692   0.97793   0.49436   0.00000  Uiso   1.00
H151   H     0.97075   0.83283   0.51362   0.00000  Uiso   1.00
H152   H     0.88661   0.95904   0.47314   0.00000  Uiso   1.00
C153   C     0.86563   0.87042   0.76577   0.00000  Uiso   1.00
C154   C     0.89404   0.89275   0.76361   0.00000  Uiso   1.00
C155   C     0.91721   0.88517   0.55741   0.00000  Uiso   1.00
C156   C     0.85766   0.83632   0.57186   0.00000  Uiso   1.00
C157   C     0.11860   0.17487   0.37798   0.00000  Uiso   1.00
C158   C     0.08990   0.15134   0.37180   0.00000  Uiso   1.00
H159   H     0.84938   0.88047   0.92474   0.00000  Uiso   1.00
H160   H     0.89738   0.91832   0.92256   0.00000  Uiso   1.00
H161   H     0.12228   0.20087   0.22318   0.00000  Uiso   1.00
H162   H     0.07405   0.16022   0.20654   0.00000  Uiso   1.00
N163   N     0.82833   0.81732   0.58507   0.00000  Uiso   1.00
C164   C     0.81346   0.78347   0.43375   0.00000  Uiso   1.00
C165   C     0.78176   0.76720   0.47101   0.00000  Uiso   1.00
C166   C     0.76052   0.78552   0.66355   0.00000  Uiso   1.00
C167   C     0.77030   0.73047   0.30697   0.00000  Uiso   1.00
H168   H     0.82658   0.76693   0.27160   0.00000  Uiso   1.00
O169   O     0.79059   0.71051   0.11462   0.00000  Uiso   1.00
C170   C     0.71734   0.16960  -0.01643   0.00000  Uiso   1.00
H171   H     0.76825   0.81288   0.79177   0.00000  Uiso   1.00
H172   H     0.73675   0.17388  -0.16143   0.00000  Uiso   1.00
H173   H     0.72210   0.14421   0.14914   0.00000  Uiso   1.00
H174   H     0.69824   0.15802  -0.14784   0.00000  Uiso   1.00
C175   C     0.97489   0.09452   0.49382   0.00000  Uiso   1.00
C176   C     0.94326   0.08249   0.47729   0.00000  Uiso   1.00
C177   C     0.93626   0.03625   0.49080   0.00000  Uiso   1.00
C178   C     0.98458   0.13793   0.49419   0.00000  Uiso   1.00
C179   C     0.90692   0.02207   0.50564   0.00000  Uiso   1.00
H180   H     0.97075   0.16717   0.48638   0.00000  Uiso   1.00
H181   H     0.88661   0.04096   0.52686   0.00000  Uiso   1.00
C182   C     0.86563   0.12958   0.23423   0.00000  Uiso   1.00
C183   C     0.89404   0.10725   0.23639   0.00000  Uiso   1.00
C184   C     0.91721   0.11483   0.44259   0.00000  Uiso   1.00
C185   C     0.85766   0.16368   0.42814   0.00000  Uiso   1.00
C186   C     0.11860   0.82513   0.62202   0.00000  Uiso   1.00
C187   C     0.08990   0.84866   0.62820   0.00000  Uiso   1.00
H188   H     0.84938   0.11953   0.07526   0.00000  Uiso   1.00
H189   H     0.89738   0.08168   0.07744   0.00000  Uiso   1.00
H190   H     0.12228   0.79913   0.77682   0.00000  Uiso   1.00
H191   H     0.07405   0.83978   0.79346   0.00000  Uiso   1.00
N192   N     0.82833   0.18268   0.41493   0.00000  Uiso   1.00
C193   C     0.81346   0.21653   0.56625   0.00000  Uiso   1.00
C194   C     0.78176   0.23280   0.52899   0.00000  Uiso   1.00
C195   C     0.76052   0.21448   0.33645   0.00000  Uiso   1.00
C196   C     0.77030   0.26953   0.69303   0.00000  Uiso   1.00
H197   H     0.82658   0.23307   0.72840   0.00000  Uiso   1.00
O198   O     0.79059   0.28949   0.88538   0.00000  Uiso   1.00
C199   C     0.71734   0.83040   1.01643   0.00000  Uiso   1.00
H200   H     0.76825   0.18712   0.20823   0.00000  Uiso   1.00
H201   H     0.73675   0.82612   1.16143   0.00000  Uiso   1.00
H202   H     0.72210   0.85579   0.85086   0.00000  Uiso   1.00
H203   H     0.69824   0.84198   1.14784   0.00000  Uiso   1.00
C204   C     0.02511   0.90548   0.49382   0.00000  Uiso   1.00
C205   C     0.05674   0.91751   0.47729   0.00000  Uiso   1.00
C206   C     0.06374   0.96375   0.49080   0.00000  Uiso   1.00
C207   C     0.01542   0.86207   0.49419   0.00000  Uiso   1.00
C208   C     0.09308   0.97793   0.50564   0.00000  Uiso   1.00
H209   H     0.02925   0.83283   0.48638   0.00000  Uiso   1.00
H210   H     0.11339   0.95904   0.52686   0.00000  Uiso   1.00
C211   C     0.13437   0.87042   0.23423   0.00000  Uiso   1.00
C212   C     0.10596   0.89275   0.23639   0.00000  Uiso   1.00
C213   C     0.08279   0.88517   0.44259   0.00000  Uiso   1.00
C214   C     0.14234   0.83632   0.42814   0.00000  Uiso   1.00
C215   C     0.88140   0.17487   0.62202   0.00000  Uiso   1.00
C216   C     0.91010   0.15134   0.62820   0.00000  Uiso   1.00
H217   H     0.15062   0.88047   0.07526   0.00000  Uiso   1.00
H218   H     0.10262   0.91832   0.07744   0.00000  Uiso   1.00
H219   H     0.87772   0.20087   0.77682   0.00000  Uiso   1.00
H220   H     0.92595   0.16022   0.79346   0.00000  Uiso   1.00
N221   N     0.17167   0.81732   0.41493   0.00000  Uiso   1.00
C222   C     0.18654   0.78347   0.56625   0.00000  Uiso   1.00
C223   C     0.21824   0.76720   0.52899   0.00000  Uiso   1.00
C224   C     0.23948   0.78552   0.33645   0.00000  Uiso   1.00
C225   C     0.22970   0.73047   0.69303   0.00000  Uiso   1.00
H226   H     0.17342   0.76693   0.72840   0.00000  Uiso   1.00
O227   O     0.20941   0.71051   0.88538   0.00000  Uiso   1.00
C228   C     0.28266   0.16960   1.01643   0.00000  Uiso   1.00
H229   H     0.23175   0.81288   0.20823   0.00000  Uiso   1.00
H230   H     0.26325   0.17388   1.16143   0.00000  Uiso   1.00
H231   H     0.27790   0.14421   0.85086   0.00000  Uiso   1.00
H232   H     0.30176   0.15802   1.14784   0.00000  Uiso   1.00
N233   N     0.45533   0.50000   0.50000   0.00000  Uiso   1.00
N234   N     0.54467   0.50000   0.50000   0.00000  Uiso   1.00
N235   N     0.04467   0.00000   0.50000   0.00000  Uiso   1.00
N236   N     0.95533   0.00000   0.50000   0.00000  Uiso   1.00
Co237  Co    0.50000   0.50000   0.50000   0.00000  Uiso   1.00
Co238  Co    0.00000   0.00000   0.50000   0.00000  Uiso   1.00
N239   N     0.50000   0.56665   0.50000   0.00000  Uiso   1.00
N240   N     0.50000   0.43335   0.50000   0.00000  Uiso   1.00
N241   N     0.00000   0.93335   0.50000   0.00000  Uiso   1.00
N242   N     0.00000   0.06665   0.50000   0.00000  Uiso   1.00
loop_
_geom_bond_atom_site_label_1
_geom_bond_atom_site_label_2
_geom_bond_distance
_geom_bond_site_symmetry_2
_ccdc_geom_bond_type
C1     C2      1.464   .     S
C1     C4      1.385   .     S
C1     N240    1.406   .     D
C2     C3      1.437   .     D
C2     C10     1.531   .     S
C3     C5      1.383   .     S
C3     N233    1.391   .     S
C4     H6      1.081   .     S
C4     C62     1.381   .     D
C5     H7      1.079   .     S
C5     C92     1.338   .     D
C8     C9      1.440   .     S
C8     C11     1.420   .     D
C8     H14     1.084   .     S
C9     C10     1.434   .     D
C9     H15     1.084   .     S
C10    C42     1.441   .     S
C11    N18     1.435   .     S
C11    C41     1.437   .     S
C12    C13     1.469   .     D
C12    H16     1.082   .     S
C12    C40     1.437   .     S
C13    H17     1.083   .     S
C13    C39     1.441   .     S
N18    C19     1.412   .     D
C19    C20     1.512   .     S
C19    H23     1.082   .     S
C20    C21     1.422   .     S
C20    C22     1.445   .     D
C21    H26     1.080   .     S
C21    C138    1.468   .     D
C22    O24     1.414   .     S
C22    C137    1.468   .     S
O24    C228    1.427   .     S
C25    H27     1.110   .     S
C25    H28     1.112   .     S
C25    H29     1.110   .     S
C25    O227    1.427   .     S
C30    C31     1.464   .     S
C30    C33     1.385   .     S
C30    N239    1.406   .     D
C31    C32     1.437   .     D
C31    C39     1.531   .     S
C32    C34     1.383   .     S
C32    N234    1.391   .     S
C33    H35     1.081   .     S
C33    C91     1.381   .     D
C34    H36     1.079   .     S
C34    C63     1.338   .     D
C37    C38     1.440   .     S
C37    C40     1.420   .     D
C37    H43     1.084   .     S
C38    C39     1.434   .     D
C38    H44     1.084   .     S
C40    N47     1.435   .     S
C41    C42     1.469   .     D
C41    H45     1.082   .     S
C42    H46     1.083   .     S
N47    C48     1.412   .     D
C48    C49     1.512   .     S
C48    H52     1.082   .     S
C49    C50     1.422   .     S
C49    C51     1.445   .     D
C50    H55     1.080   .     S
C50    C167    1.468   .     D
C51    O53     1.414   .     S
C51    C166    1.468   .     S
O53    C199    1.427   .     S
C54    H56     1.110   .     S
C54    H57     1.112   .     S
C54    H58     1.110   .     S
C54    O198    1.427   .     S
C59    C60     1.464   .     D
C59    C62     1.385   .     S
C59    N240    1.406   .     S
C60    C61     1.437   .     S
C60    C68     1.531   .     S
C61    C63     1.383   .     S
C61    N234    1.391   .     D
C62    H64     1.081   .     S
C63    H65     1.079   .     S
C66    C67     1.440   .     S
C66    C69     1.420   .     D
C66    H72     1.084   .     S
C67    C68     1.434   .     D
C67    H73     1.084   .     S
C68    C100    1.441   .     S
C69    N76     1.435   .     S
C69    C99     1.437   .     S
C70    C71     1.469   .     S
C70    H74     1.082   .     S
C70    C98     1.437   .     D
C71    H75     1.083   .     S
C71    C97     1.441   .     D
N76    C77     1.412   .     D
C77    C78     1.512   .     S
C77    H81     1.082   .     S
C78    C79     1.422   .     S
C78    C80     1.445   .     D
C79    H84     1.080   .     S
C79    C196    1.468   .     D
C80    O82     1.414   .     S
C80    C195    1.468   .     S
O82    C170    1.427   .     S
C83    H85     1.110   .     S
C83    H86     1.112   .     S
C83    H87     1.110   .     S
C83    O169    1.427   .     S
C88    C89     1.464   .     D
C88    C91     1.385   .     S
C88    N239    1.406   .     S
C89    C90     1.437   .     S
C89    C97     1.531   .     S
C90    C92     1.383   .     S
C90    N233    1.391   .     D
C91    H93     1.081   .     S
C92    H94     1.079   .     S
C95    C96     1.440   .     D
C95    C98     1.420   .     S
C95    H101    1.084   .     S
C96    C97     1.434   .     S
C96    H102    1.084   .     S
C98    N105    1.435   .     S
C99    C100    1.469   .     D
C99    H103    1.082   .     S
C100   H104    1.083   .     S
N105   C106    1.412   .     D
C106   C107    1.512   .     S
C106   H110    1.082   .     S
C107   C108    1.422   .     S
C107   C109    1.445   .     D
C108   H113    1.080   .     S
C108   C225    1.468   .     D
C109   O111    1.414   .     S
C109   C224    1.468   .     S
O111   C141    1.427   .     S
C112   H114    1.110   .     S
C112   H115    1.112   .     S
C112   H116    1.110   .     S
C112   O140    1.427   .     S
C117   C118    1.464   .     S
C117   C120    1.385   .     S
C117   N242    1.406   .     D
C118   C119    1.437   .     D
C118   C126    1.531   .     S
C119   C121    1.383   .     S
C119   N235    1.391   .     S
C120   H122    1.081   .     S
C120   C178    1.381   1_455 D
C121   H123    1.079   .     S
C121   C208    1.338   1_545 D
C124   C125    1.440   .     S
C124   C127    1.420   .     D
C124   H130    1.084   .     S
C125   C126    1.434   .     D
C125   H131    1.084   .     S
C126   C158    1.441   .     S
C127   N134    1.435   .     S
C127   C157    1.437   .     S
C128   C129    1.469   .     S
C128   H132    1.082   .     S
C128   C156    1.437   .     D
C129   H133    1.083   .     S
C129   C155    1.441   .     D
N134   C135    1.412   .     D
C135   C136    1.512   .     S
C135   H139    1.082   .     S
C136   C137    1.422   .     D
C136   C138    1.445   .     S
C137   H142    1.080   .     S
C138   O140    1.414   .     S
C141   H143    1.110   .     S
C141   H144    1.112   .     S
C141   H145    1.110   .     S
C146   C147    1.464   .     S
C146   C149    1.385   .     S
C146   N241    1.406   1_655 D
C147   C148    1.437   .     D
C147   C155    1.531   .     S
C148   C150    1.383   .     S
C148   N236    1.391   1_565 S
C149   H151    1.081   .     S
C149   C207    1.381   1_655 D
C150   H152    1.079   .     S
C150   C179    1.338   1_565 D
C153   C154    1.440   .     D
C153   C156    1.420   .     S
C153   H159    1.084   .     S
C154   C155    1.434   .     S
C154   H160    1.084   .     S
C156   N163    1.435   .     S
C157   C158    1.469   .     D
C157   H161    1.082   .     S
C158   H162    1.083   .     S
N163   C164    1.412   .     D
C164   C165    1.512   .     S
C164   H168    1.082   .     S
C165   C166    1.422   .     D
C165   C167    1.445   .     S
C166   H171    1.080   .     S
C167   O169    1.414   .     S
C170   H172    1.110   .     S
C170   H173    1.112   .     S
C170   H174    1.110   .     S
C175   C176    1.464   .     D
C175   C178    1.385   .     S
C175   N242    1.406   1_655 S
C176   C177    1.437   .     S
C176   C184    1.531   .     S
C177   C179    1.383   .     S
C177   N236    1.391   .     D
C178   C120    1.381   1_655 D
C178   H180    1.081   .     S
C179   C150    1.338   1_545 D
C179   H181    1.079   .     S
C182   C183    1.440   .     S
C182   C185    1.420   .     D
C182   H188    1.084   .     S
C183   C184    1.434   .     D
C183   H189    1.084   .     S
C184   C216    1.441   .     S
C185   N192    1.435   .     S
C185   C215    1.437   .     S
C186   C187    1.469   .     D
C186   H190    1.082   .     S
C186   C214    1.437   .     S
C187   H191    1.083   .     S
C187   C213    1.441   .     S
N192   C193    1.412   .     D
C193   C194    1.512   .     S
C193   H197    1.082   .     S
C194   C195    1.422   .     D
C194   C196    1.445   .     S
C195   H200    1.080   .     S
C196   O198    1.414   .     S
C199   H201    1.110   .     S
C199   H202    1.112   .     S
C199   H203    1.110   .     S
C204   C205    1.464   .     D
C204   C207    1.385   .     S
C204   N241    1.406   .     S
C205   C206    1.437   .     S
C205   C213    1.531   .     S
C206   C208    1.383   .     S
C206   N235    1.391   1_565 D
C207   C149    1.381   1_455 D
C207   H209    1.081   .     S
C208   C121    1.338   1_565 D
C208   H210    1.079   .     S
C211   C212    1.440   .     S
C211   C214    1.420   .     D
C211   H217    1.084   .     S
C212   C213    1.434   .     D
C212   H218    1.084   .     S
C214   N221    1.435   .     S
C215   C216    1.469   .     D
C215   H219    1.082   .     S
C216   H220    1.083   .     S
N221   C222    1.412   .     D
C222   C223    1.512   .     S
C222   H226    1.082   .     S
C223   C224    1.422   .     D
C223   C225    1.445   .     S
C224   H229    1.080   .     S
C225   O227    1.414   .     S
C228   H230    1.110   .     S
C228   H231    1.112   .     S
C228   H232    1.110   .     S
N233   Co237   1.999   .     S
N234   Co237   1.999   .     S
N235   C206    1.391   1_545 D
N235   Co238   1.999   .     S
N236   C148    1.391   1_545 S
N236   Co238   1.999   1_655 S
Co237  N239    2.019   .     S
Co237  N240    2.019   .     S
Co238  N236    1.999   1_455 S
Co238  N241    2.019   1_545 S
Co238  N242    2.019   .     S
N241   Co238   2.019   1_565 S
N241   C146    1.406   1_455 D
N242   C175    1.406   1_455 S
