data_1160
_audit_creation_date              2023-09-08
_audit_creation_method            'Materials Studio'
_symmetry_space_group_name_H-M    'P1'
_symmetry_Int_Tables_number       1
_symmetry_cell_setting            triclinic
loop_
_symmetry_equiv_pos_as_xyz
  x,y,z
_cell_length_a                    35.5129
_cell_length_b                    31.5434
_cell_length_c                    3.9844
_cell_angle_alpha                 90.0000
_cell_angle_beta                  90.0000
_cell_angle_gamma                 90.0000
loop_
_atom_site_label
_atom_site_type_symbol
_atom_site_fract_x
_atom_site_fract_y
_atom_site_fract_z
_atom_site_U_iso_or_equiv
_atom_site_adp_type
_atom_site_occupancy
C1     C     0.03318   0.90942   0.59843   0.00000  Uiso   1.00
C2     C     0.03188   0.95446   0.62227   0.00000  Uiso   1.00
C3     C     0.06153   0.97786   0.76822   0.00000  Uiso   1.00
C4     C     0.28062   0.72137   0.47063   0.00000  Uiso   1.00
C5     C     0.28304   0.76254   0.33307   0.00000  Uiso   1.00
C6     C     0.24739   0.70906   0.63740   0.00000  Uiso   1.00
N7     N     0.30890   0.69292   0.45402   0.00000  Uiso   1.00
N8     N     0.34129   0.69831   0.30877   0.00000  Uiso   1.00
C9     C     0.43405   0.61567   0.34926   0.00000  Uiso   1.00
C10    C     0.43509   0.65402   0.16352   0.00000  Uiso   1.00
C11    C     0.40354   0.68102   0.14834   0.00000  Uiso   1.00
C12    C     0.36986   0.67009   0.31247   0.00000  Uiso   1.00
C13    C     0.36781   0.63099   0.48296   0.00000  Uiso   1.00
C14    C     0.39954   0.60449   0.50400   0.00000  Uiso   1.00
H15    H     0.08373   0.96298   0.87953   0.00000  Uiso   1.00
H16    H     0.30698   0.77175   0.21072   0.00000  Uiso   1.00
H17    H     0.24544   0.67938   0.73938   0.00000  Uiso   1.00
H18    H     0.45902   0.66286   0.03934   0.00000  Uiso   1.00
H19    H     0.40508   0.70890   0.01804   0.00000  Uiso   1.00
H20    H     0.34338   0.62233   0.59983   0.00000  Uiso   1.00
H21    H     0.39732   0.57729   0.64161   0.00000  Uiso   1.00
C22    C     0.53318   0.40942   0.59843   0.00000  Uiso   1.00
C23    C     0.53188   0.45446   0.62227   0.00000  Uiso   1.00
C24    C     0.56153   0.47786   0.76822   0.00000  Uiso   1.00
C25    C     0.78062   0.22137   0.47063   0.00000  Uiso   1.00
C26    C     0.78304   0.26254   0.33307   0.00000  Uiso   1.00
C27    C     0.74739   0.20906   0.63740   0.00000  Uiso   1.00
N28    N     0.80890   0.19292   0.45402   0.00000  Uiso   1.00
N29    N     0.84129   0.19831   0.30877   0.00000  Uiso   1.00
C30    C     0.93405   0.11567   0.34926   0.00000  Uiso   1.00
C31    C     0.93509   0.15402   0.16352   0.00000  Uiso   1.00
C32    C     0.90354   0.18102   0.14834   0.00000  Uiso   1.00
C33    C     0.86986   0.17009   0.31247   0.00000  Uiso   1.00
C34    C     0.86781   0.13099   0.48296   0.00000  Uiso   1.00
C35    C     0.89954   0.10449   0.50400   0.00000  Uiso   1.00
H36    H     0.58373   0.46298   0.87953   0.00000  Uiso   1.00
H37    H     0.80698   0.27175   0.21072   0.00000  Uiso   1.00
H38    H     0.74544   0.17938   0.73938   0.00000  Uiso   1.00
H39    H     0.95902   0.16286   0.03934   0.00000  Uiso   1.00
H40    H     0.90508   0.20890   0.01804   0.00000  Uiso   1.00
H41    H     0.84338   0.12233   0.59983   0.00000  Uiso   1.00
H42    H     0.89732   0.07729   0.64161   0.00000  Uiso   1.00
C43    C     0.96682   0.90942   0.40157   0.00000  Uiso   1.00
C44    C     0.96812   0.95446   0.37773   0.00000  Uiso   1.00
C45    C     0.93847   0.97786   0.23178   0.00000  Uiso   1.00
C46    C     0.71938   0.72137   0.52937   0.00000  Uiso   1.00
C47    C     0.71696   0.76254   0.66693   0.00000  Uiso   1.00
C48    C     0.75261   0.70906   0.36260   0.00000  Uiso   1.00
N49    N     0.69110   0.69292   0.54598   0.00000  Uiso   1.00
N50    N     0.65871   0.69831   0.69123   0.00000  Uiso   1.00
C51    C     0.56595   0.61567   0.65074   0.00000  Uiso   1.00
C52    C     0.56491   0.65402   0.83648   0.00000  Uiso   1.00
C53    C     0.59646   0.68102   0.85166   0.00000  Uiso   1.00
C54    C     0.63014   0.67009   0.68753   0.00000  Uiso   1.00
C55    C     0.63219   0.63099   0.51704   0.00000  Uiso   1.00
C56    C     0.60046   0.60449   0.49600   0.00000  Uiso   1.00
H57    H     0.91627   0.96298   0.12047   0.00000  Uiso   1.00
H58    H     0.69302   0.77175   0.78928   0.00000  Uiso   1.00
H59    H     0.75456   0.67938   0.26062   0.00000  Uiso   1.00
H60    H     0.54098   0.66286   0.96066   0.00000  Uiso   1.00
H61    H     0.59492   0.70890   0.98196   0.00000  Uiso   1.00
H62    H     0.65662   0.62233   0.40017   0.00000  Uiso   1.00
H63    H     0.60268   0.57729   0.35839   0.00000  Uiso   1.00
C64    C     0.46682   0.40942   0.40157   0.00000  Uiso   1.00
C65    C     0.46812   0.45446   0.37773   0.00000  Uiso   1.00
C66    C     0.43847   0.47786   0.23178   0.00000  Uiso   1.00
C67    C     0.21938   0.22137   0.52937   0.00000  Uiso   1.00
C68    C     0.21696   0.26254   0.66693   0.00000  Uiso   1.00
C69    C     0.25261   0.20906   0.36260   0.00000  Uiso   1.00
N70    N     0.19110   0.19292   0.54598   0.00000  Uiso   1.00
N71    N     0.15871   0.19831   0.69123   0.00000  Uiso   1.00
C72    C     0.06595   0.11567   0.65074   0.00000  Uiso   1.00
C73    C     0.06491   0.15402   0.83648   0.00000  Uiso   1.00
C74    C     0.09646   0.18102   0.85166   0.00000  Uiso   1.00
C75    C     0.13014   0.17009   0.68753   0.00000  Uiso   1.00
C76    C     0.13219   0.13099   0.51704   0.00000  Uiso   1.00
C77    C     0.10046   0.10449   0.49600   0.00000  Uiso   1.00
H78    H     0.41627   0.46298   0.12047   0.00000  Uiso   1.00
H79    H     0.19302   0.27175   0.78928   0.00000  Uiso   1.00
H80    H     0.25456   0.17938   0.26062   0.00000  Uiso   1.00
H81    H     0.04098   0.16286   0.96066   0.00000  Uiso   1.00
H82    H     0.09492   0.20890   0.98196   0.00000  Uiso   1.00
H83    H     0.15662   0.12233   0.40017   0.00000  Uiso   1.00
H84    H     0.10268   0.07729   0.35839   0.00000  Uiso   1.00
C85    C     0.96682   0.09058   0.40157   0.00000  Uiso   1.00
C86    C     0.96812   0.04554   0.37773   0.00000  Uiso   1.00
C87    C     0.93847   0.02214   0.23178   0.00000  Uiso   1.00
C88    C     0.71938   0.27863   0.52937   0.00000  Uiso   1.00
C89    C     0.71696   0.23746   0.66693   0.00000  Uiso   1.00
C90    C     0.75261   0.29094   0.36260   0.00000  Uiso   1.00
N91    N     0.69110   0.30708   0.54598   0.00000  Uiso   1.00
N92    N     0.65871   0.30169   0.69123   0.00000  Uiso   1.00
C93    C     0.56595   0.38433   0.65074   0.00000  Uiso   1.00
C94    C     0.56491   0.34598   0.83648   0.00000  Uiso   1.00
C95    C     0.59646   0.31898   0.85166   0.00000  Uiso   1.00
C96    C     0.63014   0.32991   0.68753   0.00000  Uiso   1.00
C97    C     0.63219   0.36901   0.51704   0.00000  Uiso   1.00
C98    C     0.60046   0.39551   0.49600   0.00000  Uiso   1.00
H99    H     0.91627   0.03702   0.12047   0.00000  Uiso   1.00
H100   H     0.69302   0.22825   0.78928   0.00000  Uiso   1.00
H101   H     0.75456   0.32062   0.26062   0.00000  Uiso   1.00
H102   H     0.54098   0.33714   0.96066   0.00000  Uiso   1.00
H103   H     0.59492   0.29110   0.98196   0.00000  Uiso   1.00
H104   H     0.65662   0.37767   0.40017   0.00000  Uiso   1.00
H105   H     0.60268   0.42271   0.35839   0.00000  Uiso   1.00
C106   C     0.46682   0.59058   0.40157   0.00000  Uiso   1.00
C107   C     0.46812   0.54554   0.37773   0.00000  Uiso   1.00
C108   C     0.43847   0.52214   0.23178   0.00000  Uiso   1.00
C109   C     0.21938   0.77863   0.52937   0.00000  Uiso   1.00
C110   C     0.21696   0.73746   0.66693   0.00000  Uiso   1.00
C111   C     0.25261   0.79094   0.36260   0.00000  Uiso   1.00
N112   N     0.19110   0.80708   0.54598   0.00000  Uiso   1.00
N113   N     0.15871   0.80169   0.69123   0.00000  Uiso   1.00
C114   C     0.06595   0.88433   0.65074   0.00000  Uiso   1.00
C115   C     0.06491   0.84598   0.83648   0.00000  Uiso   1.00
C116   C     0.09646   0.81898   0.85166   0.00000  Uiso   1.00
C117   C     0.13014   0.82991   0.68753   0.00000  Uiso   1.00
C118   C     0.13219   0.86901   0.51704   0.00000  Uiso   1.00
C119   C     0.10046   0.89551   0.49600   0.00000  Uiso   1.00
H120   H     0.41627   0.53702   0.12047   0.00000  Uiso   1.00
H121   H     0.19302   0.72825   0.78928   0.00000  Uiso   1.00
H122   H     0.25456   0.82062   0.26062   0.00000  Uiso   1.00
H123   H     0.04098   0.83714   0.96066   0.00000  Uiso   1.00
H124   H     0.09492   0.79110   0.98196   0.00000  Uiso   1.00
H125   H     0.15662   0.87767   0.40017   0.00000  Uiso   1.00
H126   H     0.10268   0.92271   0.35839   0.00000  Uiso   1.00
C127   C     0.03318   0.09058   0.59843   0.00000  Uiso   1.00
C128   C     0.03188   0.04554   0.62227   0.00000  Uiso   1.00
C129   C     0.06153   0.02214   0.76822   0.00000  Uiso   1.00
C130   C     0.28062   0.27863   0.47063   0.00000  Uiso   1.00
C131   C     0.28304   0.23746   0.33307   0.00000  Uiso   1.00
C132   C     0.24739   0.29094   0.63740   0.00000  Uiso   1.00
N133   N     0.30890   0.30708   0.45402   0.00000  Uiso   1.00
N134   N     0.34129   0.30169   0.30877   0.00000  Uiso   1.00
C135   C     0.43405   0.38433   0.34926   0.00000  Uiso   1.00
C136   C     0.43509   0.34598   0.16352   0.00000  Uiso   1.00
C137   C     0.40354   0.31898   0.14834   0.00000  Uiso   1.00
C138   C     0.36986   0.32991   0.31247   0.00000  Uiso   1.00
C139   C     0.36781   0.36901   0.48296   0.00000  Uiso   1.00
C140   C     0.39954   0.39551   0.50400   0.00000  Uiso   1.00
H141   H     0.08373   0.03702   0.87953   0.00000  Uiso   1.00
H142   H     0.30698   0.22825   0.21072   0.00000  Uiso   1.00
H143   H     0.24544   0.32062   0.73938   0.00000  Uiso   1.00
H144   H     0.45902   0.33714   0.03934   0.00000  Uiso   1.00
H145   H     0.40508   0.29110   0.01804   0.00000  Uiso   1.00
H146   H     0.34338   0.37767   0.59983   0.00000  Uiso   1.00
H147   H     0.39732   0.42271   0.64161   0.00000  Uiso   1.00
C148   C     0.53318   0.59058   0.59843   0.00000  Uiso   1.00
C149   C     0.53188   0.54554   0.62227   0.00000  Uiso   1.00
C150   C     0.56153   0.52214   0.76822   0.00000  Uiso   1.00
C151   C     0.78062   0.77863   0.47063   0.00000  Uiso   1.00
C152   C     0.78304   0.73746   0.33307   0.00000  Uiso   1.00
C153   C     0.74739   0.79094   0.63740   0.00000  Uiso   1.00
N154   N     0.80890   0.80708   0.45402   0.00000  Uiso   1.00
N155   N     0.84129   0.80169   0.30877   0.00000  Uiso   1.00
C156   C     0.93405   0.88433   0.34926   0.00000  Uiso   1.00
C157   C     0.93509   0.84598   0.16352   0.00000  Uiso   1.00
C158   C     0.90354   0.81898   0.14834   0.00000  Uiso   1.00
C159   C     0.86986   0.82991   0.31247   0.00000  Uiso   1.00
C160   C     0.86781   0.86901   0.48296   0.00000  Uiso   1.00
C161   C     0.89954   0.89551   0.50400   0.00000  Uiso   1.00
H162   H     0.58373   0.53702   0.87953   0.00000  Uiso   1.00
H163   H     0.80698   0.72825   0.21072   0.00000  Uiso   1.00
H164   H     0.74544   0.82062   0.73938   0.00000  Uiso   1.00
H165   H     0.95902   0.83714   0.03934   0.00000  Uiso   1.00
H166   H     0.90508   0.79110   0.01804   0.00000  Uiso   1.00
H167   H     0.84338   0.87767   0.59983   0.00000  Uiso   1.00
H168   H     0.89732   0.92271   0.64161   0.00000  Uiso   1.00
C169   C     0.00000   0.11185   0.50000   0.00000  Uiso   1.00
C170   C     0.00000   0.97727   0.50000   0.00000  Uiso   1.00
H171   H     0.00000   0.14427   0.50000   0.00000  Uiso   1.00
C172   C     0.50000   0.61185   0.50000   0.00000  Uiso   1.00
C173   C     0.50000   0.47727   0.50000   0.00000  Uiso   1.00
H174   H     0.50000   0.64427   0.50000   0.00000  Uiso   1.00
C175   C     0.00000   0.88815   0.50000   0.00000  Uiso   1.00
C176   C     0.00000   0.02273   0.50000   0.00000  Uiso   1.00
H177   H     0.00000   0.85573   0.50000   0.00000  Uiso   1.00
C178   C     0.50000   0.38815   0.50000   0.00000  Uiso   1.00
C179   C     0.50000   0.52273   0.50000   0.00000  Uiso   1.00
H180   H     0.50000   0.35573   0.50000   0.00000  Uiso   1.00
loop_
_geom_bond_atom_site_label_1
_geom_bond_atom_site_label_2
_geom_bond_distance
_geom_bond_site_symmetry_2
_ccdc_geom_bond_type
C1     C2      1.425   .     S
C1     C175    1.412   .     S
C1     C114    1.423   .     D
C2     C3      1.411   .     D
C2     C170    1.427   .     S
C3     H15     1.019   .     S
C3     C129    1.397   1_565 S
C4     C5      1.412   .     S
C4     C6      1.409   .     S
C4     N7      1.348   .     D
C5     H16     1.022   .     S
C5     C111    1.409   .     D
C6     H17     1.023   .     S
C6     C110    1.409   .     D
N7     N8      1.299   .     S
N8     C12     1.350   .     D
C9     C10     1.419   .     S
C9     C14     1.416   .     S
C9     C106    1.423   .     D
C10    C11     1.409   .     D
C10    H18     1.022   .     S
C11    C12     1.406   .     S
C11    H19     1.023   .     S
C12    C13     1.410   .     S
C13    C14     1.406   .     D
C13    H20     1.022   .     S
C14    H21     1.021   .     S
C22    C23     1.425   .     S
C22    C178    1.412   .     D
C22    C93     1.423   .     S
C23    C24     1.411   .     S
C23    C173    1.427   .     D
C24    H36     1.019   .     S
C24    C150    1.397   .     D
C25    C26     1.412   .     D
C25    C27     1.409   .     S
C25    N28     1.348   .     S
C26    H37     1.022   .     S
C26    C90     1.409   .     S
C27    H38     1.023   .     S
C27    C89     1.409   .     D
N28    N29     1.299   .     D
N29    C33     1.350   .     S
C30    C31     1.419   .     D
C30    C35     1.416   .     S
C30    C85     1.423   .     S
C31    C32     1.409   .     S
C31    H39     1.022   .     S
C32    C33     1.406   .     D
C32    H40     1.023   .     S
C33    C34     1.410   .     S
C34    C35     1.406   .     D
C34    H41     1.022   .     S
C35    H42     1.021   .     S
C43    C44     1.425   .     S
C43    C156    1.423   .     S
C43    C175    1.412   1_655 D
C44    C45     1.411   .     S
C44    C170    1.427   1_655 D
C45    H57     1.019   .     S
C45    C87     1.397   1_565 D
C46    C47     1.412   .     S
C46    C48     1.409   .     D
C46    N49     1.348   .     S
C47    H58     1.022   .     S
C47    C153    1.409   .     D
C48    H59     1.023   .     S
C48    C152    1.409   .     S
N49    N50     1.299   .     D
N50    C54     1.350   .     S
C51    C52     1.419   .     D
C51    C56     1.416   .     S
C51    C148    1.423   .     S
C52    C53     1.409   .     S
C52    H60     1.022   .     S
C53    C54     1.406   .     D
C53    H61     1.023   .     S
C54    C55     1.410   .     S
C55    C56     1.406   .     D
C55    H62     1.022   .     S
C56    H63     1.021   .     S
C64    C65     1.425   .     S
C64    C178    1.412   .     S
C64    C135    1.423   .     D
C65    C66     1.411   .     D
C65    C173    1.427   .     S
C66    H78     1.019   .     S
C66    C108    1.397   .     S
C67    C68     1.412   .     S
C67    C69     1.409   .     S
C67    N70     1.348   .     D
C68    H79     1.022   .     S
C68    C132    1.409   .     D
C69    H80     1.023   .     S
C69    C131    1.409   .     D
N70    N71     1.299   .     S
N71    C75     1.350   .     D
C72    C73     1.419   .     S
C72    C77     1.416   .     S
C72    C127    1.423   .     D
C73    C74     1.409   .     D
C73    H81     1.022   .     S
C74    C75     1.406   .     S
C74    H82     1.023   .     S
C75    C76     1.410   .     S
C76    C77     1.406   .     D
C76    H83     1.022   .     S
C77    H84     1.021   .     S
C85    C86     1.425   .     S
C85    C169    1.412   1_655 D
C86    C87     1.411   .     S
C86    C176    1.427   1_655 D
C87    H99     1.019   .     S
C87    C45     1.397   1_545 D
C88    C89     1.412   .     S
C88    C90     1.409   .     D
C88    N91     1.348   .     S
C89    H100    1.022   .     S
C90    H101    1.023   .     S
N91    N92     1.299   .     D
N92    C96     1.350   .     S
C93    C94     1.419   .     D
C93    C98     1.416   .     S
C94    C95     1.409   .     S
C94    H102    1.022   .     S
C95    C96     1.406   .     D
C95    H103    1.023   .     S
C96    C97     1.410   .     S
C97    C98     1.406   .     D
C97    H104    1.022   .     S
C98    H105    1.021   .     S
C106   C107    1.425   .     S
C106   C172    1.412   .     S
C107   C108    1.411   .     D
C107   C179    1.427   .     S
C108   H120    1.019   .     S
C109   C110    1.412   .     S
C109   C111    1.409   .     S
C109   N112    1.348   .     D
C110   H121    1.022   .     S
C111   H122    1.023   .     S
N112   N113    1.299   .     S
N113   C117    1.350   .     D
C114   C115    1.419   .     S
C114   C119    1.416   .     S
C115   C116    1.409   .     D
C115   H123    1.022   .     S
C116   C117    1.406   .     S
C116   H124    1.023   .     S
C117   C118    1.410   .     S
C118   C119    1.406   .     D
C118   H125    1.022   .     S
C119   H126    1.021   .     S
C127   C128    1.425   .     S
C127   C169    1.412   .     S
C128   C129    1.411   .     D
C128   C176    1.427   .     S
C129   H141    1.019   .     S
C129   C3      1.397   1_545 S
C130   C131    1.412   .     S
C130   C132    1.409   .     S
C130   N133    1.348   .     D
C131   H142    1.022   .     S
C132   H143    1.023   .     S
N133   N134    1.299   .     S
N134   C138    1.350   .     D
C135   C136    1.419   .     S
C135   C140    1.416   .     S
C136   C137    1.409   .     D
C136   H144    1.022   .     S
C137   C138    1.406   .     S
C137   H145    1.023   .     S
C138   C139    1.410   .     S
C139   C140    1.406   .     D
C139   H146    1.022   .     S
C140   H147    1.021   .     S
C148   C149    1.425   .     S
C148   C172    1.412   .     D
C149   C150    1.411   .     S
C149   C179    1.427   .     D
C150   H162    1.019   .     S
C151   C152    1.412   .     D
C151   C153    1.409   .     S
C151   N154    1.348   .     S
C152   H163    1.022   .     S
C153   H164    1.023   .     S
N154   N155    1.299   .     D
N155   C159    1.350   .     S
C156   C157    1.419   .     S
C156   C161    1.416   .     D
C157   C158    1.409   .     D
C157   H165    1.022   .     S
C158   C159    1.406   .     S
C158   H166    1.023   .     S
C159   C160    1.410   .     D
C160   C161    1.406   .     S
C160   H167    1.022   .     S
C161   H168    1.021   .     S
C169   H171    1.023   .     S
C169   C85     1.412   1_455 D
C170   C44     1.427   1_455 D
C170   C176    1.434   1_565 S
C172   H174    1.023   .     S
C173   C179    1.434   .     S
C175   H177    1.023   .     S
C175   C43     1.412   1_455 D
C176   C86     1.427   1_455 D
C176   C170    1.434   1_545 S
C178   H180    1.023   .     S
