data_1161
_audit_creation_date              2023-09-08
_audit_creation_method            'Materials Studio'
_symmetry_space_group_name_H-M    'P1'
_symmetry_Int_Tables_number       1
_symmetry_cell_setting            triclinic
loop_
_symmetry_equiv_pos_as_xyz
  x,y,z
_cell_length_a                    38.6435
_cell_length_b                    38.6435
_cell_length_c                    4.9822
_cell_angle_alpha                 90.0000
_cell_angle_beta                  90.0000
_cell_angle_gamma                 120.0000
loop_
_atom_site_label
_atom_site_type_symbol
_atom_site_fract_x
_atom_site_fract_y
_atom_site_fract_z
_atom_site_U_iso_or_equiv
_atom_site_adp_type
_atom_site_occupancy
C1     C     0.77395   0.20712   0.65398   0.00000  Uiso   1.00
C2     C     0.80762   0.24431   0.59332   0.00000  Uiso   1.00
C3     C     0.80685   0.26740   0.37609   0.00000  Uiso   1.00
C4     C     0.77178   0.25245   0.22044   0.00000  Uiso   1.00
C5     C     0.73798   0.21550   0.28344   0.00000  Uiso   1.00
C6     C     0.00063   0.48160   0.48144   0.00000  Uiso   1.00
C7     C     0.96531   0.44334   0.48209   0.00000  Uiso   1.00
C8     C     0.93522   0.43308   0.67641   0.00000  Uiso   1.00
C9     C     0.90072   0.39512   0.68424   0.00000  Uiso   1.00
C10    C     0.89521   0.36599   0.49366   0.00000  Uiso   1.00
C11    C     0.92489   0.37540   0.29736   0.00000  Uiso   1.00
C12    C     0.95941   0.41347   0.29315   0.00000  Uiso   1.00
N13    N     0.86170   0.33000   0.51280   0.00000  Uiso   1.00
C14    C     0.84005   0.30460   0.31402   0.00000  Uiso   1.00
C15    C     0.55686   0.03677   0.48218   0.00000  Uiso   1.00
C16    C     0.58817   0.04201   0.65669   0.00000  Uiso   1.00
C17    C     0.62611   0.07671   0.65098   0.00000  Uiso   1.00
C18    C     0.63421   0.10765   0.46746   0.00000  Uiso   1.00
C19    C     0.60348   0.10335   0.29557   0.00000  Uiso   1.00
C20    C     0.56571   0.06861   0.30456   0.00000  Uiso   1.00
N21    N     0.66974   0.14161   0.43978   0.00000  Uiso   1.00
C22    C     0.70480   0.15548   0.57143   0.00000  Uiso   1.00
C23    C     0.73842   0.19231   0.50212   0.00000  Uiso   1.00
H24    H     0.77556   0.19112   0.81254   0.00000  Uiso   1.00
H25    H     0.83275   0.25438   0.70872   0.00000  Uiso   1.00
H26    H     0.77045   0.26849   0.06097   0.00000  Uiso   1.00
H27    H     0.71299   0.20573   0.16700   0.00000  Uiso   1.00
H28    H     0.93848   0.45361   0.81375   0.00000  Uiso   1.00
H29    H     0.87948   0.38879   0.82836   0.00000  Uiso   1.00
H30    H     0.92163   0.35442   0.15913   0.00000  Uiso   1.00
H31    H     0.98048   0.41921   0.15093   0.00000  Uiso   1.00
H32    H     0.84676   0.31290   0.11716   0.00000  Uiso   1.00
H33    H     0.58374   0.02018   0.78947   0.00000  Uiso   1.00
H34    H     0.64771   0.07907   0.78003   0.00000  Uiso   1.00
H35    H     0.60857   0.12556   0.16204   0.00000  Uiso   1.00
H36    H     0.54447   0.06679   0.17920   0.00000  Uiso   1.00
H37    H     0.70703   0.13914   0.72501   0.00000  Uiso   1.00
C38    C     0.79288   0.56683   0.65398   0.00000  Uiso   1.00
C39    C     0.75569   0.56331   0.59332   0.00000  Uiso   1.00
C40    C     0.73260   0.53945   0.37609   0.00000  Uiso   1.00
C41    C     0.74755   0.51933   0.22044   0.00000  Uiso   1.00
C42    C     0.78450   0.52248   0.28344   0.00000  Uiso   1.00
C43    C     0.51840   0.51903   0.48144   0.00000  Uiso   1.00
C44    C     0.55666   0.52197   0.48209   0.00000  Uiso   1.00
C45    C     0.56692   0.50214   0.67641   0.00000  Uiso   1.00
C46    C     0.60488   0.50560   0.68424   0.00000  Uiso   1.00
C47    C     0.63401   0.52922   0.49366   0.00000  Uiso   1.00
C48    C     0.62460   0.54949   0.29736   0.00000  Uiso   1.00
C49    C     0.58653   0.54594   0.29315   0.00000  Uiso   1.00
N50    N     0.67000   0.53170   0.51280   0.00000  Uiso   1.00
C51    C     0.69540   0.53545   0.31402   0.00000  Uiso   1.00
C52    C     0.96323   0.52009   0.48218   0.00000  Uiso   1.00
C53    C     0.95799   0.54616   0.65669   0.00000  Uiso   1.00
C54    C     0.92329   0.54940   0.65098   0.00000  Uiso   1.00
C55    C     0.89235   0.52656   0.46746   0.00000  Uiso   1.00
C56    C     0.89665   0.50013   0.29557   0.00000  Uiso   1.00
C57    C     0.93139   0.49710   0.30456   0.00000  Uiso   1.00
N58    N     0.85839   0.52813   0.43978   0.00000  Uiso   1.00
C59    C     0.84452   0.54932   0.57143   0.00000  Uiso   1.00
C60    C     0.80769   0.54611   0.50212   0.00000  Uiso   1.00
H61    H     0.80888   0.58444   0.81254   0.00000  Uiso   1.00
H62    H     0.74562   0.57837   0.70872   0.00000  Uiso   1.00
H63    H     0.73151   0.50196   0.06097   0.00000  Uiso   1.00
H64    H     0.79427   0.50726   0.16700   0.00000  Uiso   1.00
H65    H     0.54639   0.48487   0.81375   0.00000  Uiso   1.00
H66    H     0.61121   0.49069   0.82836   0.00000  Uiso   1.00
H67    H     0.64558   0.56721   0.15913   0.00000  Uiso   1.00
H68    H     0.58079   0.56127   0.15093   0.00000  Uiso   1.00
H69    H     0.68710   0.53386   0.11716   0.00000  Uiso   1.00
H70    H     0.97982   0.56356   0.78947   0.00000  Uiso   1.00
H71    H     0.92093   0.56864   0.78003   0.00000  Uiso   1.00
H72    H     0.87444   0.48301   0.16204   0.00000  Uiso   1.00
H73    H     0.93321   0.47768   0.17920   0.00000  Uiso   1.00
H74    H     0.86086   0.56789   0.72501   0.00000  Uiso   1.00
C75    C     0.43317   0.22605   0.65398   0.00000  Uiso   1.00
C76    C     0.43669   0.19238   0.59332   0.00000  Uiso   1.00
C77    C     0.46055   0.19315   0.37609   0.00000  Uiso   1.00
C78    C     0.48067   0.22822   0.22044   0.00000  Uiso   1.00
C79    C     0.47752   0.26202   0.28344   0.00000  Uiso   1.00
C80    C     0.48097   0.99937   0.48144   0.00000  Uiso   1.00
C81    C     0.47803   0.03469   0.48209   0.00000  Uiso   1.00
C82    C     0.49786   0.06478   0.67641   0.00000  Uiso   1.00
C83    C     0.49440   0.09928   0.68424   0.00000  Uiso   1.00
C84    C     0.47078   0.10479   0.49366   0.00000  Uiso   1.00
C85    C     0.45051   0.07511   0.29736   0.00000  Uiso   1.00
C86    C     0.45406   0.04059   0.29315   0.00000  Uiso   1.00
N87    N     0.46830   0.13830   0.51280   0.00000  Uiso   1.00
C88    C     0.46455   0.15995   0.31402   0.00000  Uiso   1.00
C89    C     0.47991   0.44314   0.48218   0.00000  Uiso   1.00
C90    C     0.45384   0.41183   0.65669   0.00000  Uiso   1.00
C91    C     0.45060   0.37389   0.65098   0.00000  Uiso   1.00
C92    C     0.47344   0.36579   0.46746   0.00000  Uiso   1.00
C93    C     0.49987   0.39652   0.29557   0.00000  Uiso   1.00
C94    C     0.50290   0.43429   0.30456   0.00000  Uiso   1.00
N95    N     0.47187   0.33026   0.43978   0.00000  Uiso   1.00
C96    C     0.45068   0.29520   0.57143   0.00000  Uiso   1.00
C97    C     0.45389   0.26158   0.50212   0.00000  Uiso   1.00
H98    H     0.41556   0.22444   0.81254   0.00000  Uiso   1.00
H99    H     0.42163   0.16725   0.70872   0.00000  Uiso   1.00
H100   H     0.49804   0.22955   0.06097   0.00000  Uiso   1.00
H101   H     0.49274   0.28701   0.16700   0.00000  Uiso   1.00
H102   H     0.51513   0.06152   0.81375   0.00000  Uiso   1.00
H103   H     0.50931   0.12052   0.82836   0.00000  Uiso   1.00
H104   H     0.43279   0.07837   0.15913   0.00000  Uiso   1.00
H105   H     0.43873   0.01952   0.15093   0.00000  Uiso   1.00
H106   H     0.46614   0.15324   0.11716   0.00000  Uiso   1.00
H107   H     0.43644   0.41626   0.78947   0.00000  Uiso   1.00
H108   H     0.43136   0.35229   0.78003   0.00000  Uiso   1.00
H109   H     0.51699   0.39143   0.16204   0.00000  Uiso   1.00
H110   H     0.52232   0.45553   0.17920   0.00000  Uiso   1.00
H111   H     0.43211   0.29297   0.72501   0.00000  Uiso   1.00
C112   C     0.22605   0.79288   0.65398   0.00000  Uiso   1.00
C113   C     0.19238   0.75569   0.59332   0.00000  Uiso   1.00
C114   C     0.19315   0.73260   0.37609   0.00000  Uiso   1.00
C115   C     0.22822   0.74755   0.22044   0.00000  Uiso   1.00
C116   C     0.26202   0.78450   0.28344   0.00000  Uiso   1.00
C117   C     0.99937   0.51840   0.48144   0.00000  Uiso   1.00
C118   C     0.03469   0.55666   0.48209   0.00000  Uiso   1.00
C119   C     0.06478   0.56692   0.67641   0.00000  Uiso   1.00
C120   C     0.09928   0.60488   0.68424   0.00000  Uiso   1.00
C121   C     0.10479   0.63401   0.49366   0.00000  Uiso   1.00
C122   C     0.07511   0.62460   0.29736   0.00000  Uiso   1.00
C123   C     0.04059   0.58653   0.29315   0.00000  Uiso   1.00
N124   N     0.13830   0.67000   0.51280   0.00000  Uiso   1.00
C125   C     0.15995   0.69540   0.31402   0.00000  Uiso   1.00
C126   C     0.44314   0.96323   0.48218   0.00000  Uiso   1.00
C127   C     0.41183   0.95799   0.65669   0.00000  Uiso   1.00
C128   C     0.37389   0.92329   0.65098   0.00000  Uiso   1.00
C129   C     0.36579   0.89235   0.46746   0.00000  Uiso   1.00
C130   C     0.39652   0.89665   0.29557   0.00000  Uiso   1.00
C131   C     0.43429   0.93139   0.30456   0.00000  Uiso   1.00
N132   N     0.33026   0.85839   0.43978   0.00000  Uiso   1.00
C133   C     0.29520   0.84452   0.57143   0.00000  Uiso   1.00
C134   C     0.26158   0.80769   0.50212   0.00000  Uiso   1.00
H135   H     0.22444   0.80888   0.81254   0.00000  Uiso   1.00
H136   H     0.16725   0.74562   0.70872   0.00000  Uiso   1.00
H137   H     0.22955   0.73151   0.06097   0.00000  Uiso   1.00
H138   H     0.28701   0.79427   0.16700   0.00000  Uiso   1.00
H139   H     0.06152   0.54639   0.81375   0.00000  Uiso   1.00
H140   H     0.12052   0.61121   0.82836   0.00000  Uiso   1.00
H141   H     0.07837   0.64558   0.15913   0.00000  Uiso   1.00
H142   H     0.01952   0.58079   0.15093   0.00000  Uiso   1.00
H143   H     0.15324   0.68710   0.11716   0.00000  Uiso   1.00
H144   H     0.41626   0.97982   0.78947   0.00000  Uiso   1.00
H145   H     0.35229   0.92093   0.78003   0.00000  Uiso   1.00
H146   H     0.39143   0.87444   0.16204   0.00000  Uiso   1.00
H147   H     0.45553   0.93321   0.17920   0.00000  Uiso   1.00
H148   H     0.29297   0.86086   0.72501   0.00000  Uiso   1.00
C149   C     0.20712   0.43317   0.65398   0.00000  Uiso   1.00
C150   C     0.24431   0.43669   0.59332   0.00000  Uiso   1.00
C151   C     0.26740   0.46055   0.37609   0.00000  Uiso   1.00
C152   C     0.25245   0.48067   0.22044   0.00000  Uiso   1.00
C153   C     0.21550   0.47752   0.28344   0.00000  Uiso   1.00
C154   C     0.48160   0.48097   0.48144   0.00000  Uiso   1.00
C155   C     0.44334   0.47803   0.48209   0.00000  Uiso   1.00
C156   C     0.43308   0.49786   0.67641   0.00000  Uiso   1.00
C157   C     0.39512   0.49440   0.68424   0.00000  Uiso   1.00
C158   C     0.36599   0.47078   0.49366   0.00000  Uiso   1.00
C159   C     0.37540   0.45051   0.29736   0.00000  Uiso   1.00
C160   C     0.41347   0.45406   0.29315   0.00000  Uiso   1.00
N161   N     0.33000   0.46830   0.51280   0.00000  Uiso   1.00
C162   C     0.30460   0.46455   0.31402   0.00000  Uiso   1.00
C163   C     0.03677   0.47991   0.48218   0.00000  Uiso   1.00
C164   C     0.04201   0.45384   0.65669   0.00000  Uiso   1.00
C165   C     0.07671   0.45060   0.65098   0.00000  Uiso   1.00
C166   C     0.10765   0.47344   0.46746   0.00000  Uiso   1.00
C167   C     0.10335   0.49987   0.29557   0.00000  Uiso   1.00
C168   C     0.06861   0.50290   0.30456   0.00000  Uiso   1.00
N169   N     0.14161   0.47187   0.43978   0.00000  Uiso   1.00
C170   C     0.15548   0.45068   0.57143   0.00000  Uiso   1.00
C171   C     0.19231   0.45389   0.50212   0.00000  Uiso   1.00
H172   H     0.19112   0.41556   0.81254   0.00000  Uiso   1.00
H173   H     0.25438   0.42163   0.70872   0.00000  Uiso   1.00
H174   H     0.26849   0.49804   0.06097   0.00000  Uiso   1.00
H175   H     0.20573   0.49274   0.16700   0.00000  Uiso   1.00
H176   H     0.45361   0.51513   0.81375   0.00000  Uiso   1.00
H177   H     0.38879   0.50931   0.82836   0.00000  Uiso   1.00
H178   H     0.35442   0.43279   0.15913   0.00000  Uiso   1.00
H179   H     0.41921   0.43873   0.15093   0.00000  Uiso   1.00
H180   H     0.31290   0.46614   0.11716   0.00000  Uiso   1.00
H181   H     0.02018   0.43644   0.78947   0.00000  Uiso   1.00
H182   H     0.07907   0.43136   0.78003   0.00000  Uiso   1.00
H183   H     0.12556   0.51699   0.16204   0.00000  Uiso   1.00
H184   H     0.06679   0.52232   0.17920   0.00000  Uiso   1.00
H185   H     0.13914   0.43211   0.72501   0.00000  Uiso   1.00
C186   C     0.56683   0.77395   0.65398   0.00000  Uiso   1.00
C187   C     0.56331   0.80762   0.59332   0.00000  Uiso   1.00
C188   C     0.53945   0.80685   0.37609   0.00000  Uiso   1.00
C189   C     0.51933   0.77178   0.22044   0.00000  Uiso   1.00
C190   C     0.52248   0.73798   0.28344   0.00000  Uiso   1.00
C191   C     0.51903   0.00063   0.48144   0.00000  Uiso   1.00
C192   C     0.52197   0.96531   0.48209   0.00000  Uiso   1.00
C193   C     0.50214   0.93522   0.67641   0.00000  Uiso   1.00
C194   C     0.50560   0.90072   0.68424   0.00000  Uiso   1.00
C195   C     0.52922   0.89521   0.49366   0.00000  Uiso   1.00
C196   C     0.54949   0.92489   0.29736   0.00000  Uiso   1.00
C197   C     0.54594   0.95941   0.29315   0.00000  Uiso   1.00
N198   N     0.53170   0.86170   0.51280   0.00000  Uiso   1.00
C199   C     0.53545   0.84005   0.31402   0.00000  Uiso   1.00
C200   C     0.52009   0.55686   0.48218   0.00000  Uiso   1.00
C201   C     0.54616   0.58817   0.65669   0.00000  Uiso   1.00
C202   C     0.54940   0.62611   0.65098   0.00000  Uiso   1.00
C203   C     0.52656   0.63421   0.46746   0.00000  Uiso   1.00
C204   C     0.50013   0.60348   0.29557   0.00000  Uiso   1.00
C205   C     0.49710   0.56571   0.30456   0.00000  Uiso   1.00
N206   N     0.52813   0.66974   0.43978   0.00000  Uiso   1.00
C207   C     0.54932   0.70480   0.57143   0.00000  Uiso   1.00
C208   C     0.54611   0.73842   0.50212   0.00000  Uiso   1.00
H209   H     0.58444   0.77556   0.81254   0.00000  Uiso   1.00
H210   H     0.57837   0.83275   0.70872   0.00000  Uiso   1.00
H211   H     0.50196   0.77045   0.06097   0.00000  Uiso   1.00
H212   H     0.50726   0.71299   0.16700   0.00000  Uiso   1.00
H213   H     0.48487   0.93848   0.81375   0.00000  Uiso   1.00
H214   H     0.49069   0.87948   0.82836   0.00000  Uiso   1.00
H215   H     0.56721   0.92163   0.15913   0.00000  Uiso   1.00
H216   H     0.56127   0.98048   0.15093   0.00000  Uiso   1.00
H217   H     0.53386   0.84676   0.11716   0.00000  Uiso   1.00
H218   H     0.56356   0.58374   0.78947   0.00000  Uiso   1.00
H219   H     0.56864   0.64771   0.78003   0.00000  Uiso   1.00
H220   H     0.48301   0.60857   0.16204   0.00000  Uiso   1.00
H221   H     0.47768   0.54447   0.17920   0.00000  Uiso   1.00
H222   H     0.56789   0.70703   0.72501   0.00000  Uiso   1.00
loop_
_geom_bond_atom_site_label_1
_geom_bond_atom_site_label_2
_geom_bond_distance
_geom_bond_site_symmetry_2
_ccdc_geom_bond_type
C1     C2      1.407   .     D
C1     C23     1.414   .     S
C1     H24     1.024   .     S
C2     C3      1.412   .     S
C2     H25     1.023   .     S
C3     C4      1.410   .     D
C3     C14     1.401   .     S
C4     C5      1.407   .     S
C4     H26     1.025   .     S
C5     C23     1.416   .     D
C5     H27     1.023   .     S
C6     C163    1.430   .     D
C6     C7      1.425   1_455 S
C6     C117    1.447   1_455 S
C7     C8      1.409   .     S
C7     C12     1.417   .     D
C7     C6      1.425   1_655 S
C8     C9      1.405   .     D
C8     H28     1.007   .     S
C9     C10     1.405   .     S
C9     H29     1.024   .     S
C10    C11     1.410   .     D
C10    N13     1.349   .     S
C11    C12     1.408   .     S
C11    H30     1.022   .     S
C12    H31     1.017   .     S
N13    C14     1.350   .     D
C14    H32     1.024   .     S
C15    C16     1.420   .     S
C15    C20     1.412   .     D
C15    C191    1.430   .     S
C16    C17     1.408   .     D
C16    H33     1.017   .     S
C17    C18     1.410   .     S
C17    H34     1.021   .     S
C18    C19     1.405   .     D
C18    N21     1.351   .     S
C19    C20     1.405   .     S
C19    H35     1.024   .     S
C20    H36     1.005   .     S
N21    C22     1.352   .     D
C22    C23     1.408   .     S
C22    H37     1.023   .     S
C38    C39     1.407   .     D
C38    C60     1.414   .     S
C38    H61     1.024   .     S
C39    C40     1.412   .     S
C39    H62     1.023   .     S
C40    C41     1.410   .     D
C40    C51     1.401   .     S
C41    C42     1.407   .     S
C41    H63     1.025   .     S
C42    C60     1.416   .     D
C42    H64     1.023   .     S
C43    C44     1.425   .     S
C43    C200    1.430   .     D
C43    C154    1.447   .     S
C44    C45     1.409   .     S
C44    C49     1.417   .     D
C45    C46     1.405   .     D
C45    H65     1.007   .     S
C46    C47     1.405   .     S
C46    H66     1.024   .     S
C47    C48     1.410   .     D
C47    N50     1.349   .     S
C48    C49     1.408   .     S
C48    H67     1.022   .     S
C49    H68     1.017   .     S
N50    C51     1.350   .     D
C51    H69     1.024   .     S
C52    C53     1.420   .     S
C52    C57     1.412   .     D
C52    C117    1.430   .     S
C53    C54     1.408   .     D
C53    H70     1.017   .     S
C54    C55     1.410   .     S
C54    H71     1.021   .     S
C55    C56     1.405   .     D
C55    N58     1.351   .     S
C56    C57     1.405   .     S
C56    H72     1.024   .     S
C57    H73     1.005   .     S
N58    C59     1.352   .     D
C59    C60     1.408   .     S
C59    H74     1.023   .     S
C75    C76     1.407   .     D
C75    C97     1.414   .     S
C75    H98     1.024   .     S
C76    C77     1.412   .     S
C76    H99     1.023   .     S
C77    C78     1.410   .     D
C77    C88     1.401   .     S
C78    C79     1.407   .     S
C78    H100    1.025   .     S
C79    C97     1.416   .     D
C79    H101    1.023   .     S
C80    C126    1.430   .     D
C80    C81     1.425   1_565 S
C80    C191    1.447   1_565 S
C81    C82     1.409   .     D
C81    C86     1.417   .     S
C81    C80     1.425   1_545 S
C82    C83     1.405   .     S
C82    H102    1.007   .     S
C83    C84     1.405   .     D
C83    H103    1.024   .     S
C84    C85     1.410   .     S
C84    N87     1.349   .     S
C85    C86     1.408   .     D
C85    H104    1.022   .     S
C86    H105    1.017   .     S
N87    C88     1.350   .     D
C88    H106    1.024   .     S
C89    C90     1.420   .     S
C89    C94     1.412   .     D
C89    C154    1.430   .     S
C90    C91     1.408   .     D
C90    H107    1.017   .     S
C91    C92     1.410   .     S
C91    H108    1.021   .     S
C92    C93     1.405   .     D
C92    N95     1.351   .     S
C93    C94     1.405   .     S
C93    H109    1.024   .     S
C94    H110    1.005   .     S
N95    C96     1.352   .     D
C96    C97     1.408   .     S
C96    H111    1.023   .     S
C112   C113    1.407   .     D
C112   C134    1.414   .     S
C112   H135    1.024   .     S
C113   C114    1.412   .     S
C113   H136    1.023   .     S
C114   C115    1.410   .     S
C114   C125    1.401   .     D
C115   C116    1.407   .     D
C115   H137    1.025   .     S
C116   C134    1.416   .     S
C116   H138    1.023   .     S
C117   C6      1.447   1_655 S
C117   C118    1.425   1_655 D
C118   C119    1.409   .     S
C118   C123    1.417   .     S
C118   C117    1.425   1_455 D
C119   C120    1.405   .     D
C119   H139    1.007   .     S
C120   C121    1.405   .     S
C120   H140    1.024   .     S
C121   C122    1.410   .     S
C121   N124    1.349   .     D
C122   C123    1.408   .     D
C122   H141    1.022   .     S
C123   H142    1.017   .     S
N124   C125    1.350   .     S
C125   H143    1.024   .     S
C126   C127    1.420   .     S
C126   C131    1.412   .     S
C127   C128    1.408   .     D
C127   H144    1.017   .     S
C128   C129    1.410   .     S
C128   H145    1.021   .     S
C129   C130    1.405   .     S
C129   N132    1.351   .     D
C130   C131    1.405   .     D
C130   H146    1.024   .     S
C131   H147    1.005   .     S
N132   C133    1.352   .     S
C133   C134    1.408   .     D
C133   H148    1.023   .     S
C149   C150    1.407   .     D
C149   C171    1.414   .     S
C149   H172    1.024   .     S
C150   C151    1.412   .     S
C150   H173    1.023   .     S
C151   C152    1.410   .     S
C151   C162    1.401   .     D
C152   C153    1.407   .     D
C152   H174    1.025   .     S
C153   C171    1.416   .     S
C153   H175    1.023   .     S
C154   C155    1.425   .     D
C155   C156    1.409   .     S
C155   C160    1.417   .     S
C156   C157    1.405   .     D
C156   H176    1.007   .     S
C157   C158    1.405   .     S
C157   H177    1.024   .     S
C158   C159    1.410   .     S
C158   N161    1.349   .     D
C159   C160    1.408   .     D
C159   H178    1.022   .     S
C160   H179    1.017   .     S
N161   C162    1.350   .     S
C162   H180    1.024   .     S
C163   C164    1.420   .     S
C163   C168    1.412   .     S
C164   C165    1.408   .     D
C164   H181    1.017   .     S
C165   C166    1.410   .     S
C165   H182    1.021   .     S
C166   C167    1.405   .     S
C166   N169    1.351   .     D
C167   C168    1.405   .     D
C167   H183    1.024   .     S
C168   H184    1.005   .     S
N169   C170    1.352   .     S
C170   C171    1.408   .     D
C170   H185    1.023   .     S
C186   C187    1.407   .     D
C186   C208    1.414   .     S
C186   H209    1.024   .     S
C187   C188    1.412   .     S
C187   H210    1.023   .     S
C188   C189    1.410   .     S
C188   C199    1.401   .     D
C189   C190    1.407   .     D
C189   H211    1.025   .     S
C190   C208    1.416   .     S
C190   H212    1.023   .     S
C191   C80     1.447   1_545 S
C191   C192    1.425   1_545 D
C192   C193    1.409   .     S
C192   C197    1.417   .     S
C192   C191    1.425   1_565 D
C193   C194    1.405   .     D
C193   H213    1.007   .     S
C194   C195    1.405   .     S
C194   H214    1.024   .     S
C195   C196    1.410   .     S
C195   N198    1.349   .     D
C196   C197    1.408   .     D
C196   H215    1.022   .     S
C197   H216    1.017   .     S
N198   C199    1.350   .     S
C199   H217    1.024   .     S
C200   C201    1.420   .     S
C200   C205    1.412   .     S
C201   C202    1.408   .     D
C201   H218    1.017   .     S
C202   C203    1.410   .     S
C202   H219    1.021   .     S
C203   C204    1.405   .     S
C203   N206    1.351   .     D
C204   C205    1.405   .     D
C204   H220    1.024   .     S
C205   H221    1.005   .     S
N206   C207    1.352   .     S
C207   C208    1.408   .     D
C207   H222    1.023   .     S
