data_1162
_audit_creation_date              2023-09-08
_audit_creation_method            'Materials Studio'
_symmetry_space_group_name_H-M    'P1'
_symmetry_Int_Tables_number       1
_symmetry_cell_setting            triclinic
loop_
_symmetry_equiv_pos_as_xyz
  x,y,z
_cell_length_a                    35.6342
_cell_length_b                    31.6588
_cell_length_c                    3.9938
_cell_angle_alpha                 90.0000
_cell_angle_beta                  90.0000
_cell_angle_gamma                 90.0000
loop_
_atom_site_label
_atom_site_type_symbol
_atom_site_fract_x
_atom_site_fract_y
_atom_site_fract_z
_atom_site_U_iso_or_equiv
_atom_site_adp_type
_atom_site_occupancy
C1     C     0.03281   0.90997   0.59855   0.00000  Uiso   1.00
C2     C     0.03132   0.95474   0.62782   0.00000  Uiso   1.00
C3     C     0.06040   0.97801   0.78023   0.00000  Uiso   1.00
C4     C     0.27738   0.71745   0.49466   0.00000  Uiso   1.00
C5     C     0.28425   0.75649   0.33418   0.00000  Uiso   1.00
C6     C     0.24275   0.71137   0.65996   0.00000  Uiso   1.00
C7     C     0.30405   0.68509   0.49882   0.00000  Uiso   1.00
N8     N     0.33766   0.68962   0.34707   0.00000  Uiso   1.00
C9     C     0.43391   0.61389   0.35926   0.00000  Uiso   1.00
C10    C     0.43284   0.65268   0.18285   0.00000  Uiso   1.00
C11    C     0.39993   0.67728   0.17781   0.00000  Uiso   1.00
C12    C     0.36732   0.66334   0.34356   0.00000  Uiso   1.00
C13    C     0.36765   0.62379   0.50529   0.00000  Uiso   1.00
C14    C     0.40059   0.59995   0.51643   0.00000  Uiso   1.00
H15    H     0.08235   0.96332   0.89323   0.00000  Uiso   1.00
H16    H     0.30877   0.76200   0.20844   0.00000  Uiso   1.00
H17    H     0.23683   0.68377   0.78234   0.00000  Uiso   1.00
H18    H     0.29769   0.65797   0.62498   0.00000  Uiso   1.00
H19    H     0.45605   0.66344   0.05855   0.00000  Uiso   1.00
H20    H     0.39980   0.70562   0.05426   0.00000  Uiso   1.00
H21    H     0.34448   0.61216   0.62297   0.00000  Uiso   1.00
H22    H     0.39994   0.57231   0.64645   0.00000  Uiso   1.00
C23    C     0.53281   0.40997   0.59855   0.00000  Uiso   1.00
C24    C     0.53132   0.45474   0.62782   0.00000  Uiso   1.00
C25    C     0.56040   0.47801   0.78023   0.00000  Uiso   1.00
C26    C     0.77738   0.21745   0.49466   0.00000  Uiso   1.00
C27    C     0.78425   0.25649   0.33418   0.00000  Uiso   1.00
C28    C     0.74275   0.21137   0.65996   0.00000  Uiso   1.00
C29    C     0.80405   0.18509   0.49882   0.00000  Uiso   1.00
N30    N     0.83766   0.18962   0.34707   0.00000  Uiso   1.00
C31    C     0.93391   0.11389   0.35926   0.00000  Uiso   1.00
C32    C     0.93284   0.15268   0.18285   0.00000  Uiso   1.00
C33    C     0.89993   0.17728   0.17781   0.00000  Uiso   1.00
C34    C     0.86732   0.16334   0.34356   0.00000  Uiso   1.00
C35    C     0.86765   0.12379   0.50529   0.00000  Uiso   1.00
C36    C     0.90059   0.09995   0.51643   0.00000  Uiso   1.00
H37    H     0.58235   0.46332   0.89323   0.00000  Uiso   1.00
H38    H     0.80877   0.26200   0.20844   0.00000  Uiso   1.00
H39    H     0.73683   0.18377   0.78234   0.00000  Uiso   1.00
H40    H     0.79769   0.15797   0.62498   0.00000  Uiso   1.00
H41    H     0.95605   0.16344   0.05855   0.00000  Uiso   1.00
H42    H     0.89980   0.20562   0.05426   0.00000  Uiso   1.00
H43    H     0.84448   0.11216   0.62297   0.00000  Uiso   1.00
H44    H     0.89994   0.07231   0.64645   0.00000  Uiso   1.00
C45    C     0.96719   0.90997   0.40145   0.00000  Uiso   1.00
C46    C     0.96868   0.95474   0.37218   0.00000  Uiso   1.00
C47    C     0.93960   0.97801   0.21977   0.00000  Uiso   1.00
C48    C     0.72262   0.71745   0.50534   0.00000  Uiso   1.00
C49    C     0.71575   0.75649   0.66582   0.00000  Uiso   1.00
C50    C     0.75725   0.71137   0.34004   0.00000  Uiso   1.00
C51    C     0.69595   0.68509   0.50118   0.00000  Uiso   1.00
N52    N     0.66234   0.68962   0.65293   0.00000  Uiso   1.00
C53    C     0.56609   0.61389   0.64074   0.00000  Uiso   1.00
C54    C     0.56716   0.65268   0.81715   0.00000  Uiso   1.00
C55    C     0.60007   0.67728   0.82219   0.00000  Uiso   1.00
C56    C     0.63268   0.66334   0.65644   0.00000  Uiso   1.00
C57    C     0.63235   0.62379   0.49471   0.00000  Uiso   1.00
C58    C     0.59941   0.59995   0.48357   0.00000  Uiso   1.00
H59    H     0.91765   0.96332   0.10677   0.00000  Uiso   1.00
H60    H     0.69123   0.76200   0.79156   0.00000  Uiso   1.00
H61    H     0.76317   0.68377   0.21766   0.00000  Uiso   1.00
H62    H     0.70231   0.65797   0.37502   0.00000  Uiso   1.00
H63    H     0.54395   0.66344   0.94145   0.00000  Uiso   1.00
H64    H     0.60020   0.70562   0.94574   0.00000  Uiso   1.00
H65    H     0.65552   0.61216   0.37703   0.00000  Uiso   1.00
H66    H     0.60006   0.57231   0.35355   0.00000  Uiso   1.00
C67    C     0.46719   0.40997   0.40145   0.00000  Uiso   1.00
C68    C     0.46868   0.45474   0.37218   0.00000  Uiso   1.00
C69    C     0.43960   0.47801   0.21977   0.00000  Uiso   1.00
C70    C     0.22262   0.21745   0.50534   0.00000  Uiso   1.00
C71    C     0.21575   0.25649   0.66582   0.00000  Uiso   1.00
C72    C     0.25725   0.21137   0.34004   0.00000  Uiso   1.00
C73    C     0.19595   0.18509   0.50118   0.00000  Uiso   1.00
N74    N     0.16234   0.18962   0.65293   0.00000  Uiso   1.00
C75    C     0.06609   0.11389   0.64074   0.00000  Uiso   1.00
C76    C     0.06716   0.15268   0.81715   0.00000  Uiso   1.00
C77    C     0.10007   0.17728   0.82219   0.00000  Uiso   1.00
C78    C     0.13268   0.16334   0.65644   0.00000  Uiso   1.00
C79    C     0.13235   0.12379   0.49471   0.00000  Uiso   1.00
C80    C     0.09941   0.09995   0.48357   0.00000  Uiso   1.00
H81    H     0.41765   0.46332   0.10677   0.00000  Uiso   1.00
H82    H     0.19123   0.26200   0.79156   0.00000  Uiso   1.00
H83    H     0.26317   0.18377   0.21766   0.00000  Uiso   1.00
H84    H     0.20231   0.15797   0.37502   0.00000  Uiso   1.00
H85    H     0.04395   0.16344   0.94145   0.00000  Uiso   1.00
H86    H     0.10020   0.20562   0.94574   0.00000  Uiso   1.00
H87    H     0.15552   0.11216   0.37703   0.00000  Uiso   1.00
H88    H     0.10006   0.07231   0.35355   0.00000  Uiso   1.00
C89    C     0.96719   0.09003   0.40145   0.00000  Uiso   1.00
C90    C     0.96868   0.04526   0.37218   0.00000  Uiso   1.00
C91    C     0.93960   0.02199   0.21977   0.00000  Uiso   1.00
C92    C     0.72262   0.28255   0.50534   0.00000  Uiso   1.00
C93    C     0.71575   0.24351   0.66582   0.00000  Uiso   1.00
C94    C     0.75725   0.28863   0.34004   0.00000  Uiso   1.00
C95    C     0.69595   0.31491   0.50118   0.00000  Uiso   1.00
N96    N     0.66234   0.31038   0.65293   0.00000  Uiso   1.00
C97    C     0.56609   0.38611   0.64074   0.00000  Uiso   1.00
C98    C     0.56716   0.34732   0.81715   0.00000  Uiso   1.00
C99    C     0.60007   0.32272   0.82219   0.00000  Uiso   1.00
C100   C     0.63268   0.33666   0.65644   0.00000  Uiso   1.00
C101   C     0.63235   0.37621   0.49471   0.00000  Uiso   1.00
C102   C     0.59941   0.40005   0.48357   0.00000  Uiso   1.00
H103   H     0.91765   0.03668   0.10677   0.00000  Uiso   1.00
H104   H     0.69123   0.23800   0.79156   0.00000  Uiso   1.00
H105   H     0.76317   0.31623   0.21766   0.00000  Uiso   1.00
H106   H     0.70231   0.34203   0.37502   0.00000  Uiso   1.00
H107   H     0.54395   0.33656   0.94145   0.00000  Uiso   1.00
H108   H     0.60020   0.29438   0.94574   0.00000  Uiso   1.00
H109   H     0.65552   0.38784   0.37703   0.00000  Uiso   1.00
H110   H     0.60006   0.42769   0.35355   0.00000  Uiso   1.00
C111   C     0.46719   0.59003   0.40145   0.00000  Uiso   1.00
C112   C     0.46868   0.54526   0.37218   0.00000  Uiso   1.00
C113   C     0.43960   0.52199   0.21977   0.00000  Uiso   1.00
C114   C     0.22262   0.78255   0.50534   0.00000  Uiso   1.00
C115   C     0.21575   0.74351   0.66582   0.00000  Uiso   1.00
C116   C     0.25725   0.78863   0.34004   0.00000  Uiso   1.00
C117   C     0.19595   0.81491   0.50118   0.00000  Uiso   1.00
N118   N     0.16234   0.81038   0.65293   0.00000  Uiso   1.00
C119   C     0.06609   0.88611   0.64074   0.00000  Uiso   1.00
C120   C     0.06716   0.84732   0.81715   0.00000  Uiso   1.00
C121   C     0.10007   0.82272   0.82219   0.00000  Uiso   1.00
C122   C     0.13268   0.83666   0.65644   0.00000  Uiso   1.00
C123   C     0.13235   0.87621   0.49471   0.00000  Uiso   1.00
C124   C     0.09941   0.90005   0.48357   0.00000  Uiso   1.00
H125   H     0.41765   0.53668   0.10677   0.00000  Uiso   1.00
H126   H     0.19123   0.73800   0.79156   0.00000  Uiso   1.00
H127   H     0.26317   0.81623   0.21766   0.00000  Uiso   1.00
H128   H     0.20231   0.84203   0.37502   0.00000  Uiso   1.00
H129   H     0.04395   0.83656   0.94145   0.00000  Uiso   1.00
H130   H     0.10020   0.79438   0.94574   0.00000  Uiso   1.00
H131   H     0.15552   0.88784   0.37703   0.00000  Uiso   1.00
H132   H     0.10006   0.92769   0.35355   0.00000  Uiso   1.00
C133   C     0.03281   0.09003   0.59855   0.00000  Uiso   1.00
C134   C     0.03132   0.04526   0.62782   0.00000  Uiso   1.00
C135   C     0.06040   0.02199   0.78023   0.00000  Uiso   1.00
C136   C     0.27738   0.28255   0.49466   0.00000  Uiso   1.00
C137   C     0.28425   0.24351   0.33418   0.00000  Uiso   1.00
C138   C     0.24275   0.28863   0.65996   0.00000  Uiso   1.00
C139   C     0.30405   0.31491   0.49882   0.00000  Uiso   1.00
N140   N     0.33766   0.31038   0.34707   0.00000  Uiso   1.00
C141   C     0.43391   0.38611   0.35926   0.00000  Uiso   1.00
C142   C     0.43284   0.34732   0.18285   0.00000  Uiso   1.00
C143   C     0.39993   0.32272   0.17781   0.00000  Uiso   1.00
C144   C     0.36732   0.33666   0.34356   0.00000  Uiso   1.00
C145   C     0.36765   0.37621   0.50529   0.00000  Uiso   1.00
C146   C     0.40059   0.40005   0.51643   0.00000  Uiso   1.00
H147   H     0.08235   0.03668   0.89323   0.00000  Uiso   1.00
H148   H     0.30877   0.23800   0.20844   0.00000  Uiso   1.00
H149   H     0.23683   0.31623   0.78234   0.00000  Uiso   1.00
H150   H     0.29769   0.34203   0.62498   0.00000  Uiso   1.00
H151   H     0.45605   0.33656   0.05855   0.00000  Uiso   1.00
H152   H     0.39980   0.29438   0.05426   0.00000  Uiso   1.00
H153   H     0.34448   0.38784   0.62297   0.00000  Uiso   1.00
H154   H     0.39994   0.42769   0.64645   0.00000  Uiso   1.00
C155   C     0.53281   0.59003   0.59855   0.00000  Uiso   1.00
C156   C     0.53132   0.54526   0.62782   0.00000  Uiso   1.00
C157   C     0.56040   0.52199   0.78023   0.00000  Uiso   1.00
C158   C     0.77738   0.78255   0.49466   0.00000  Uiso   1.00
C159   C     0.78425   0.74351   0.33418   0.00000  Uiso   1.00
C160   C     0.74275   0.78863   0.65996   0.00000  Uiso   1.00
C161   C     0.80405   0.81491   0.49882   0.00000  Uiso   1.00
N162   N     0.83766   0.81038   0.34707   0.00000  Uiso   1.00
C163   C     0.93391   0.88611   0.35926   0.00000  Uiso   1.00
C164   C     0.93284   0.84732   0.18285   0.00000  Uiso   1.00
C165   C     0.89993   0.82272   0.17781   0.00000  Uiso   1.00
C166   C     0.86732   0.83666   0.34356   0.00000  Uiso   1.00
C167   C     0.86765   0.87621   0.50529   0.00000  Uiso   1.00
C168   C     0.90059   0.90005   0.51643   0.00000  Uiso   1.00
H169   H     0.58235   0.53668   0.89323   0.00000  Uiso   1.00
H170   H     0.80877   0.73800   0.20844   0.00000  Uiso   1.00
H171   H     0.73683   0.81623   0.78234   0.00000  Uiso   1.00
H172   H     0.79769   0.84203   0.62498   0.00000  Uiso   1.00
H173   H     0.95605   0.83656   0.05855   0.00000  Uiso   1.00
H174   H     0.89980   0.79438   0.05426   0.00000  Uiso   1.00
H175   H     0.84448   0.88784   0.62297   0.00000  Uiso   1.00
H176   H     0.89994   0.92769   0.64645   0.00000  Uiso   1.00
C177   C     0.00000   0.11156   0.50000   0.00000  Uiso   1.00
C178   C     0.00000   0.97741   0.50000   0.00000  Uiso   1.00
H179   H     0.00000   0.14387   0.50000   0.00000  Uiso   1.00
C180   C     0.50000   0.61156   0.50000   0.00000  Uiso   1.00
C181   C     0.50000   0.47741   0.50000   0.00000  Uiso   1.00
H182   H     0.50000   0.64387   0.50000   0.00000  Uiso   1.00
C183   C     0.00000   0.88844   0.50000   0.00000  Uiso   1.00
C184   C     0.00000   0.02259   0.50000   0.00000  Uiso   1.00
H185   H     0.00000   0.85613   0.50000   0.00000  Uiso   1.00
C186   C     0.50000   0.38844   0.50000   0.00000  Uiso   1.00
C187   C     0.50000   0.52259   0.50000   0.00000  Uiso   1.00
H188   H     0.50000   0.35613   0.50000   0.00000  Uiso   1.00
loop_
_geom_bond_atom_site_label_1
_geom_bond_atom_site_label_2
_geom_bond_distance
_geom_bond_site_symmetry_2
_ccdc_geom_bond_type
C1     C2      1.423   .     S
C1     C183    1.409   .     S
C1     C119    1.416   .     D
C2     C3      1.410   .     D
C2     C178    1.422   .     S
C3     H15     1.016   .     S
C3     C135    1.392   1_565 S
C4     C5      1.414   .     S
C4     C6      1.413   .     S
C4     C7      1.398   .     D
C5     H16     1.023   .     S
C5     C116    1.401   .     D
C6     H17     1.023   .     S
C6     C115    1.401   .     D
C7     N8      1.350   .     S
C7     H18     1.021   .     S
N8     C12     1.345   .     D
C9     C10     1.416   .     S
C9     C14     1.414   .     S
C9     C111    1.416   .     D
C10    C11     1.408   .     D
C10    H19     1.023   .     S
C11    C12     1.408   .     S
C11    H20     1.024   .     S
C12    C13     1.409   .     S
C13    C14     1.396   .     D
C13    H21     1.019   .     S
C14    H22     1.018   .     S
C23    C24     1.423   .     S
C23    C186    1.409   .     D
C23    C97     1.416   .     S
C24    C25     1.410   .     S
C24    C181    1.422   .     D
C25    H37     1.016   .     S
C25    C157    1.392   .     D
C26    C27     1.414   .     D
C26    C28     1.413   .     S
C26    C29     1.398   .     S
C27    H38     1.023   .     S
C27    C94     1.401   .     S
C28    H39     1.023   .     S
C28    C93     1.401   .     D
C29    N30     1.350   .     D
C29    H40     1.021   .     S
N30    C34     1.345   .     S
C31    C32     1.416   .     D
C31    C36     1.414   .     S
C31    C89     1.416   .     S
C32    C33     1.408   .     S
C32    H41     1.023   .     S
C33    C34     1.408   .     D
C33    H42     1.024   .     S
C34    C35     1.409   .     S
C35    C36     1.396   .     D
C35    H43     1.019   .     S
C36    H44     1.018   .     S
C45    C46     1.423   .     S
C45    C163    1.416   .     S
C45    C183    1.409   1_655 D
C46    C47     1.410   .     S
C46    C178    1.422   1_655 D
C47    H59     1.016   .     S
C47    C91     1.392   1_565 D
C48    C49     1.414   .     S
C48    C50     1.413   .     D
C48    C51     1.398   .     S
C49    H60     1.023   .     S
C49    C160    1.401   .     D
C50    H61     1.023   .     S
C50    C159    1.401   .     S
C51    N52     1.350   .     D
C51    H62     1.021   .     S
N52    C56     1.345   .     S
C53    C54     1.416   .     D
C53    C58     1.414   .     S
C53    C155    1.416   .     S
C54    C55     1.408   .     S
C54    H63     1.023   .     S
C55    C56     1.408   .     D
C55    H64     1.024   .     S
C56    C57     1.409   .     S
C57    C58     1.396   .     D
C57    H65     1.019   .     S
C58    H66     1.018   .     S
C67    C68     1.423   .     S
C67    C186    1.409   .     S
C67    C141    1.416   .     D
C68    C69     1.410   .     D
C68    C181    1.422   .     S
C69    H81     1.016   .     S
C69    C113    1.392   .     S
C70    C71     1.414   .     S
C70    C72     1.413   .     S
C70    C73     1.398   .     D
C71    H82     1.023   .     S
C71    C138    1.401   .     D
C72    H83     1.023   .     S
C72    C137    1.401   .     D
C73    N74     1.350   .     S
C73    H84     1.021   .     S
N74    C78     1.345   .     D
C75    C76     1.416   .     S
C75    C80     1.414   .     S
C75    C133    1.416   .     D
C76    C77     1.408   .     D
C76    H85     1.023   .     S
C77    C78     1.408   .     S
C77    H86     1.024   .     S
C78    C79     1.409   .     S
C79    C80     1.396   .     D
C79    H87     1.019   .     S
C80    H88     1.018   .     S
C89    C90     1.423   .     S
C89    C177    1.409   1_655 D
C90    C91     1.410   .     S
C90    C184    1.422   1_655 D
C91    H103    1.016   .     S
C91    C47     1.392   1_545 D
C92    C93     1.414   .     S
C92    C94     1.413   .     D
C92    C95     1.398   .     S
C93    H104    1.023   .     S
C94    H105    1.023   .     S
C95    N96     1.350   .     D
C95    H106    1.021   .     S
N96    C100    1.345   .     S
C97    C98     1.416   .     D
C97    C102    1.414   .     S
C98    C99     1.408   .     S
C98    H107    1.023   .     S
C99    C100    1.408   .     D
C99    H108    1.024   .     S
C100   C101    1.409   .     S
C101   C102    1.396   .     D
C101   H109    1.019   .     S
C102   H110    1.018   .     S
C111   C112    1.423   .     S
C111   C180    1.409   .     S
C112   C113    1.410   .     D
C112   C187    1.422   .     S
C113   H125    1.016   .     S
C114   C115    1.414   .     S
C114   C116    1.413   .     S
C114   C117    1.398   .     D
C115   H126    1.023   .     S
C116   H127    1.023   .     S
C117   N118    1.350   .     S
C117   H128    1.021   .     S
N118   C122    1.345   .     D
C119   C120    1.416   .     S
C119   C124    1.414   .     S
C120   C121    1.408   .     D
C120   H129    1.023   .     S
C121   C122    1.408   .     S
C121   H130    1.024   .     S
C122   C123    1.409   .     S
C123   C124    1.396   .     D
C123   H131    1.019   .     S
C124   H132    1.018   .     S
C133   C134    1.423   .     S
C133   C177    1.409   .     S
C134   C135    1.410   .     D
C134   C184    1.422   .     S
C135   H147    1.016   .     S
C135   C3      1.392   1_545 S
C136   C137    1.414   .     S
C136   C138    1.413   .     S
C136   C139    1.398   .     D
C137   H148    1.023   .     S
C138   H149    1.023   .     S
C139   N140    1.350   .     S
C139   H150    1.021   .     S
N140   C144    1.345   .     D
C141   C142    1.416   .     S
C141   C146    1.414   .     S
C142   C143    1.408   .     D
C142   H151    1.023   .     S
C143   C144    1.408   .     S
C143   H152    1.024   .     S
C144   C145    1.409   .     S
C145   C146    1.396   .     D
C145   H153    1.019   .     S
C146   H154    1.018   .     S
C155   C156    1.423   .     S
C155   C180    1.409   .     D
C156   C157    1.410   .     S
C156   C187    1.422   .     D
C157   H169    1.016   .     S
C158   C159    1.414   .     D
C158   C160    1.413   .     S
C158   C161    1.398   .     S
C159   H170    1.023   .     S
C160   H171    1.023   .     S
C161   N162    1.350   .     D
C161   H172    1.021   .     S
N162   C166    1.345   .     S
C163   C164    1.416   .     S
C163   C168    1.414   .     D
C164   C165    1.408   .     D
C164   H173    1.023   .     S
C165   C166    1.408   .     S
C165   H174    1.024   .     S
C166   C167    1.409   .     D
C167   C168    1.396   .     S
C167   H175    1.019   .     S
C168   H176    1.018   .     S
C177   H179    1.023   .     S
C177   C89     1.409   1_455 D
C178   C46     1.422   1_455 D
C178   C184    1.430   1_565 S
C180   H182    1.023   .     S
C181   C187    1.430   .     S
C183   H185    1.023   .     S
C183   C45     1.409   1_455 D
C184   C90     1.422   1_455 D
C184   C178    1.430   1_545 S
C186   H188    1.023   .     S
