data_1163
_audit_creation_date              2023-09-08
_audit_creation_method            'Materials Studio'
_symmetry_space_group_name_H-M    'P1'
_symmetry_Int_Tables_number       1
_symmetry_cell_setting            triclinic
loop_
_symmetry_equiv_pos_as_xyz
  x,y,z
_cell_length_a                    23.6100
_cell_length_b                    23.6100
_cell_length_c                    3.6500
_cell_angle_alpha                 90.0000
_cell_angle_beta                  90.0000
_cell_angle_gamma                 120.0000
loop_
_atom_site_label
_atom_site_type_symbol
_atom_site_fract_x
_atom_site_fract_y
_atom_site_fract_z
_atom_site_U_iso_or_equiv
_atom_site_adp_type
_atom_site_occupancy
C1     C     0.62576   0.36344   0.55408   0.00000  Uiso   1.00
C2     C     0.63656   0.26232   0.55408   0.00000  Uiso   1.00
C3     C     0.73768   0.37424   0.55408   0.00000  Uiso   1.00
C4     C     0.76834   0.43825   0.69540   0.00000  Uiso   1.00
C5     C     0.56175   0.33009   0.69540   0.00000  Uiso   1.00
C6     C     0.66991   0.23166   0.69540   0.00000  Uiso   1.00
C7     C     0.83635   0.47770   0.69305   0.00000  Uiso   1.00
C8     C     0.52230   0.35865   0.69305   0.00000  Uiso   1.00
C9     C     0.64135   0.16365   0.69305   0.00000  Uiso   1.00
C10    C     0.87530   0.45359   0.55453   0.00000  Uiso   1.00
C11    C     0.54641   0.42171   0.55453   0.00000  Uiso   1.00
C12    C     0.57829   0.12470   0.55453   0.00000  Uiso   1.00
C13    C     0.84570   0.38987   0.41510   0.00000  Uiso   1.00
C14    C     0.61013   0.45583   0.41510   0.00000  Uiso   1.00
C15    C     0.54417   0.15430   0.41510   0.00000  Uiso   1.00
C16    C     0.77765   0.35092   0.41263   0.00000  Uiso   1.00
C17    C     0.64908   0.42673   0.41263   0.00000  Uiso   1.00
C18    C     0.57327   0.22235   0.41263   0.00000  Uiso   1.00
C19    C     0.50423   0.45078   0.55749   0.00000  Uiso   1.00
C20    C     0.54922   0.05345   0.55749   0.00000  Uiso   1.00
C21    C     0.94655   0.49577   0.55749   0.00000  Uiso   1.00
N22    N     0.52637   0.51130   0.46575   0.00000  Uiso   1.00
N23    N     0.48870   0.01507   0.46575   0.00000  Uiso   1.00
N24    N     0.98493   0.47363   0.46575   0.00000  Uiso   1.00
C25    C     0.48656   0.54125   0.46157   0.00000  Uiso   1.00
C26    C     0.41862   0.50463   0.51482   0.00000  Uiso   1.00
C27    C     0.38112   0.53530   0.50902   0.00000  Uiso   1.00
C28    C     0.41077   0.60300   0.45130   0.00000  Uiso   1.00
C29    C     0.47871   0.63930   0.39789   0.00000  Uiso   1.00
C30    C     0.51622   0.60860   0.40202   0.00000  Uiso   1.00
C31    C     0.37111   0.63561   0.44861   0.00000  Uiso   1.00
C32    C     0.30262   0.59861   0.44870   0.00000  Uiso   1.00
H33    H     0.73670   0.45778   0.81319   0.00000  Uiso   1.00
H34    H     0.54222   0.27892   0.81319   0.00000  Uiso   1.00
H35    H     0.72108   0.26330   0.81319   0.00000  Uiso   1.00
H36    H     0.86014   0.52973   0.80451   0.00000  Uiso   1.00
H37    H     0.47027   0.33041   0.80451   0.00000  Uiso   1.00
H38    H     0.66959   0.13986   0.80451   0.00000  Uiso   1.00
H39    H     0.87720   0.36971   0.30331   0.00000  Uiso   1.00
H40    H     0.63029   0.50749   0.30331   0.00000  Uiso   1.00
H41    H     0.49251   0.12280   0.30331   0.00000  Uiso   1.00
H42    H     0.75362   0.29932   0.29469   0.00000  Uiso   1.00
H43    H     0.70068   0.45430   0.29469   0.00000  Uiso   1.00
H44    H     0.54570   0.24638   0.29469   0.00000  Uiso   1.00
H45    H     0.45086   0.41935   0.64244   0.00000  Uiso   1.00
H46    H     0.58065   0.03151   0.64244   0.00000  Uiso   1.00
H47    H     0.96849   0.54914   0.64244   0.00000  Uiso   1.00
H48    H     0.39402   0.44964   0.56298   0.00000  Uiso   1.00
H49    H     0.32594   0.50533   0.55137   0.00000  Uiso   1.00
H50    H     0.50342   0.69432   0.35076   0.00000  Uiso   1.00
H51    H     0.57131   0.63860   0.35660   0.00000  Uiso   1.00
H52    H     0.27734   0.54293   0.44884   0.00000  Uiso   1.00
N53    N     0.66667   0.33333   0.55411   0.00000  Uiso   1.00
C54    C     0.45875   0.94531   0.46157   0.00000  Uiso   1.00
C55    C     0.49537   0.91399   0.51482   0.00000  Uiso   1.00
C56    C     0.46470   0.84582   0.50902   0.00000  Uiso   1.00
C57    C     0.39700   0.80777   0.45130   0.00000  Uiso   1.00
C58    C     0.36070   0.83941   0.39789   0.00000  Uiso   1.00
C59    C     0.39140   0.90762   0.40202   0.00000  Uiso   1.00
C60    C     0.36439   0.73550   0.44861   0.00000  Uiso   1.00
C61    C     0.40139   0.70401   0.44870   0.00000  Uiso   1.00
H62    H     0.55036   0.94438   0.56298   0.00000  Uiso   1.00
H63    H     0.49467   0.82061   0.55137   0.00000  Uiso   1.00
H64    H     0.30568   0.80910   0.35076   0.00000  Uiso   1.00
H65    H     0.36140   0.93271   0.35660   0.00000  Uiso   1.00
H66    H     0.45707   0.73441   0.44884   0.00000  Uiso   1.00
C67    C     0.05469   0.51344   0.46157   0.00000  Uiso   1.00
C68    C     0.08601   0.58138   0.51482   0.00000  Uiso   1.00
C69    C     0.15418   0.61888   0.50902   0.00000  Uiso   1.00
C70    C     0.19223   0.58923   0.45130   0.00000  Uiso   1.00
C71    C     0.16059   0.52129   0.39789   0.00000  Uiso   1.00
C72    C     0.09238   0.48378   0.40202   0.00000  Uiso   1.00
C73    C     0.26450   0.62889   0.44861   0.00000  Uiso   1.00
C74    C     0.29599   0.69738   0.44870   0.00000  Uiso   1.00
H75    H     0.05562   0.60598   0.56298   0.00000  Uiso   1.00
H76    H     0.17939   0.67406   0.55137   0.00000  Uiso   1.00
H77    H     0.19090   0.49658   0.35076   0.00000  Uiso   1.00
H78    H     0.06729   0.42869   0.35660   0.00000  Uiso   1.00
H79    H     0.26559   0.72266   0.44884   0.00000  Uiso   1.00
loop_
_geom_bond_atom_site_label_1
_geom_bond_atom_site_label_2
_geom_bond_distance
_geom_bond_site_symmetry_2
_ccdc_geom_bond_type
C1     C5      1.407   .     D
C1     N53     1.458   .     S
C1     C17     1.407   .     S
C2     N53     1.458   .     S
C2     C6      1.407   .     D
C2     C18     1.407   .     S
C3     C4      1.407   .     D
C3     N53     1.458   .     S
C3     C16     1.407   .     S
C4     C7      1.397   .     S
C4     H33     1.140   .     S
C5     H34     1.140   .     S
C5     C8      1.397   .     S
C6     H35     1.140   .     S
C6     C9      1.397   .     S
C7     C10     1.396   .     D
C7     H36     1.140   .     S
C8     C11     1.396   .     D
C8     H37     1.140   .     S
C9     H38     1.140   .     S
C9     C12     1.396   .     D
C10    C21     1.465   .     S
C10    C13     1.400   .     S
C11    C19     1.465   .     S
C11    C14     1.400   .     S
C12    C20     1.465   .     S
C12    C15     1.400   .     S
C13    C16     1.396   .     D
C13    H39     1.140   .     S
C14    H40     1.140   .     S
C14    C17     1.396   .     D
C15    H41     1.140   .     S
C15    C18     1.396   .     D
C16    H42     1.140   .     S
C17    H43     1.140   .     S
C18    H44     1.140   .     S
C19    H45     1.140   .     S
C19    N22     1.296   .     D
C20    H46     1.140   .     S
C20    N23     1.296   .     D
C21    H47     1.140   .     S
C21    N24     1.296   .     D
N22    C25     1.431   .     S
N23    C54     1.431   1_545 S
N24    C67     1.431   1_655 S
C25    C30     1.397   .     D
C25    C26     1.404   .     S
C26    H48     1.140   .     S
C26    C27     1.396   .     D
C27    H49     1.140   .     S
C27    C28     1.404   .     S
C28    C31     1.480   .     S
C28    C29     1.404   .     D
C29    C30     1.397   .     S
C29    H50     1.140   .     S
C30    H51     1.140   .     S
C31    C61     1.402   .     S
C31    C32     1.402   .     D
C32    H52     1.140   .     S
C32    C73     1.402   .     S
C54    C59     1.397   .     S
C54    C55     1.404   .     D
C54    N23     1.431   1_565 S
C55    H62     1.140   .     S
C55    C56     1.396   .     S
C56    H63     1.140   .     S
C56    C57     1.404   .     D
C57    C58     1.404   .     S
C57    C60     1.480   .     S
C58    H64     1.140   .     S
C58    C59     1.397   .     D
C59    H65     1.140   .     S
C60    C74     1.402   .     S
C60    C61     1.402   .     D
C61    H66     1.140   .     S
C67    C72     1.397   .     D
C67    C68     1.404   .     S
C67    N24     1.431   1_455 S
C68    H75     1.140   .     S
C68    C69     1.396   .     D
C69    H76     1.140   .     S
C69    C70     1.404   .     S
C70    C71     1.404   .     D
C70    C73     1.480   .     S
C71    C72     1.397   .     S
C71    H77     1.140   .     S
C72    H78     1.140   .     S
C73    C74     1.402   .     D
C74    H79     1.140   .     S
