data_1164
_audit_creation_date              2023-09-08
_audit_creation_method            'Materials Studio'
_symmetry_space_group_name_H-M    'P1'
_symmetry_Int_Tables_number       1
_symmetry_cell_setting            triclinic
loop_
_symmetry_equiv_pos_as_xyz
  x,y,z
_cell_length_a                    23.5100
_cell_length_b                    23.5100
_cell_length_c                    3.6400
_cell_angle_alpha                 90.0000
_cell_angle_beta                  90.0000
_cell_angle_gamma                 120.0000
loop_
_atom_site_label
_atom_site_type_symbol
_atom_site_fract_x
_atom_site_fract_y
_atom_site_fract_z
_atom_site_U_iso_or_equiv
_atom_site_adp_type
_atom_site_occupancy
C1     C     0.62556   0.36355   0.55262   0.00000  Uiso   1.00
C2     C     0.63645   0.26201   0.55262   0.00000  Uiso   1.00
C3     C     0.73799   0.37444   0.55262   0.00000  Uiso   1.00
C4     C     0.76877   0.43878   0.69341   0.00000  Uiso   1.00
C5     C     0.56122   0.32999   0.69341   0.00000  Uiso   1.00
C6     C     0.67001   0.23123   0.69341   0.00000  Uiso   1.00
C7     C     0.83707   0.47843   0.69101   0.00000  Uiso   1.00
C8     C     0.52157   0.35864   0.69101   0.00000  Uiso   1.00
C9     C     0.64136   0.16293   0.69101   0.00000  Uiso   1.00
C10    C     0.87621   0.45419   0.55312   0.00000  Uiso   1.00
C11    C     0.54581   0.42202   0.55312   0.00000  Uiso   1.00
C12    C     0.57798   0.12379   0.55312   0.00000  Uiso   1.00
C13    C     0.84651   0.39014   0.41425   0.00000  Uiso   1.00
C14    C     0.60986   0.45637   0.41425   0.00000  Uiso   1.00
C15    C     0.54363   0.15349   0.41425   0.00000  Uiso   1.00
C16    C     0.77817   0.35101   0.41171   0.00000  Uiso   1.00
C17    C     0.64899   0.42716   0.41171   0.00000  Uiso   1.00
C18    C     0.57284   0.22183   0.41171   0.00000  Uiso   1.00
C19    C     0.50343   0.45119   0.55602   0.00000  Uiso   1.00
C20    C     0.54881   0.05224   0.55602   0.00000  Uiso   1.00
C21    C     0.94776   0.49657   0.55602   0.00000  Uiso   1.00
N22    N     0.52580   0.51214   0.46745   0.00000  Uiso   1.00
N23    N     0.48786   0.01366   0.46745   0.00000  Uiso   1.00
N24    N     0.98634   0.47420   0.46745   0.00000  Uiso   1.00
C25    C     0.48578   0.54218   0.46298   0.00000  Uiso   1.00
C26    C     0.41736   0.50515   0.50874   0.00000  Uiso   1.00
C27    C     0.37965   0.53592   0.50266   0.00000  Uiso   1.00
C28    C     0.40972   0.60403   0.45230   0.00000  Uiso   1.00
C29    C     0.47801   0.64084   0.40641   0.00000  Uiso   1.00
C30    C     0.51572   0.61004   0.41064   0.00000  Uiso   1.00
C31    C     0.37003   0.63657   0.44952   0.00000  Uiso   1.00
N32    N     0.30339   0.60022   0.44962   0.00000  Uiso   1.00
H33    H     0.73788   0.45936   0.81208   0.00000  Uiso   1.00
H34    H     0.54064   0.27852   0.81208   0.00000  Uiso   1.00
H35    H     0.72148   0.26212   0.81208   0.00000  Uiso   1.00
H36    H     0.86098   0.53073   0.80186   0.00000  Uiso   1.00
H37    H     0.46927   0.33025   0.80186   0.00000  Uiso   1.00
H38    H     0.66975   0.13902   0.80186   0.00000  Uiso   1.00
H39    H     0.87812   0.36983   0.30293   0.00000  Uiso   1.00
H40    H     0.63017   0.50830   0.30293   0.00000  Uiso   1.00
H41    H     0.49170   0.12188   0.30293   0.00000  Uiso   1.00
H42    H     0.75503   0.29930   0.29290   0.00000  Uiso   1.00
H43    H     0.70070   0.45573   0.29290   0.00000  Uiso   1.00
H44    H     0.54427   0.24497   0.29290   0.00000  Uiso   1.00
H45    H     0.44957   0.42015   0.63735   0.00000  Uiso   1.00
H46    H     0.57985   0.02942   0.63735   0.00000  Uiso   1.00
H47    H     0.97058   0.55043   0.63735   0.00000  Uiso   1.00
H48    H     0.39240   0.44976   0.55105   0.00000  Uiso   1.00
H49    H     0.32411   0.50563   0.53876   0.00000  Uiso   1.00
H50    H     0.50312   0.69627   0.36531   0.00000  Uiso   1.00
H51    H     0.57117   0.64054   0.37113   0.00000  Uiso   1.00
N52    N     0.66667   0.33333   0.55264   0.00000  Uiso   1.00
C53    C     0.45782   0.94360   0.46298   0.00000  Uiso   1.00
C54    C     0.49485   0.91221   0.50874   0.00000  Uiso   1.00
C55    C     0.46408   0.84373   0.50266   0.00000  Uiso   1.00
C56    C     0.39597   0.80569   0.45230   0.00000  Uiso   1.00
C57    C     0.35916   0.83717   0.40641   0.00000  Uiso   1.00
C58    C     0.38996   0.90568   0.41064   0.00000  Uiso   1.00
C59    C     0.36343   0.73346   0.44952   0.00000  Uiso   1.00
N60    N     0.39978   0.70317   0.44962   0.00000  Uiso   1.00
H61    H     0.55024   0.94263   0.55105   0.00000  Uiso   1.00
H62    H     0.49437   0.81848   0.53876   0.00000  Uiso   1.00
H63    H     0.30373   0.80686   0.36531   0.00000  Uiso   1.00
H64    H     0.35946   0.93063   0.37113   0.00000  Uiso   1.00
C65    C     0.05640   0.51422   0.46298   0.00000  Uiso   1.00
C66    C     0.08779   0.58264   0.50874   0.00000  Uiso   1.00
C67    C     0.15627   0.62035   0.50266   0.00000  Uiso   1.00
C68    C     0.19431   0.59028   0.45230   0.00000  Uiso   1.00
C69    C     0.16283   0.52199   0.40641   0.00000  Uiso   1.00
C70    C     0.09432   0.48428   0.41064   0.00000  Uiso   1.00
C71    C     0.26654   0.62997   0.44952   0.00000  Uiso   1.00
N72    N     0.29683   0.69661   0.44962   0.00000  Uiso   1.00
H73    H     0.05737   0.60760   0.55105   0.00000  Uiso   1.00
H74    H     0.18152   0.67589   0.53876   0.00000  Uiso   1.00
H75    H     0.19314   0.49688   0.36531   0.00000  Uiso   1.00
H76    H     0.06937   0.42883   0.37113   0.00000  Uiso   1.00
loop_
_geom_bond_atom_site_label_1
_geom_bond_atom_site_label_2
_geom_bond_distance
_geom_bond_site_symmetry_2
_ccdc_geom_bond_type
C1     C5      1.407   .     D
C1     N52     1.458   .     S
C1     C17     1.407   .     S
C2     N52     1.458   .     S
C2     C6      1.407   .     D
C2     C18     1.407   .     S
C3     C4      1.407   .     D
C3     N52     1.458   .     S
C3     C16     1.407   .     S
C4     C7      1.397   .     S
C4     H33     1.140   .     S
C5     H34     1.140   .     S
C5     C8      1.397   .     S
C6     H35     1.140   .     S
C6     C9      1.397   .     S
C7     C10     1.396   .     D
C7     H36     1.140   .     S
C8     C11     1.396   .     D
C8     H37     1.140   .     S
C9     H38     1.140   .     S
C9     C12     1.396   .     D
C10    C21     1.465   .     S
C10    C13     1.400   .     S
C11    C19     1.465   .     S
C11    C14     1.400   .     S
C12    C20     1.465   .     S
C12    C15     1.400   .     S
C13    C16     1.396   .     D
C13    H39     1.140   .     S
C14    H40     1.140   .     S
C14    C17     1.396   .     D
C15    H41     1.140   .     S
C15    C18     1.396   .     D
C16    H42     1.140   .     S
C17    H43     1.140   .     S
C18    H44     1.140   .     S
C19    H45     1.140   .     S
C19    N22     1.296   .     D
C20    H46     1.140   .     S
C20    N23     1.296   .     D
C21    H47     1.140   .     S
C21    N24     1.296   .     D
N22    C25     1.431   .     S
N23    C53     1.431   1_545 S
N24    C65     1.431   1_655 S
C25    C30     1.398   .     D
C25    C26     1.405   .     S
C26    H48     1.140   .     S
C26    C27     1.397   .     D
C27    H49     1.140   .     S
C27    C28     1.402   .     S
C28    C31     1.473   .     S
C28    C29     1.402   .     D
C29    C30     1.397   .     S
C29    H50     1.140   .     S
C30    H51     1.140   .     S
C31    N60     1.359   .     S
C31    N32     1.359   .     D
N32    C71     1.359   .     S
C53    C58     1.398   .     S
C53    C54     1.405   .     D
C53    N23     1.431   1_565 S
C54    H61     1.140   .     S
C54    C55     1.397   .     S
C55    H62     1.140   .     S
C55    C56     1.402   .     D
C56    C57     1.402   .     S
C56    C59     1.473   .     S
C57    H63     1.140   .     S
C57    C58     1.397   .     D
C58    H64     1.140   .     S
C59    N72     1.359   .     S
C59    N60     1.359   .     D
C65    C70     1.398   .     D
C65    C66     1.405   .     S
C65    N24     1.431   1_455 S
C66    H73     1.140   .     S
C66    C67     1.397   .     D
C67    H74     1.140   .     S
C67    C68     1.402   .     S
C68    C69     1.402   .     D
C68    C71     1.473   .     S
C69    C70     1.397   .     S
C69    H75     1.140   .     S
C70    H76     1.140   .     S
C71    N72     1.359   .     D
