data_1166
_audit_creation_date              2023-09-08
_audit_creation_method            'Materials Studio'
_symmetry_space_group_name_H-M    'P1'
_symmetry_Int_Tables_number       1
_symmetry_cell_setting            triclinic
loop_
_symmetry_equiv_pos_as_xyz
  x,y,z
_cell_length_a                    31.9559
_cell_length_b                    30.8745
_cell_length_c                    4.7232
_cell_angle_alpha                 90.0000
_cell_angle_beta                  92.3000
_cell_angle_gamma                 90.0000
loop_
_atom_site_label
_atom_site_type_symbol
_atom_site_fract_x
_atom_site_fract_y
_atom_site_fract_z
_atom_site_U_iso_or_equiv
_atom_site_adp_type
_atom_site_occupancy
C1     C     0.53132   0.89845   0.65062   0.00000  Uiso   1.00
C2     C     0.53132   0.94351   0.65039   0.00000  Uiso   1.00
C3     C     0.53834   0.80628   0.48513   0.00000  Uiso   1.00
C4     C     0.42867   0.82284   0.67113   0.00000  Uiso   1.00
C5     C     0.39105   0.80056   0.68279   0.00000  Uiso   1.00
C6     C     0.38454   0.76081   0.54111   0.00000  Uiso   1.00
C7     C     0.41781   0.74438   0.38437   0.00000  Uiso   1.00
C8     C     0.45533   0.76665   0.37066   0.00000  Uiso   1.00
C9     C     0.46160   0.03537   0.52457   0.00000  Uiso   1.00
C10    C     0.57029   0.01753   0.31449   0.00000  Uiso   1.00
C11    C     0.60842   0.03848   0.29437   0.00000  Uiso   1.00
C12    C     0.61676   0.07800   0.43477   0.00000  Uiso   1.00
C13    C     0.58445   0.09621   0.59200   0.00000  Uiso   1.00
C14    C     0.54618   0.07531   0.61264   0.00000  Uiso   1.00
C15    C     0.67189   0.12594   0.55816   0.00000  Uiso   1.00
C16    C     0.71345   0.14375   0.52169   0.00000  Uiso   1.00
C17    C     0.74526   0.12393   0.35839   0.00000  Uiso   1.00
C18    C     0.78576   0.14473   0.33754   0.00000  Uiso   1.00
C19    C     0.79496   0.18532   0.47308   0.00000  Uiso   1.00
C20    C     0.76346   0.20307   0.63264   0.00000  Uiso   1.00
C21    C     0.72448   0.18262   0.65754   0.00000  Uiso   1.00
C22    C     0.66438   0.70546   0.55746   0.00000  Uiso   1.00
N23    N     0.65655   0.09529   0.40014   0.00000  Uiso   1.00
N24    N     0.65456   0.74138   0.43036   0.00000  Uiso   1.00
N25    N     0.18710   0.12174   0.81540   0.00000  Uiso   1.00
N26    N     0.25704   0.08554   0.77909   0.00000  Uiso   1.00
S27    S     0.21210   0.07845   0.91606   0.00000  Uiso   1.00
H28    H     0.55590   0.88107   0.76984   0.00000  Uiso   1.00
H29    H     0.55597   0.96092   0.76873   0.00000  Uiso   1.00
H30    H     0.43280   0.85343   0.78361   0.00000  Uiso   1.00
H31    H     0.36562   0.81319   0.80610   0.00000  Uiso   1.00
H32    H     0.41423   0.71413   0.26676   0.00000  Uiso   1.00
H33    H     0.48024   0.75358   0.24471   0.00000  Uiso   1.00
H34    H     0.56481   0.98687   0.20535   0.00000  Uiso   1.00
H35    H     0.63306   0.02486   0.16824   0.00000  Uiso   1.00
H36    H     0.58929   0.12690   0.70290   0.00000  Uiso   1.00
H37    H     0.52202   0.08971   0.73914   0.00000  Uiso   1.00
H38    H     0.65486   0.14066   0.73357   0.00000  Uiso   1.00
H39    H     0.26989   0.73369   0.74103   0.00000  Uiso   1.00
H40    H     0.70123   0.19799   0.78816   0.00000  Uiso   1.00
H41    H     0.64323   0.68787   0.69552   0.00000  Uiso   1.00
C42    C     0.03132   0.39845   0.65062   0.00000  Uiso   1.00
C43    C     0.03132   0.44351   0.65039   0.00000  Uiso   1.00
C44    C     0.03834   0.30628   0.48513   0.00000  Uiso   1.00
C45    C     0.92867   0.32284   0.67113   0.00000  Uiso   1.00
C46    C     0.89105   0.30056   0.68279   0.00000  Uiso   1.00
C47    C     0.88454   0.26081   0.54111   0.00000  Uiso   1.00
C48    C     0.91781   0.24438   0.38437   0.00000  Uiso   1.00
C49    C     0.95533   0.26665   0.37066   0.00000  Uiso   1.00
C50    C     0.96160   0.53537   0.52457   0.00000  Uiso   1.00
C51    C     0.07029   0.51753   0.31449   0.00000  Uiso   1.00
C52    C     0.10842   0.53848   0.29437   0.00000  Uiso   1.00
C53    C     0.11676   0.57800   0.43477   0.00000  Uiso   1.00
C54    C     0.08445   0.59621   0.59200   0.00000  Uiso   1.00
C55    C     0.04618   0.57531   0.61264   0.00000  Uiso   1.00
C56    C     0.17189   0.62594   0.55816   0.00000  Uiso   1.00
C57    C     0.21345   0.64375   0.52169   0.00000  Uiso   1.00
C58    C     0.24526   0.62393   0.35839   0.00000  Uiso   1.00
C59    C     0.28576   0.64473   0.33754   0.00000  Uiso   1.00
C60    C     0.29496   0.68532   0.47308   0.00000  Uiso   1.00
C61    C     0.26346   0.70307   0.63264   0.00000  Uiso   1.00
C62    C     0.22448   0.68262   0.65754   0.00000  Uiso   1.00
C63    C     0.16438   0.20546   0.55746   0.00000  Uiso   1.00
N64    N     0.15655   0.59529   0.40014   0.00000  Uiso   1.00
N65    N     0.15456   0.24138   0.43036   0.00000  Uiso   1.00
N66    N     0.68710   0.62174   0.81540   0.00000  Uiso   1.00
N67    N     0.75704   0.58554   0.77909   0.00000  Uiso   1.00
S68    S     0.71210   0.57845   0.91606   0.00000  Uiso   1.00
H69    H     0.05590   0.38107   0.76984   0.00000  Uiso   1.00
H70    H     0.05597   0.46092   0.76873   0.00000  Uiso   1.00
H71    H     0.93280   0.35343   0.78361   0.00000  Uiso   1.00
H72    H     0.86562   0.31319   0.80610   0.00000  Uiso   1.00
H73    H     0.91423   0.21413   0.26676   0.00000  Uiso   1.00
H74    H     0.98024   0.25358   0.24471   0.00000  Uiso   1.00
H75    H     0.06481   0.48687   0.20535   0.00000  Uiso   1.00
H76    H     0.13306   0.52486   0.16824   0.00000  Uiso   1.00
H77    H     0.08929   0.62690   0.70290   0.00000  Uiso   1.00
H78    H     0.02202   0.58971   0.73914   0.00000  Uiso   1.00
H79    H     0.15486   0.64066   0.73357   0.00000  Uiso   1.00
H80    H     0.76989   0.23369   0.74103   0.00000  Uiso   1.00
H81    H     0.20123   0.69799   0.78816   0.00000  Uiso   1.00
H82    H     0.14323   0.18787   0.69552   0.00000  Uiso   1.00
C83    C     0.46868   0.89845   0.34938   0.00000  Uiso   1.00
C84    C     0.46868   0.94351   0.34961   0.00000  Uiso   1.00
C85    C     0.46166   0.80628   0.51487   0.00000  Uiso   1.00
C86    C     0.57133   0.82284   0.32887   0.00000  Uiso   1.00
C87    C     0.60895   0.80056   0.31721   0.00000  Uiso   1.00
C88    C     0.61546   0.76081   0.45889   0.00000  Uiso   1.00
C89    C     0.58219   0.74438   0.61563   0.00000  Uiso   1.00
C90    C     0.54467   0.76665   0.62934   0.00000  Uiso   1.00
C91    C     0.53840   0.03537   0.47543   0.00000  Uiso   1.00
C92    C     0.42971   0.01753   0.68551   0.00000  Uiso   1.00
C93    C     0.39158   0.03848   0.70563   0.00000  Uiso   1.00
C94    C     0.38324   0.07800   0.56523   0.00000  Uiso   1.00
C95    C     0.41555   0.09621   0.40800   0.00000  Uiso   1.00
C96    C     0.45382   0.07531   0.38736   0.00000  Uiso   1.00
C97    C     0.32811   0.12594   0.44184   0.00000  Uiso   1.00
C98    C     0.28655   0.14375   0.47831   0.00000  Uiso   1.00
C99    C     0.25474   0.12393   0.64161   0.00000  Uiso   1.00
C100   C     0.21424   0.14473   0.66246   0.00000  Uiso   1.00
C101   C     0.20504   0.18532   0.52692   0.00000  Uiso   1.00
C102   C     0.23654   0.20307   0.36736   0.00000  Uiso   1.00
C103   C     0.27552   0.18262   0.34246   0.00000  Uiso   1.00
C104   C     0.33562   0.70546   0.44254   0.00000  Uiso   1.00
N105   N     0.34345   0.09529   0.59986   0.00000  Uiso   1.00
N106   N     0.34544   0.74138   0.56964   0.00000  Uiso   1.00
N107   N     0.81290   0.12174   0.18460   0.00000  Uiso   1.00
N108   N     0.74296   0.08554   0.22091   0.00000  Uiso   1.00
S109   S     0.78790   0.07845   0.08394   0.00000  Uiso   1.00
H110   H     0.44410   0.88107   0.23016   0.00000  Uiso   1.00
H111   H     0.44403   0.96092   0.23127   0.00000  Uiso   1.00
H112   H     0.56720   0.85343   0.21639   0.00000  Uiso   1.00
H113   H     0.63438   0.81319   0.19390   0.00000  Uiso   1.00
H114   H     0.58577   0.71413   0.73324   0.00000  Uiso   1.00
H115   H     0.51976   0.75358   0.75529   0.00000  Uiso   1.00
H116   H     0.43519   0.98687   0.79465   0.00000  Uiso   1.00
H117   H     0.36694   0.02486   0.83176   0.00000  Uiso   1.00
H118   H     0.41071   0.12690   0.29710   0.00000  Uiso   1.00
H119   H     0.47798   0.08971   0.26086   0.00000  Uiso   1.00
H120   H     0.34514   0.14066   0.26643   0.00000  Uiso   1.00
H121   H     0.73011   0.73369   0.25897   0.00000  Uiso   1.00
H122   H     0.29877   0.19799   0.21184   0.00000  Uiso   1.00
H123   H     0.35677   0.68787   0.30448   0.00000  Uiso   1.00
C124   C     0.96868   0.39845   0.34938   0.00000  Uiso   1.00
C125   C     0.96868   0.44351   0.34961   0.00000  Uiso   1.00
C126   C     0.96166   0.30628   0.51487   0.00000  Uiso   1.00
C127   C     0.07133   0.32284   0.32887   0.00000  Uiso   1.00
C128   C     0.10895   0.30056   0.31721   0.00000  Uiso   1.00
C129   C     0.11546   0.26081   0.45889   0.00000  Uiso   1.00
C130   C     0.08219   0.24438   0.61563   0.00000  Uiso   1.00
C131   C     0.04467   0.26665   0.62934   0.00000  Uiso   1.00
C132   C     0.03840   0.53537   0.47543   0.00000  Uiso   1.00
C133   C     0.92971   0.51753   0.68551   0.00000  Uiso   1.00
C134   C     0.89158   0.53848   0.70563   0.00000  Uiso   1.00
C135   C     0.88324   0.57800   0.56523   0.00000  Uiso   1.00
C136   C     0.91555   0.59621   0.40800   0.00000  Uiso   1.00
C137   C     0.95382   0.57531   0.38736   0.00000  Uiso   1.00
C138   C     0.82811   0.62594   0.44184   0.00000  Uiso   1.00
C139   C     0.78655   0.64375   0.47831   0.00000  Uiso   1.00
C140   C     0.75474   0.62393   0.64161   0.00000  Uiso   1.00
C141   C     0.71424   0.64473   0.66246   0.00000  Uiso   1.00
C142   C     0.70504   0.68532   0.52692   0.00000  Uiso   1.00
C143   C     0.73654   0.70307   0.36736   0.00000  Uiso   1.00
C144   C     0.77552   0.68262   0.34246   0.00000  Uiso   1.00
C145   C     0.83562   0.20546   0.44254   0.00000  Uiso   1.00
N146   N     0.84345   0.59529   0.59986   0.00000  Uiso   1.00
N147   N     0.84544   0.24138   0.56964   0.00000  Uiso   1.00
N148   N     0.31290   0.62174   0.18460   0.00000  Uiso   1.00
N149   N     0.24296   0.58554   0.22091   0.00000  Uiso   1.00
S150   S     0.28790   0.57845   0.08394   0.00000  Uiso   1.00
H151   H     0.94410   0.38107   0.23016   0.00000  Uiso   1.00
H152   H     0.94403   0.46092   0.23127   0.00000  Uiso   1.00
H153   H     0.06720   0.35343   0.21639   0.00000  Uiso   1.00
H154   H     0.13438   0.31319   0.19390   0.00000  Uiso   1.00
H155   H     0.08577   0.21413   0.73324   0.00000  Uiso   1.00
H156   H     0.01976   0.25358   0.75529   0.00000  Uiso   1.00
H157   H     0.93519   0.48687   0.79465   0.00000  Uiso   1.00
H158   H     0.86694   0.52486   0.83176   0.00000  Uiso   1.00
H159   H     0.91071   0.62690   0.29710   0.00000  Uiso   1.00
H160   H     0.97798   0.58971   0.26086   0.00000  Uiso   1.00
H161   H     0.84514   0.64066   0.26643   0.00000  Uiso   1.00
H162   H     0.23011   0.23369   0.25897   0.00000  Uiso   1.00
H163   H     0.79877   0.69799   0.21184   0.00000  Uiso   1.00
H164   H     0.85677   0.18787   0.30448   0.00000  Uiso   1.00
C165   C     0.50000   0.87509   0.50000   0.00000  Uiso   1.00
C166   C     0.50000   0.96689   0.50000   0.00000  Uiso   1.00
N167   N     0.50000   0.82895   0.50000   0.00000  Uiso   1.00
N168   N     0.50000   0.01310   0.50000   0.00000  Uiso   1.00
C169   C     0.00000   0.37509   0.50000   0.00000  Uiso   1.00
C170   C     0.00000   0.46689   0.50000   0.00000  Uiso   1.00
N171   N     0.00000   0.32895   0.50000   0.00000  Uiso   1.00
N172   N     0.00000   0.51310   0.50000   0.00000  Uiso   1.00
loop_
_geom_bond_atom_site_label_1
_geom_bond_atom_site_label_2
_geom_bond_distance
_geom_bond_site_symmetry_2
_ccdc_geom_bond_type
C1     C2      1.391   .     S
C1     H28     1.089   .     S
C1     C165    1.404   .     D
C2     H29     1.089   .     S
C2     C166    1.404   .     D
C3     N167    1.415   .     S
C3     C86     1.407   .     D
C3     C90     1.411   .     S
C4     C5      1.388   .     S
C4     H30     1.089   .     S
C4     C85     1.407   .     D
C5     C6      1.409   .     D
C5     H31     1.091   .     S
C6     C7      1.414   .     S
C6     N106    1.397   .     S
C7     C8      1.386   .     D
C7     H32     1.090   .     S
C8     H33     1.090   .     S
C8     C85     1.411   .     S
C9     N168    1.415   .     S
C9     C96     1.410   .     D
C9     C92     1.408   .     S
C10    C11     1.386   .     S
C10    C91     1.408   .     D
C10    H34     1.089   1_545 S
C11    C12     1.409   .     D
C11    H35     1.091   .     S
C12    C13     1.413   .     S
C12    N23     1.395   .     S
C13    C14     1.390   .     D
C13    H36     1.091   .     S
C14    H37     1.090   .     S
C14    C91     1.410   .     S
C15    C16     1.454   .     S
C15    N23     1.290   .     D
C15    H38     1.107   .     S
C16    C17     1.437   .     S
C16    C21     1.399   .     D
C17    C18     1.452   .     S
C17    N108    1.352   .     D
C18    C19     1.432   .     S
C18    N107    1.352   .     D
C19    C20     1.394   .     D
C19    C145    1.453   .     S
C20    C21     1.406   .     S
C20    H80     1.091   .     S
C21    H40     1.093   .     S
C22    N24     1.294   .     D
C22    H41     1.101   .     S
C22    C142    1.453   .     S
N24    C88     1.397   .     S
N25    S27     1.619   .     S
N25    C100    1.352   .     D
N26    S27     1.614   .     S
N26    C99     1.352   .     D
H34    C10     1.089   1_565 S
H39    C61     1.091   .     S
C42    C43     1.391   .     S
C42    H69     1.089   .     S
C42    C169    1.404   .     D
C43    H70     1.089   .     S
C43    C170    1.404   .     D
C44    N171    1.415   .     S
C44    C127    1.407   .     D
C44    C131    1.411   .     S
C45    C46     1.388   .     S
C45    H71     1.089   .     S
C45    C126    1.407   .     D
C46    C47     1.409   .     D
C46    H72     1.091   .     S
C47    C48     1.414   .     S
C47    N147    1.397   .     S
C48    C49     1.386   .     D
C48    H73     1.090   .     S
C49    H74     1.090   .     S
C49    C126    1.411   .     S
C50    C137    1.410   .     D
C50    C133    1.408   .     S
C50    N172    1.415   1_655 S
C51    C52     1.386   .     D
C51    H75     1.089   .     S
C51    C132    1.408   .     S
C52    C53     1.409   .     S
C52    H76     1.091   .     S
C53    C54     1.413   .     D
C53    N64     1.395   .     S
C54    C55     1.390   .     S
C54    H77     1.091   .     S
C55    H78     1.090   .     S
C55    C132    1.410   .     D
C56    C57     1.454   .     S
C56    N64     1.290   .     D
C56    H79     1.107   .     S
C57    C58     1.437   .     S
C57    C62     1.399   .     D
C58    C59     1.452   .     S
C58    N149    1.352   .     D
C59    C60     1.432   .     S
C59    N148    1.352   .     D
C60    C61     1.394   .     D
C60    C104    1.453   .     S
C61    C62     1.406   .     S
C62    H81     1.093   .     S
C63    N65     1.294   .     D
C63    H82     1.101   .     S
C63    C101    1.453   .     S
N65    C129    1.397   .     S
N66    S68     1.619   .     S
N66    C141    1.352   .     D
N67    S68     1.614   .     S
N67    C140    1.352   .     D
C83    C84     1.391   .     D
C83    H110    1.089   .     S
C83    C165    1.404   .     S
C84    H111    1.089   .     S
C84    C166    1.404   .     S
C85    N167    1.415   .     S
C86    C87     1.388   .     S
C86    H112    1.089   .     S
C87    C88     1.409   .     D
C87    H113    1.091   .     S
C88    C89     1.414   .     S
C89    C90     1.386   .     D
C89    H114    1.090   .     S
C90    H115    1.090   .     S
C91    N168    1.415   .     S
C92    C93     1.386   .     D
C92    H116    1.089   1_545 S
C93    C94     1.409   .     S
C93    H117    1.091   .     S
C94    C95     1.413   .     D
C94    N105    1.395   .     S
C95    C96     1.390   .     S
C95    H118    1.091   .     S
C96    H119    1.090   .     S
C97    C98     1.454   .     S
C97    N105    1.290   .     D
C97    H120    1.107   .     S
C98    C99     1.437   .     S
C98    C103    1.399   .     D
C99    C100    1.452   .     S
C100   C101    1.432   .     S
C101   C102    1.394   .     D
C102   C103    1.406   .     S
C102   H162    1.091   .     S
C103   H122    1.093   .     S
C104   N106    1.294   .     D
C104   H123    1.101   .     S
N107   S109    1.619   .     S
N108   S109    1.614   .     S
H116   C92     1.089   1_565 S
H121   C143    1.091   .     S
C124   C125    1.391   .     D
C124   H151    1.089   .     S
C124   C169    1.404   1_655 S
C125   H152    1.089   .     S
C125   C170    1.404   1_655 S
C126   N171    1.415   1_655 S
C127   C128    1.388   .     S
C127   H153    1.089   .     S
C128   C129    1.409   .     D
C128   H154    1.091   .     S
C129   C130    1.414   .     S
C130   C131    1.386   .     D
C130   H155    1.090   .     S
C131   H156    1.090   .     S
C132   N172    1.415   .     S
C133   C134    1.386   .     D
C133   H157    1.089   .     S
C134   C135    1.409   .     S
C134   H158    1.091   .     S
C135   C136    1.413   .     D
C135   N146    1.395   .     S
C136   C137    1.390   .     S
C136   H159    1.091   .     S
C137   H160    1.090   .     S
C138   C139    1.454   .     S
C138   N146    1.290   .     D
C138   H161    1.107   .     S
C139   C140    1.437   .     S
C139   C144    1.399   .     D
C140   C141    1.452   .     S
C141   C142    1.432   .     S
C142   C143    1.394   .     D
C143   C144    1.406   .     S
C144   H163    1.093   .     S
C145   N147    1.294   .     D
C145   H164    1.101   .     S
N148   S150    1.619   .     S
N149   S150    1.614   .     S
C165   N167    1.425   .     S
C166   N168    1.427   1_565 S
N168   C166    1.427   1_545 S
C169   N171    1.425   .     S
C169   C124    1.404   1_455 S
C170   N172    1.427   .     S
C170   C125    1.404   1_455 S
N171   C126    1.415   1_455 S
N172   C50     1.415   1_455 S
