data_1167
_audit_creation_date              2023-09-08
_audit_creation_method            'Materials Studio'
_symmetry_space_group_name_H-M    'P1'
_symmetry_Int_Tables_number       1
_symmetry_cell_setting            triclinic
loop_
_symmetry_equiv_pos_as_xyz
  x,y,z
_cell_length_a                    29.7647
_cell_length_b                    29.7647
_cell_length_c                    6.1262
_cell_angle_alpha                 90.0000
_cell_angle_beta                  90.0000
_cell_angle_gamma                 120.0000
loop_
_atom_site_label
_atom_site_type_symbol
_atom_site_fract_x
_atom_site_fract_y
_atom_site_fract_z
_atom_site_U_iso_or_equiv
_atom_site_adp_type
_atom_site_occupancy
C1     C     0.87688   0.13606   0.69205   0.00000  Uiso   1.00
C2     C     0.84835   0.08138   0.69205   0.00000  Uiso   1.00
C3     C     0.87424   0.05338   0.69205   0.00000  Uiso   1.00
C4     C     0.92867   0.08018   0.69205   0.00000  Uiso   1.00
C5     C     0.95425   0.13482   0.69205   0.00000  Uiso   1.00
N6     N     0.92955   0.16188   0.69205   0.00000  Uiso   1.00
N7     N     0.95481   0.05191   0.69205   0.00000  Uiso   1.00
C8     C     1.00654   0.07125   0.69205   0.00000  Uiso   1.00
C9     C     1.02925   0.04028   0.69205   0.00000  Uiso   1.00
C10    C     0.99756   0.98373   0.69205   0.00000  Uiso   1.00
O11    O     0.11280   0.11594   0.69205   0.00000  Uiso   1.00
H12    H     0.93457   0.01120   0.69205   0.00000  Uiso   1.00
C13    C     0.85175   0.16846   0.69205   0.00000  Uiso   1.00
N14    N     0.88402   0.22069   0.69205   0.00000  Uiso   1.00
C15    C     0.86327   0.25127   0.69205   0.00000  Uiso   1.00
C16    C     0.80949   0.23299   0.69205   0.00000  Uiso   1.00
C17    C     0.77590   0.17910   0.69205   0.00000  Uiso   1.00
C18    C     0.79741   0.14697   0.69205   0.00000  Uiso   1.00
N19    N     0.79371   0.26993   0.69205   0.00000  Uiso   1.00
C20    C     0.74520   0.26184   0.69205   0.00000  Uiso   1.00
C21    C     0.73454   0.30234   0.69205   0.00000  Uiso   1.00
C22    C     0.77629   0.35628   0.69205   0.00000  Uiso   1.00
O23    O     0.64451   0.24107   0.69205   0.00000  Uiso   1.00
H24    H     0.82124   0.30972   0.69205   0.00000  Uiso   1.00
H25    H     0.80609   0.06041   0.69205   0.00000  Uiso   1.00
H26    H     0.85282   0.01104   0.69205   0.00000  Uiso   1.00
H27    H     0.99659   0.15785   0.69205   0.00000  Uiso   1.00
H28    H     1.03209   0.11322   0.69205   0.00000  Uiso   1.00
H29    H     0.89035   0.29320   0.69205   0.00000  Uiso   1.00
H30    H     0.73389   0.16235   0.69205   0.00000  Uiso   1.00
H31    H     0.77145   0.10510   0.69205   0.00000  Uiso   1.00
H32    H     0.71270   0.22211   0.69205   0.00000  Uiso   1.00
C33    C     0.92849   0.70540   0.69205   0.00000  Uiso   1.00
C34    C     0.98317   0.73155   0.69205   0.00000  Uiso   1.00
C35    C     1.01117   0.78544   0.69205   0.00000  Uiso   1.00
C36    C     0.98437   0.81307   0.69205   0.00000  Uiso   1.00
C37    C     0.92973   0.78401   0.69205   0.00000  Uiso   1.00
N38    N     0.90267   0.73225   0.69205   0.00000  Uiso   1.00
N39    N     1.01264   0.86748   0.69205   0.00000  Uiso   1.00
C40    C     0.99330   0.89987   0.69205   0.00000  Uiso   1.00
C41    C     1.02427   0.95355   0.69205   0.00000  Uiso   1.00
C42    C     0.08082   0.97841   0.69205   0.00000  Uiso   1.00
O43    O     0.94861   0.96144   0.69205   0.00000  Uiso   1.00
H44    H     1.05335   0.88795   0.69205   0.00000  Uiso   1.00
C45    C     0.89609   0.64787   0.69205   0.00000  Uiso   1.00
N46    N     0.84386   0.62791   0.69205   0.00000  Uiso   1.00
C47    C     0.81328   0.57658   0.69205   0.00000  Uiso   1.00
C48    C     0.83156   0.54108   0.69205   0.00000  Uiso   1.00
C49    C     0.88545   0.56138   0.69205   0.00000  Uiso   1.00
C50    C     0.91758   0.61502   0.69205   0.00000  Uiso   1.00
N51    N     0.79462   0.48836   0.69205   0.00000  Uiso   1.00
C52    C     0.80271   0.44794   0.69205   0.00000  Uiso   1.00
C53    C     0.76221   0.39678   0.69205   0.00000  Uiso   1.00
C54    C     0.70827   0.38459   0.69205   0.00000  Uiso   1.00
O55    O     0.82348   0.36802   0.69205   0.00000  Uiso   1.00
H56    H     0.75483   0.47610   0.69205   0.00000  Uiso   1.00
H57    H     1.00414   0.71026   0.69205   0.00000  Uiso   1.00
H58    H     1.05351   0.80636   0.69205   0.00000  Uiso   1.00
H59    H     0.90670   0.80332   0.69205   0.00000  Uiso   1.00
H60    H     0.95133   0.88345   0.69205   0.00000  Uiso   1.00
H61    H     0.77135   0.56173   0.69205   0.00000  Uiso   1.00
H62    H     0.90220   0.53612   0.69205   0.00000  Uiso   1.00
H63    H     0.95945   0.63093   0.69205   0.00000  Uiso   1.00
H64    H     0.84244   0.45517   0.69205   0.00000  Uiso   1.00
C65    C     0.35915   0.18767   0.69205   0.00000  Uiso   1.00
C66    C     0.33300   0.21620   0.69205   0.00000  Uiso   1.00
C67    C     0.27911   0.19031   0.69205   0.00000  Uiso   1.00
C68    C     0.25148   0.13588   0.69205   0.00000  Uiso   1.00
C69    C     0.28054   0.11030   0.69205   0.00000  Uiso   1.00
N70    N     0.33230   0.13500   0.69205   0.00000  Uiso   1.00
N71    N     0.19707   0.10974   0.69205   0.00000  Uiso   1.00
C72    C     0.16468   0.05801   0.69205   0.00000  Uiso   1.00
C73    C     0.11100   0.03530   0.69205   0.00000  Uiso   1.00
C74    C     0.08614   0.06699   0.69205   0.00000  Uiso   1.00
O75    O     0.10311   0.95175   0.69205   0.00000  Uiso   1.00
H76    H     0.17660   0.12998   0.69205   0.00000  Uiso   1.00
C77    C     0.41668   0.21280   0.69205   0.00000  Uiso   1.00
N78    N     0.43664   0.18053   0.69205   0.00000  Uiso   1.00
C79    C     0.48797   0.20128   0.69205   0.00000  Uiso   1.00
C80    C     0.52347   0.25506   0.69205   0.00000  Uiso   1.00
C81    C     0.50317   0.28865   0.69205   0.00000  Uiso   1.00
C82    C     0.44953   0.26714   0.69205   0.00000  Uiso   1.00
N83    N     0.57619   0.27084   0.69205   0.00000  Uiso   1.00
C84    C     0.61661   0.31935   0.69205   0.00000  Uiso   1.00
C85    C     0.66777   0.33001   0.69205   0.00000  Uiso   1.00
C86    C     0.67996   0.28826   0.69205   0.00000  Uiso   1.00
O87    O     0.69653   0.42004   0.69205   0.00000  Uiso   1.00
H88    H     0.58845   0.24331   0.69205   0.00000  Uiso   1.00
H89    H     0.35429   0.25846   0.69205   0.00000  Uiso   1.00
H90    H     0.25819   0.21173   0.69205   0.00000  Uiso   1.00
H91    H     0.26123   0.06796   0.69205   0.00000  Uiso   1.00
H92    H     0.18110   0.03246   0.69205   0.00000  Uiso   1.00
H93    H     0.50282   0.17420   0.69205   0.00000  Uiso   1.00
H94    H     0.52843   0.33066   0.69205   0.00000  Uiso   1.00
H95    H     0.43362   0.29310   0.69205   0.00000  Uiso   1.00
H96    H     0.60938   0.35185   0.69205   0.00000  Uiso   1.00
loop_
_geom_bond_atom_site_label_1
_geom_bond_atom_site_label_2
_geom_bond_distance
_geom_bond_site_symmetry_2
_ccdc_geom_bond_type
C1     C2      1.410   .     D
C1     N6      1.358   .     S
C1     C13     1.487   .     S
C2     C3      1.389   .     S
C2     H25     1.089   .     S
C3     C4      1.403   .     D
C3     H26     1.091   .     S
C4     C5      1.409   .     S
C4     N7      1.403   .     S
C5     N6      1.335   .     D
C5     H27     1.093   .     S
N7     C8      1.348   .     S
N7     H12     1.049   .     S
C8     C9      1.389   .     D
C8     H28     1.090   .     S
C9     C10     1.461   1_545 S
C9     C74     1.467   1_655 S
C10    C41     1.467   .     S
C10    O43     1.263   .     D
C10    C9      1.461   1_565 S
O11    C74     1.263   .     D
C13    N14     1.359   .     D
C13    C18     1.411   .     S
N14    C15     1.331   .     S
C15    C16     1.410   .     D
C15    H29     1.096   .     S
C16    C17     1.403   .     S
C16    N19     1.395   .     S
C17    C18     1.392   .     D
C17    H30     1.090   .     S
C18    H31     1.090   .     S
N19    C20     1.340   .     S
N19    H24     1.051   .     S
C20    C21     1.392   .     D
C20    H32     1.091   .     S
C21    C22     1.458   .     S
C21    C86     1.461   .     S
C22    C53     1.461   .     S
C22    O55     1.267   .     D
O23    C86     1.267   .     D
C33    C34     1.410   .     D
C33    N38     1.358   .     S
C33    C45     1.487   .     S
C34    C35     1.389   .     S
C34    H57     1.089   .     S
C35    C36     1.403   .     D
C35    H58     1.091   .     S
C36    C37     1.409   .     S
C36    N39     1.403   .     S
C37    N38     1.335   .     D
C37    H59     1.093   .     S
N39    C40     1.348   .     S
N39    H44     1.049   .     S
C40    C41     1.389   .     D
C40    H60     1.090   .     S
C41    C42     1.461   1_655 S
C42    O75     1.263   .     D
C42    C41     1.461   1_455 S
C42    C73     1.467   1_565 S
C45    N46     1.359   .     D
C45    C50     1.411   .     S
N46    C47     1.331   .     S
C47    C48     1.410   .     D
C47    H61     1.096   .     S
C48    C49     1.403   .     S
C48    N51     1.395   .     S
C49    C50     1.392   .     D
C49    H62     1.090   .     S
C50    H63     1.090   .     S
N51    C52     1.340   .     S
N51    H56     1.051   .     S
C52    C53     1.392   .     D
C52    H64     1.091   .     S
C53    C54     1.458   .     S
C54    C85     1.461   .     S
C54    O87     1.267   .     D
C65    C66     1.410   .     D
C65    N70     1.358   .     S
C65    C77     1.487   .     S
C66    C67     1.389   .     S
C66    H89     1.089   .     S
C67    C68     1.403   .     D
C67    H90     1.091   .     S
C68    C69     1.409   .     S
C68    N71     1.403   .     S
C69    N70     1.335   .     D
C69    H91     1.093   .     S
N71    C72     1.348   .     S
N71    H76     1.049   .     S
C72    C73     1.389   .     D
C72    H92     1.090   .     S
C73    C74     1.461   .     S
C73    C42     1.467   1_545 S
C74    C9      1.467   1_455 S
C77    N78     1.359   .     D
C77    C82     1.411   .     S
N78    C79     1.331   .     S
C79    C80     1.410   .     D
C79    H93     1.096   .     S
C80    C81     1.403   .     S
C80    N83     1.395   .     S
C81    C82     1.392   .     D
C81    H94     1.090   .     S
C82    H95     1.090   .     S
N83    C84     1.340   .     S
N83    H88     1.051   .     S
C84    C85     1.392   .     D
C84    H96     1.091   .     S
C85    C86     1.458   .     S
