data_1168
_audit_creation_date              2023-09-08
_audit_creation_method            'Materials Studio'
_symmetry_space_group_name_H-M    'P1'
_symmetry_Int_Tables_number       1
_symmetry_cell_setting            triclinic
loop_
_symmetry_equiv_pos_as_xyz
  x,y,z
_cell_length_a                    29.7647
_cell_length_b                    29.7647
_cell_length_c                    6.1262
_cell_angle_alpha                 90.0000
_cell_angle_beta                  90.0000
_cell_angle_gamma                 120.0000
loop_
_atom_site_label
_atom_site_type_symbol
_atom_site_fract_x
_atom_site_fract_y
_atom_site_fract_z
_atom_site_U_iso_or_equiv
_atom_site_adp_type
_atom_site_occupancy
C1     C     0.82204   0.12635   0.00000   0.00000  Uiso   1.00
C2     C     0.79351   0.07167   0.00000   0.00000  Uiso   1.00
C3     C     0.81940   0.04367   0.00000   0.00000  Uiso   1.00
C4     C     0.87383   0.07047   0.00000   0.00000  Uiso   1.00
C5     C     0.89941   0.12511   0.00000   0.00000  Uiso   1.00
N6     N     0.87471   0.15217   0.00000   0.00000  Uiso   1.00
N7     N     0.89997   0.04220   0.00000   0.00000  Uiso   1.00
C8     C     0.95170   0.06154   0.00000   0.00000  Uiso   1.00
C9     C     0.97441   0.03057   0.00000   0.00000  Uiso   1.00
C10    C     0.94272   0.97402   0.00000   0.00000  Uiso   1.00
O11    O     0.05796   0.10623   0.00000   0.00000  Uiso   1.00
H12    H     0.87973   0.00149   0.00000   0.00000  Uiso   1.00
C13    C     0.79691   0.15875   0.00000   0.00000  Uiso   1.00
N14    N     0.82918   0.21098   0.00000   0.00000  Uiso   1.00
C15    C     0.80843   0.24156   0.00000   0.00000  Uiso   1.00
C16    C     0.75465   0.22328   0.00000   0.00000  Uiso   1.00
C17    C     0.72106   0.16939   0.00000   0.00000  Uiso   1.00
C18    C     0.74257   0.13726   0.00000   0.00000  Uiso   1.00
N19    N     0.73887   0.26022   0.00000   0.00000  Uiso   1.00
C20    C     0.69036   0.25213   0.00000   0.00000  Uiso   1.00
C21    C     0.67970   0.29263   0.00000   0.00000  Uiso   1.00
C22    C     0.72145   0.34657   0.00000   0.00000  Uiso   1.00
O23    O     0.58967   0.23136   0.00000   0.00000  Uiso   1.00
H24    H     0.76640   0.30001   0.00000   0.00000  Uiso   1.00
H25    H     0.75125   0.05070   0.00000   0.00000  Uiso   1.00
H26    H     0.79798   0.00133   0.00000   0.00000  Uiso   1.00
H27    H     0.94175   0.14814   0.00000   0.00000  Uiso   1.00
H28    H     0.97725   0.10351   0.00000   0.00000  Uiso   1.00
H29    H     0.83551   0.28349   0.00000   0.00000  Uiso   1.00
H30    H     0.67905   0.15264   0.00000   0.00000  Uiso   1.00
H31    H     0.71661   0.09539   0.00000   0.00000  Uiso   1.00
H32    H     0.65786   0.21240   0.00000   0.00000  Uiso   1.00
C33    C     0.87365   0.69569   0.00000   0.00000  Uiso   1.00
C34    C     0.92833   0.72184   0.00000   0.00000  Uiso   1.00
C35    C     0.95633   0.77573   0.00000   0.00000  Uiso   1.00
C36    C     0.92953   0.80336   0.00000   0.00000  Uiso   1.00
C37    C     0.87489   0.77430   0.00000   0.00000  Uiso   1.00
N38    N     0.84783   0.72254   0.00000   0.00000  Uiso   1.00
N39    N     0.95780   0.85777   0.00000   0.00000  Uiso   1.00
C40    C     0.93846   0.89016   0.00000   0.00000  Uiso   1.00
C41    C     0.96943   0.94384   0.00000   0.00000  Uiso   1.00
C42    C     0.02598   0.96870   0.00000   0.00000  Uiso   1.00
O43    O     0.89377   0.95173   0.00000   0.00000  Uiso   1.00
H44    H     0.99851   0.87824   0.00000   0.00000  Uiso   1.00
C45    C     0.84125   0.63816   0.00000   0.00000  Uiso   1.00
N46    N     0.78902   0.61820   0.00000   0.00000  Uiso   1.00
C47    C     0.75844   0.56687   0.00000   0.00000  Uiso   1.00
C48    C     0.77672   0.53137   0.00000   0.00000  Uiso   1.00
C49    C     0.83061   0.55167   0.00000   0.00000  Uiso   1.00
C50    C     0.86274   0.60531   0.00000   0.00000  Uiso   1.00
N51    N     0.73978   0.47865   0.00000   0.00000  Uiso   1.00
C52    C     0.74787   0.43823   0.00000   0.00000  Uiso   1.00
C53    C     0.70737   0.38707   0.00000   0.00000  Uiso   1.00
C54    C     0.65343   0.37488   0.00000   0.00000  Uiso   1.00
O55    O     0.76864   0.35831   0.00000   0.00000  Uiso   1.00
H56    H     0.69999   0.46639   0.00000   0.00000  Uiso   1.00
H57    H     0.94930   0.70055   0.00000   0.00000  Uiso   1.00
H58    H     0.99867   0.79665   0.00000   0.00000  Uiso   1.00
H59    H     0.85186   0.79361   0.00000   0.00000  Uiso   1.00
H60    H     0.89649   0.87374   0.00000   0.00000  Uiso   1.00
H61    H     0.71651   0.55202   0.00000   0.00000  Uiso   1.00
H62    H     0.84736   0.52641   0.00000   0.00000  Uiso   1.00
H63    H     0.90461   0.62122   0.00000   0.00000  Uiso   1.00
H64    H     0.78760   0.44546   0.00000   0.00000  Uiso   1.00
C65    C     0.30431   0.17796   0.00000   0.00000  Uiso   1.00
C66    C     0.27816   0.20649   0.00000   0.00000  Uiso   1.00
C67    C     0.22427   0.18060   0.00000   0.00000  Uiso   1.00
C68    C     0.19664   0.12617   0.00000   0.00000  Uiso   1.00
C69    C     0.22570   0.10059   0.00000   0.00000  Uiso   1.00
N70    N     0.27746   0.12529   0.00000   0.00000  Uiso   1.00
N71    N     0.14223   0.10003   0.00000   0.00000  Uiso   1.00
C72    C     0.10984   0.04830   0.00000   0.00000  Uiso   1.00
C73    C     0.05616   0.02559   0.00000   0.00000  Uiso   1.00
C74    C     0.03130   0.05728   0.00000   0.00000  Uiso   1.00
O75    O     0.04827   0.94204   0.00000   0.00000  Uiso   1.00
H76    H     0.12176   0.12027   0.00000   0.00000  Uiso   1.00
C77    C     0.36184   0.20309   0.00000   0.00000  Uiso   1.00
N78    N     0.38180   0.17082   0.00000   0.00000  Uiso   1.00
C79    C     0.43313   0.19157   0.00000   0.00000  Uiso   1.00
C80    C     0.46863   0.24535   0.00000   0.00000  Uiso   1.00
C81    C     0.44833   0.27894   0.00000   0.00000  Uiso   1.00
C82    C     0.39469   0.25743   0.00000   0.00000  Uiso   1.00
N83    N     0.52135   0.26113   0.00000   0.00000  Uiso   1.00
C84    C     0.56177   0.30964   0.00000   0.00000  Uiso   1.00
C85    C     0.61293   0.32030   0.00000   0.00000  Uiso   1.00
C86    C     0.62512   0.27855   0.00000   0.00000  Uiso   1.00
O87    O     0.64169   0.41033   0.00000   0.00000  Uiso   1.00
H88    H     0.53361   0.23360   0.00000   0.00000  Uiso   1.00
H89    H     0.29945   0.24875   0.00000   0.00000  Uiso   1.00
H90    H     0.20335   0.20202   0.00000   0.00000  Uiso   1.00
H91    H     0.20639   0.05825   0.00000   0.00000  Uiso   1.00
H92    H     0.12626   0.02275   0.00000   0.00000  Uiso   1.00
H93    H     0.44798   0.16449   0.00000   0.00000  Uiso   1.00
H94    H     0.47359   0.32095   0.00000   0.00000  Uiso   1.00
H95    H     0.37878   0.28339   0.00000   0.00000  Uiso   1.00
H96    H     0.55454   0.34214   0.00000   0.00000  Uiso   1.00
C97    C     0.48861   0.45891   0.50000   0.00000  Uiso   1.00
C98    C     0.45976   0.40421   0.50000   0.00000  Uiso   1.00
C99    C     0.48530   0.37582   0.50000   0.00000  Uiso   1.00
C100   C     0.53975   0.40232   0.50000   0.00000  Uiso   1.00
C101   C     0.56563   0.45700   0.50000   0.00000  Uiso   1.00
N102   N     0.54126   0.48436   0.50000   0.00000  Uiso   1.00
N103   N     0.56586   0.37406   0.50000   0.00000  Uiso   1.00
C104   C     0.61768   0.39391   0.50000   0.00000  Uiso   1.00
C105   C     0.64066   0.36333   0.50000   0.00000  Uiso   1.00
C106   C     0.60949   0.30688   0.50000   0.00000  Uiso   1.00
O107   O     0.72361   0.43957   0.50000   0.00000  Uiso   1.00
H108   H     0.54596   0.33334   0.50000   0.00000  Uiso   1.00
C109   C     0.46399   0.49178   0.50000   0.00000  Uiso   1.00
N110   N     0.49656   0.54395   0.50000   0.00000  Uiso   1.00
C111   C     0.47619   0.57490   0.50000   0.00000  Uiso   1.00
C112   C     0.42251   0.55705   0.50000   0.00000  Uiso   1.00
C113   C     0.38866   0.50323   0.50000   0.00000  Uiso   1.00
C114   C     0.40973   0.47074   0.50000   0.00000  Uiso   1.00
N115   N     0.40686   0.59427   0.50000   0.00000  Uiso   1.00
C116   C     0.35811   0.58610   0.50000   0.00000  Uiso   1.00
C117   C     0.34694   0.62621   0.50000   0.00000  Uiso   1.00
C118   C     0.38843   0.68043   0.50000   0.00000  Uiso   1.00
O119   O     0.25680   0.56442   0.50000   0.00000  Uiso   1.00
H120   H     0.43442   0.63406   0.50000   0.00000  Uiso   1.00
H121   H     0.41749   0.38347   0.50000   0.00000  Uiso   1.00
H122   H     0.46354   0.33346   0.50000   0.00000  Uiso   1.00
H123   H     0.60796   0.47979   0.50000   0.00000  Uiso   1.00
H124   H     0.64290   0.43583   0.50000   0.00000  Uiso   1.00
H125   H     0.50356   0.61677   0.50000   0.00000  Uiso   1.00
H126   H     0.34671   0.48683   0.50000   0.00000  Uiso   1.00
H127   H     0.38352   0.42892   0.50000   0.00000  Uiso   1.00
H128   H     0.32578   0.54626   0.50000   0.00000  Uiso   1.00
C129   C     0.54109   0.02970   0.50000   0.00000  Uiso   1.00
C130   C     0.59579   0.05555   0.50000   0.00000  Uiso   1.00
C131   C     0.62418   0.10948   0.50000   0.00000  Uiso   1.00
C132   C     0.59768   0.13743   0.50000   0.00000  Uiso   1.00
C133   C     0.54300   0.10863   0.50000   0.00000  Uiso   1.00
N134   N     0.51564   0.05690   0.50000   0.00000  Uiso   1.00
N135   N     0.62594   0.19180   0.50000   0.00000  Uiso   1.00
C136   C     0.60609   0.22377   0.50000   0.00000  Uiso   1.00
C137   C     0.63667   0.27733   0.50000   0.00000  Uiso   1.00
C138   C     0.69312   0.30261   0.50000   0.00000  Uiso   1.00
O139   O     0.56043   0.28404   0.50000   0.00000  Uiso   1.00
H140   H     0.66666   0.21262   0.50000   0.00000  Uiso   1.00
C141   C     0.50822   0.97221   0.50000   0.00000  Uiso   1.00
N142   N     0.45605   0.95261   0.50000   0.00000  Uiso   1.00
C143   C     0.42510   0.90129   0.50000   0.00000  Uiso   1.00
C144   C     0.44295   0.86546   0.50000   0.00000  Uiso   1.00
C145   C     0.49677   0.88543   0.50000   0.00000  Uiso   1.00
C146   C     0.52926   0.93899   0.50000   0.00000  Uiso   1.00
N147   N     0.40573   0.81259   0.50000   0.00000  Uiso   1.00
C148   C     0.41390   0.77201   0.50000   0.00000  Uiso   1.00
C149   C     0.37379   0.72073   0.50000   0.00000  Uiso   1.00
C150   C     0.31957   0.70800   0.50000   0.00000  Uiso   1.00
O151   O     0.43558   0.69238   0.50000   0.00000  Uiso   1.00
H152   H     0.36594   0.80036   0.50000   0.00000  Uiso   1.00
H153   H     0.61653   0.03402   0.50000   0.00000  Uiso   1.00
H154   H     0.66654   0.13008   0.50000   0.00000  Uiso   1.00
H155   H     0.52021   0.12817   0.50000   0.00000  Uiso   1.00
H156   H     0.56417   0.20707   0.50000   0.00000  Uiso   1.00
H157   H     0.38323   0.88679   0.50000   0.00000  Uiso   1.00
H158   H     0.51317   0.85988   0.50000   0.00000  Uiso   1.00
H159   H     0.57108   0.95460   0.50000   0.00000  Uiso   1.00
H160   H     0.45374   0.77952   0.50000   0.00000  Uiso   1.00
C161   C     0.97030   0.51139   0.50000   0.00000  Uiso   1.00
C162   C     0.94445   0.54024   0.50000   0.00000  Uiso   1.00
C163   C     0.89052   0.51470   0.50000   0.00000  Uiso   1.00
C164   C     0.86257   0.46025   0.50000   0.00000  Uiso   1.00
C165   C     0.89137   0.43437   0.50000   0.00000  Uiso   1.00
N166   N     0.94310   0.45874   0.50000   0.00000  Uiso   1.00
N167   N     0.80820   0.43414   0.50000   0.00000  Uiso   1.00
C168   C     0.77623   0.38232   0.50000   0.00000  Uiso   1.00
C169   C     0.72267   0.35934   0.50000   0.00000  Uiso   1.00
C170   C     0.69739   0.39051   0.50000   0.00000  Uiso   1.00
O171   O     0.71596   0.27639   0.50000   0.00000  Uiso   1.00
H172   H     0.78738   0.45404   0.50000   0.00000  Uiso   1.00
C173   C     0.02779   0.53601   0.50000   0.00000  Uiso   1.00
N174   N     0.04739   0.50344   0.50000   0.00000  Uiso   1.00
C175   C     0.09871   0.52381   0.50000   0.00000  Uiso   1.00
C176   C     0.13454   0.57749   0.50000   0.00000  Uiso   1.00
C177   C     0.11457   0.61134   0.50000   0.00000  Uiso   1.00
C178   C     0.06101   0.59027   0.50000   0.00000  Uiso   1.00
N179   N     0.18741   0.59314   0.50000   0.00000  Uiso   1.00
C180   C     0.22799   0.64189   0.50000   0.00000  Uiso   1.00
C181   C     0.27927   0.65306   0.50000   0.00000  Uiso   1.00
C182   C     0.29200   0.61157   0.50000   0.00000  Uiso   1.00
O183   O     0.30762   0.74320   0.50000   0.00000  Uiso   1.00
H184   H     0.19964   0.56558   0.50000   0.00000  Uiso   1.00
H185   H     0.96598   0.58251   0.50000   0.00000  Uiso   1.00
H186   H     0.86992   0.53646   0.50000   0.00000  Uiso   1.00
H187   H     0.87183   0.39204   0.50000   0.00000  Uiso   1.00
H188   H     0.79293   0.35710   0.50000   0.00000  Uiso   1.00
H189   H     0.11321   0.49644   0.50000   0.00000  Uiso   1.00
H190   H     0.14012   0.65329   0.50000   0.00000  Uiso   1.00
H191   H     0.04540   0.61648   0.50000   0.00000  Uiso   1.00
H192   H     0.22048   0.67422   0.50000   0.00000  Uiso   1.00
loop_
_geom_bond_atom_site_label_1
_geom_bond_atom_site_label_2
_geom_bond_distance
_geom_bond_site_symmetry_2
_ccdc_geom_bond_type
C1     C2      1.410   .     D
C1     N6      1.358   .     S
C1     C13     1.487   .     S
C2     C3      1.389   .     S
C2     H25     1.089   .     S
C3     C4      1.403   .     D
C3     H26     1.091   .     S
C4     C5      1.409   .     S
C4     N7      1.403   .     S
C5     N6      1.335   .     D
C5     H27     1.093   .     S
N7     C8      1.348   .     S
N7     H12     1.049   .     S
C8     C9      1.389   .     D
C8     H28     1.090   .     S
C9     C10     1.461   1_545 S
C9     C74     1.467   1_655 S
C10    C41     1.467   .     S
C10    O43     1.263   .     D
C10    C9      1.461   1_565 S
O11    C74     1.263   .     D
C13    N14     1.359   .     D
C13    C18     1.411   .     S
N14    C15     1.331   .     S
C15    C16     1.410   .     D
C15    H29     1.096   .     S
C16    C17     1.403   .     S
C16    N19     1.395   .     S
C17    C18     1.392   .     D
C17    H30     1.090   .     S
C18    H31     1.090   .     S
N19    C20     1.340   .     S
N19    H24     1.051   .     S
C20    C21     1.392   .     D
C20    H32     1.091   .     S
C21    C22     1.458   .     S
C21    C86     1.461   .     S
C22    C53     1.461   .     S
C22    O55     1.267   .     D
O23    C86     1.267   .     D
C33    C34     1.410   .     D
C33    N38     1.358   .     S
C33    C45     1.487   .     S
C34    C35     1.389   .     S
C34    H57     1.089   .     S
C35    C36     1.403   .     D
C35    H58     1.091   .     S
C36    C37     1.409   .     S
C36    N39     1.403   .     S
C37    N38     1.335   .     D
C37    H59     1.093   .     S
N39    C40     1.348   .     S
N39    H44     1.049   .     S
C40    C41     1.389   .     D
C40    H60     1.090   .     S
C41    C42     1.461   1_655 S
C42    O75     1.263   .     D
C42    C41     1.461   1_455 S
C42    C73     1.467   1_565 S
C45    N46     1.359   .     D
C45    C50     1.411   .     S
N46    C47     1.331   .     S
C47    C48     1.410   .     D
C47    H61     1.096   .     S
C48    C49     1.403   .     S
C48    N51     1.395   .     S
C49    C50     1.392   .     D
C49    H62     1.090   .     S
C50    H63     1.090   .     S
N51    C52     1.340   .     S
N51    H56     1.051   .     S
C52    C53     1.392   .     D
C52    H64     1.091   .     S
C53    C54     1.458   .     S
C54    C85     1.461   .     S
C54    O87     1.267   .     D
C65    C66     1.410   .     D
C65    N70     1.358   .     S
C65    C77     1.487   .     S
C66    C67     1.389   .     S
C66    H89     1.089   .     S
C67    C68     1.403   .     D
C67    H90     1.091   .     S
C68    C69     1.409   .     S
C68    N71     1.403   .     S
C69    N70     1.335   .     D
C69    H91     1.093   .     S
N71    C72     1.348   .     S
N71    H76     1.049   .     S
C72    C73     1.389   .     D
C72    H92     1.090   .     S
C73    C74     1.461   .     S
C73    C42     1.467   1_545 S
C74    C9      1.467   1_455 S
C77    N78     1.359   .     D
C77    C82     1.411   .     S
N78    C79     1.331   .     S
C79    C80     1.410   .     D
C79    H93     1.096   .     S
C80    C81     1.403   .     S
C80    N83     1.395   .     S
C81    C82     1.392   .     D
C81    H94     1.090   .     S
C82    H95     1.090   .     S
N83    C84     1.340   .     S
N83    H88     1.051   .     S
C84    C85     1.392   .     D
C84    H96     1.091   .     S
C85    C86     1.458   .     S
C97    C98     1.411   .     D
C97    N102    1.357   .     S
C97    C109    1.487   .     S
C98    C99     1.391   .     S
C98    H121    1.090   .     S
C99    C100    1.404   .     D
C99    H122    1.092   .     S
C100   C101    1.410   .     S
C100   N103    1.402   .     S
C101   N102    1.334   .     D
C101   H123    1.092   .     S
N103   C104    1.348   .     S
N103   H108    1.050   .     S
C104   C105    1.385   .     D
C104   H124    1.088   .     S
C105   C106    1.458   .     S
C105   C170    1.463   .     S
C106   C137    1.463   .     S
C106   O139    1.266   .     D
O107   C170    1.266   .     D
C109   N110    1.359   .     D
C109   C114    1.410   .     S
N110   C111    1.332   .     S
C111   C112    1.409   .     D
C111   H125    1.096   .     S
C112   C113    1.403   .     S
C112   N115    1.400   .     S
C113   C114    1.391   .     D
C113   H126    1.090   .     S
C114   H127    1.089   .     S
N115   C116    1.346   .     S
N115   H120    1.051   .     S
C116   C117    1.390   .     D
C116   H128    1.091   .     S
C117   C118    1.462   .     S
C117   C182    1.467   .     S
C118   C149    1.467   .     S
C118   O151    1.264   .     D
O119   C182    1.264   .     D
C129   C130    1.411   .     D
C129   N134    1.357   .     S
C129   C141    1.487   1_545 S
C130   C131    1.391   .     S
C130   H153    1.090   .     S
C131   C132    1.404   .     D
C131   H154    1.092   .     S
C132   C133    1.410   .     S
C132   N135    1.402   .     S
C133   N134    1.334   .     D
C133   H155    1.092   .     S
N135   C136    1.348   .     S
N135   H140    1.050   .     S
C136   C137    1.385   .     D
C136   H156    1.088   .     S
C137   C138    1.458   .     S
C138   C169    1.463   .     S
C138   O171    1.266   .     D
C141   N142    1.359   .     D
C141   C146    1.410   .     S
C141   C129    1.487   1_565 S
N142   C143    1.332   .     S
C143   C144    1.409   .     D
C143   H157    1.096   .     S
C144   C145    1.403   .     S
C144   N147    1.400   .     S
C145   C146    1.391   .     D
C145   H158    1.090   .     S
C146   H159    1.089   .     S
N147   C148    1.346   .     S
N147   H152    1.051   .     S
C148   C149    1.390   .     D
C148   H160    1.091   .     S
C149   C150    1.462   .     S
C150   C181    1.467   .     S
C150   O183    1.264   .     D
C161   C162    1.411   .     D
C161   N166    1.357   .     S
C161   C173    1.487   1_655 S
C162   C163    1.391   .     S
C162   H185    1.090   .     S
C163   C164    1.404   .     D
C163   H186    1.092   .     S
C164   C165    1.410   .     S
C164   N167    1.402   .     S
C165   N166    1.334   .     D
C165   H187    1.092   .     S
N167   C168    1.348   .     S
N167   H172    1.050   .     S
C168   C169    1.385   .     D
C168   H188    1.088   .     S
C169   C170    1.458   .     S
C173   N174    1.359   .     D
C173   C178    1.410   .     S
C173   C161    1.487   1_455 S
N174   C175    1.332   .     S
C175   C176    1.409   .     D
C175   H189    1.096   .     S
C176   C177    1.403   .     S
C176   N179    1.400   .     S
C177   C178    1.391   .     D
C177   H190    1.090   .     S
C178   H191    1.089   .     S
N179   C180    1.346   .     S
N179   H184    1.051   .     S
C180   C181    1.390   .     D
C180   H192    1.091   .     S
C181   C182    1.462   .     S
