data_1169
_audit_creation_date              2023-09-08
_audit_creation_method            'Materials Studio'
_symmetry_space_group_name_H-M    'P1'
_symmetry_Int_Tables_number       1
_symmetry_cell_setting            triclinic
loop_
_symmetry_equiv_pos_as_xyz
  x,y,z
_cell_length_a                    28.7810
_cell_length_b                    28.7810
_cell_length_c                    3.5954
_cell_angle_alpha                 90.0000
_cell_angle_beta                  90.0000
_cell_angle_gamma                 120.0000
loop_
_atom_site_label
_atom_site_type_symbol
_atom_site_fract_x
_atom_site_fract_y
_atom_site_fract_z
_atom_site_U_iso_or_equiv
_atom_site_adp_type
_atom_site_occupancy
C1     C     0.72406   0.36341   0.50000   0.00000  Uiso   1.00
C2     C     0.69460   0.39125   0.50000   0.00000  Uiso   1.00
O3     O     0.71734   0.44005   0.50000   0.00000  Uiso   1.00
C4     C     0.77560   0.38743   0.50000   0.00000  Uiso   1.00
N5     N     0.81128   0.44314   0.50000   0.00000  Uiso   1.00
C6     C     0.86599   0.46069   0.50000   0.00000  Uiso   1.00
C7     C     0.88424   0.42341   0.50000   0.00000  Uiso   1.00
C8     C     0.93572   0.43926   0.50000   0.00000  Uiso   1.00
C9     C     0.97250   0.49294   0.50000   0.00000  Uiso   1.00
C10    C     0.95542   0.53154   0.50000   0.00000  Uiso   1.00
C11    C     0.90218   0.51541   0.50000   0.00000  Uiso   1.00
C12    C     0.88604   0.55566   0.50000   0.00000  Uiso   1.00
N13    N     0.87327   0.58791   0.50000   0.00000  Uiso   1.00
H14    H     0.79033   0.36108   0.50000   0.00000  Uiso   1.00
H15    H     0.80037   0.47236   0.50000   0.00000  Uiso   1.00
H16    H     0.86264   0.38054   0.50000   0.00000  Uiso   1.00
H17    H     0.94414   0.40698   0.50000   0.00000  Uiso   1.00
H18    H     0.98086   0.57429   0.50000   0.00000  Uiso   1.00
C19    C     0.63659   0.36065   0.50000   0.00000  Uiso   1.00
C20    C     0.60875   0.30335   0.50000   0.00000  Uiso   1.00
O21    O     0.55995   0.27729   0.50000   0.00000  Uiso   1.00
C22    C     0.61257   0.38817   0.50000   0.00000  Uiso   1.00
N23    N     0.55686   0.36814   0.50000   0.00000  Uiso   1.00
C24    C     0.53931   0.40530   0.50000   0.00000  Uiso   1.00
C25    C     0.57659   0.46083   0.50000   0.00000  Uiso   1.00
C26    C     0.56074   0.49646   0.50000   0.00000  Uiso   1.00
C27    C     0.50706   0.47956   0.50000   0.00000  Uiso   1.00
C28    C     0.46846   0.42388   0.50000   0.00000  Uiso   1.00
C29    C     0.48459   0.38677   0.50000   0.00000  Uiso   1.00
C30    C     0.44434   0.33038   0.50000   0.00000  Uiso   1.00
N31    N     0.41209   0.28536   0.50000   0.00000  Uiso   1.00
H32    H     0.63892   0.42925   0.50000   0.00000  Uiso   1.00
H33    H     0.52764   0.32801   0.50000   0.00000  Uiso   1.00
H34    H     0.61946   0.48210   0.50000   0.00000  Uiso   1.00
H35    H     0.59302   0.53716   0.50000   0.00000  Uiso   1.00
H36    H     0.42571   0.40657   0.50000   0.00000  Uiso   1.00
C37    C     0.63935   0.27594   0.50000   0.00000  Uiso   1.00
C38    C     0.69665   0.30540   0.50000   0.00000  Uiso   1.00
O39    O     0.72271   0.28266   0.50000   0.00000  Uiso   1.00
C40    C     0.61183   0.22440   0.50000   0.00000  Uiso   1.00
N41    N     0.63186   0.18872   0.50000   0.00000  Uiso   1.00
C42    C     0.59470   0.13401   0.50000   0.00000  Uiso   1.00
C43    C     0.53917   0.11576   0.50000   0.00000  Uiso   1.00
C44    C     0.50354   0.06428   0.50000   0.00000  Uiso   1.00
C45    C     0.52044   0.02750   0.50000   0.00000  Uiso   1.00
C46    C     0.57612   0.04458   0.50000   0.00000  Uiso   1.00
C47    C     0.61323   0.09782   0.50000   0.00000  Uiso   1.00
C48    C     0.66962   0.11396   0.50000   0.00000  Uiso   1.00
N49    N     0.71464   0.12673   0.50000   0.00000  Uiso   1.00
H50    H     0.57075   0.20967   0.50000   0.00000  Uiso   1.00
H51    H     0.67199   0.19963   0.50000   0.00000  Uiso   1.00
H52    H     0.51790   0.13736   0.50000   0.00000  Uiso   1.00
H53    H     0.46284   0.05586   0.50000   0.00000  Uiso   1.00
H54    H     0.59343   0.01914   0.50000   0.00000  Uiso   1.00
C55    C     0.27594   0.63659   0.50000   0.00000  Uiso   1.00
C56    C     0.30540   0.60875   0.50000   0.00000  Uiso   1.00
O57    O     0.28266   0.55995   0.50000   0.00000  Uiso   1.00
C58    C     0.22440   0.61257   0.50000   0.00000  Uiso   1.00
N59    N     0.18872   0.55686   0.50000   0.00000  Uiso   1.00
C60    C     0.13401   0.53931   0.50000   0.00000  Uiso   1.00
C61    C     0.11576   0.57659   0.50000   0.00000  Uiso   1.00
C62    C     0.06428   0.56074   0.50000   0.00000  Uiso   1.00
C63    C     0.02750   0.50706   0.50000   0.00000  Uiso   1.00
C64    C     0.04458   0.46846   0.50000   0.00000  Uiso   1.00
C65    C     0.09782   0.48459   0.50000   0.00000  Uiso   1.00
C66    C     0.11396   0.44434   0.50000   0.00000  Uiso   1.00
N67    N     0.12673   0.41209   0.50000   0.00000  Uiso   1.00
H68    H     0.20967   0.63892   0.50000   0.00000  Uiso   1.00
H69    H     0.19963   0.52764   0.50000   0.00000  Uiso   1.00
H70    H     0.13736   0.61946   0.50000   0.00000  Uiso   1.00
H71    H     0.05586   0.59302   0.50000   0.00000  Uiso   1.00
H72    H     0.01914   0.42571   0.50000   0.00000  Uiso   1.00
C73    C     0.36341   0.63935   0.50000   0.00000  Uiso   1.00
C74    C     0.39125   0.69665   0.50000   0.00000  Uiso   1.00
O75    O     0.44005   0.72271   0.50000   0.00000  Uiso   1.00
C76    C     0.38743   0.61183   0.50000   0.00000  Uiso   1.00
N77    N     0.44314   0.63186   0.50000   0.00000  Uiso   1.00
C78    C     0.46069   0.59470   0.50000   0.00000  Uiso   1.00
C79    C     0.42341   0.53917   0.50000   0.00000  Uiso   1.00
C80    C     0.43926   0.50354   0.50000   0.00000  Uiso   1.00
C81    C     0.49294   0.52044   0.50000   0.00000  Uiso   1.00
C82    C     0.53154   0.57612   0.50000   0.00000  Uiso   1.00
C83    C     0.51541   0.61323   0.50000   0.00000  Uiso   1.00
C84    C     0.55566   0.66962   0.50000   0.00000  Uiso   1.00
N85    N     0.58791   0.71464   0.50000   0.00000  Uiso   1.00
H86    H     0.36108   0.57075   0.50000   0.00000  Uiso   1.00
H87    H     0.47236   0.67199   0.50000   0.00000  Uiso   1.00
H88    H     0.38054   0.51790   0.50000   0.00000  Uiso   1.00
H89    H     0.40698   0.46284   0.50000   0.00000  Uiso   1.00
H90    H     0.57429   0.59343   0.50000   0.00000  Uiso   1.00
C91    C     0.36065   0.72406   0.50000   0.00000  Uiso   1.00
C92    C     0.30335   0.69460   0.50000   0.00000  Uiso   1.00
O93    O     0.27729   0.71734   0.50000   0.00000  Uiso   1.00
C94    C     0.38817   0.77560   0.50000   0.00000  Uiso   1.00
N95    N     0.36814   0.81128   0.50000   0.00000  Uiso   1.00
C96    C     0.40530   0.86599   0.50000   0.00000  Uiso   1.00
C97    C     0.46083   0.88424   0.50000   0.00000  Uiso   1.00
C98    C     0.49646   0.93572   0.50000   0.00000  Uiso   1.00
C99    C     0.47956   0.97250   0.50000   0.00000  Uiso   1.00
C100   C     0.42388   0.95542   0.50000   0.00000  Uiso   1.00
C101   C     0.38677   0.90218   0.50000   0.00000  Uiso   1.00
C102   C     0.33038   0.88604   0.50000   0.00000  Uiso   1.00
N103   N     0.28536   0.87327   0.50000   0.00000  Uiso   1.00
H104   H     0.42925   0.79033   0.50000   0.00000  Uiso   1.00
H105   H     0.32801   0.80037   0.50000   0.00000  Uiso   1.00
H106   H     0.48210   0.86264   0.50000   0.00000  Uiso   1.00
H107   H     0.53716   0.94414   0.50000   0.00000  Uiso   1.00
H108   H     0.40657   0.98086   0.50000   0.00000  Uiso   1.00
loop_
_geom_bond_atom_site_label_1
_geom_bond_atom_site_label_2
_geom_bond_distance
_geom_bond_site_symmetry_2
_ccdc_geom_bond_type
C1     C2      1.428   .     S
C1     C4      1.286   .     D
C1     C38     1.447   .     S
C2     O3      1.217   .     D
C2     C19     1.447   .     S
C4     N5      1.407   .     S
C4     H14     1.037   .     S
N5     C6      1.393   .     S
N5     H15     1.034   .     S
C6     C7      1.411   .     D
C6     C11     1.387   .     S
C7     C8      1.314   .     S
C7     H16     1.069   .     S
C8     C9      1.368   .     D
C8     H17     1.071   .     S
C9     C10     1.422   .     S
C9     C63     1.424   1_655 S
C10    C11     1.361   .     D
C10    H18     1.072   .     S
C11    C12     1.448   .     S
C12    N13     1.157   .     T
C19    C20     1.428   .     S
C19    C22     1.286   .     D
C20    O21     1.217   .     D
C20    C37     1.447   .     S
C22    N23     1.407   .     S
C22    H32     1.037   .     S
N23    C24     1.393   .     S
N23    H33     1.034   .     S
C24    C25     1.411   .     D
C24    C29     1.387   .     S
C25    C26     1.314   .     S
C25    H34     1.069   .     S
C26    C27     1.368   .     D
C26    H35     1.071   .     S
C27    C28     1.422   .     S
C27    C81     1.424   .     S
C28    C29     1.361   .     D
C28    H36     1.072   .     S
C29    C30     1.448   .     S
C30    N31     1.157   .     T
C37    C38     1.428   .     S
C37    C40     1.286   .     D
C38    O39     1.217   .     D
C40    N41     1.407   .     S
C40    H50     1.037   .     S
N41    C42     1.393   .     S
N41    H51     1.034   .     S
C42    C43     1.411   .     D
C42    C47     1.387   .     S
C43    C44     1.314   .     S
C43    H52     1.069   .     S
C44    C45     1.368   .     D
C44    H53     1.071   .     S
C45    C46     1.422   .     S
C45    C99     1.424   1_545 S
C46    C47     1.361   .     D
C46    H54     1.072   .     S
C47    C48     1.448   .     S
C48    N49     1.157   .     T
C55    C56     1.428   .     S
C55    C58     1.286   .     D
C55    C92     1.447   .     S
C56    O57     1.217   .     D
C56    C73     1.447   .     S
C58    N59     1.407   .     S
C58    H68     1.037   .     S
N59    C60     1.393   .     S
N59    H69     1.034   .     S
C60    C61     1.411   .     D
C60    C65     1.387   .     S
C61    C62     1.314   .     S
C61    H70     1.069   .     S
C62    C63     1.368   .     D
C62    H71     1.071   .     S
C63    C64     1.422   .     S
C63    C9      1.424   1_455 S
C64    C65     1.361   .     D
C64    H72     1.072   .     S
C65    C66     1.448   .     S
C66    N67     1.157   .     T
C73    C74     1.428   .     S
C73    C76     1.286   .     D
C74    O75     1.217   .     D
C74    C91     1.447   .     S
C76    N77     1.407   .     S
C76    H86     1.037   .     S
N77    C78     1.393   .     S
N77    H87     1.034   .     S
C78    C79     1.411   .     D
C78    C83     1.387   .     S
C79    C80     1.314   .     S
C79    H88     1.069   .     S
C80    C81     1.368   .     D
C80    H89     1.071   .     S
C81    C82     1.422   .     S
C82    C83     1.361   .     D
C82    H90     1.072   .     S
C83    C84     1.448   .     S
C84    N85     1.157   .     T
C91    C92     1.428   .     S
C91    C94     1.286   .     D
C92    O93     1.217   .     D
C94    N95     1.407   .     S
C94    H104    1.037   .     S
N95    C96     1.393   .     S
N95    H105    1.034   .     S
C96    C97     1.411   .     S
C96    C101    1.387   .     D
C97    C98     1.314   .     D
C97    H106    1.069   .     S
C98    C99     1.368   .     S
C98    H107    1.071   .     S
C99    C100    1.422   .     D
C99    C45     1.424   1_565 S
C100   C101    1.361   .     S
C100   H108    1.072   .     S
C101   C102    1.448   .     S
C102   N103    1.157   .     T
