data_117
_audit_creation_date              2023-09-08
_audit_creation_method            'Materials Studio'
_symmetry_space_group_name_H-M    'P1'
_symmetry_Int_Tables_number       1
_symmetry_cell_setting            triclinic
loop_
_symmetry_equiv_pos_as_xyz
  x,y,z
_cell_length_a                    31.1302
_cell_length_b                    40.2097
_cell_length_c                    6.6837
_cell_angle_alpha                 90.0000
_cell_angle_beta                  90.0000
_cell_angle_gamma                 90.0000
loop_
_atom_site_label
_atom_site_type_symbol
_atom_site_fract_x
_atom_site_fract_y
_atom_site_fract_z
_atom_site_U_iso_or_equiv
_atom_site_adp_type
_atom_site_occupancy
C1     C     0.39288   0.41513  -0.18054   0.00000  Uiso   1.00
H2     H     0.40376   0.42381  -0.32758   0.00000  Uiso   1.00
C3     C     0.36616   0.39385  -0.18047   0.00000  Uiso   1.00
H4     H     0.35526   0.38523  -0.32763   0.00000  Uiso   1.00
C5     C     0.89288   0.91513  -0.18054   0.00000  Uiso   1.00
H6     H     0.90376   0.92381  -0.32758   0.00000  Uiso   1.00
C7     C     0.86616   0.89385  -0.18047   0.00000  Uiso   1.00
H8     H     0.85526   0.88523  -0.32763   0.00000  Uiso   1.00
C9     C     0.60712   0.58487  -0.18054   0.00000  Uiso   1.00
H10    H     0.59624   0.57619  -0.32758   0.00000  Uiso   1.00
C11    C     0.63384   0.60615  -0.18047   0.00000  Uiso   1.00
H12    H     0.64474   0.61477  -0.32763   0.00000  Uiso   1.00
C13    C     0.10712   0.08487  -0.18054   0.00000  Uiso   1.00
H14    H     0.09624   0.07619  -0.32758   0.00000  Uiso   1.00
C15    C     0.13384   0.10615  -0.18047   0.00000  Uiso   1.00
H16    H     0.14474   0.11477  -0.32763   0.00000  Uiso   1.00
C17    C     0.60712   0.41513   0.18054   0.00000  Uiso   1.00
H18    H     0.59624   0.42381   0.32758   0.00000  Uiso   1.00
C19    C     0.63384   0.39385   0.18047   0.00000  Uiso   1.00
H20    H     0.64474   0.38523   0.32763   0.00000  Uiso   1.00
C21    C     0.10712   0.91513   0.18054   0.00000  Uiso   1.00
H22    H     0.09624   0.92381   0.32758   0.00000  Uiso   1.00
C23    C     0.13384   0.89385   0.18047   0.00000  Uiso   1.00
H24    H     0.14474   0.88523   0.32763   0.00000  Uiso   1.00
C25    C     0.39288   0.58487   0.18054   0.00000  Uiso   1.00
H26    H     0.40376   0.57619   0.32758   0.00000  Uiso   1.00
C27    C     0.36616   0.60615   0.18047   0.00000  Uiso   1.00
H28    H     0.35526   0.61477   0.32763   0.00000  Uiso   1.00
C29    C     0.89288   0.08487   0.18054   0.00000  Uiso   1.00
H30    H     0.90376   0.07619   0.32758   0.00000  Uiso   1.00
C31    C     0.86616   0.10615   0.18047   0.00000  Uiso   1.00
H32    H     0.85526   0.11477   0.32763   0.00000  Uiso   1.00
C33    C     0.60712   0.58487   0.18054   0.00000  Uiso   1.00
H34    H     0.59624   0.57619   0.32758   0.00000  Uiso   1.00
C35    C     0.63384   0.60615   0.18047   0.00000  Uiso   1.00
H36    H     0.64474   0.61477   0.32763   0.00000  Uiso   1.00
C37    C     0.10712   0.08487   0.18054   0.00000  Uiso   1.00
H38    H     0.09624   0.07619   0.32758   0.00000  Uiso   1.00
C39    C     0.13384   0.10615   0.18047   0.00000  Uiso   1.00
H40    H     0.14474   0.11477   0.32763   0.00000  Uiso   1.00
C41    C     0.39288   0.41513   0.18054   0.00000  Uiso   1.00
H42    H     0.40376   0.42381   0.32758   0.00000  Uiso   1.00
C43    C     0.36616   0.39385   0.18047   0.00000  Uiso   1.00
H44    H     0.35526   0.38523   0.32763   0.00000  Uiso   1.00
C45    C     0.89288   0.91513   0.18054   0.00000  Uiso   1.00
H46    H     0.90376   0.92381   0.32758   0.00000  Uiso   1.00
C47    C     0.86616   0.89385   0.18047   0.00000  Uiso   1.00
H48    H     0.85526   0.88523   0.32763   0.00000  Uiso   1.00
C49    C     0.39288   0.58487  -0.18054   0.00000  Uiso   1.00
H50    H     0.40376   0.57619  -0.32758   0.00000  Uiso   1.00
C51    C     0.36616   0.60615  -0.18047   0.00000  Uiso   1.00
H52    H     0.35526   0.61477  -0.32763   0.00000  Uiso   1.00
C53    C     0.89288   0.08487  -0.18054   0.00000  Uiso   1.00
H54    H     0.90376   0.07619  -0.32758   0.00000  Uiso   1.00
C55    C     0.86616   0.10615  -0.18047   0.00000  Uiso   1.00
H56    H     0.85526   0.11477  -0.32763   0.00000  Uiso   1.00
C57    C     0.60712   0.41513  -0.18054   0.00000  Uiso   1.00
H58    H     0.59624   0.42381  -0.32758   0.00000  Uiso   1.00
C59    C     0.63384   0.39385  -0.18047   0.00000  Uiso   1.00
H60    H     0.64474   0.38523  -0.32763   0.00000  Uiso   1.00
C61    C     0.10712   0.91513  -0.18054   0.00000  Uiso   1.00
H62    H     0.09624   0.92381  -0.32758   0.00000  Uiso   1.00
C63    C     0.13384   0.89385  -0.18047   0.00000  Uiso   1.00
H64    H     0.14474   0.88523  -0.32763   0.00000  Uiso   1.00
Co65   Co    0.50000   0.50000   0.00000   0.00000  Uiso   1.00
Co66   Co    0.00000   0.00000   0.00000   0.00000  Uiso   1.00
N67    N     0.50000   0.45796   0.00000   0.00000  Uiso   1.00
N68    N     0.00000   0.95796   0.00000   0.00000  Uiso   1.00
N69    N     0.50000   0.54204   0.00000   0.00000  Uiso   1.00
N70    N     0.00000   0.04204   0.00000   0.00000  Uiso   1.00
N71    N     0.44691   0.50000   0.00000   0.00000  Uiso   1.00
N72    N     0.94691   0.00000   0.00000   0.00000  Uiso   1.00
N73    N     0.55309   0.50000   0.00000   0.00000  Uiso   1.00
N74    N     0.05309   0.00000   0.00000   0.00000  Uiso   1.00
N75    N     0.33419   0.33400   0.00000   0.00000  Uiso   1.00
C76    C     0.48162   0.41157   0.00000   0.00000  Uiso   1.00
H77    H     0.46617   0.39038   0.00000   0.00000  Uiso   1.00
C78    C     0.47095   0.44006   0.00000   0.00000  Uiso   1.00
C79    C     0.43481   0.44837   0.00000   0.00000  Uiso   1.00
C80    C     0.42431   0.47700   0.00000   0.00000  Uiso   1.00
C81    C     0.38833   0.48545   0.00000   0.00000  Uiso   1.00
H82    H     0.36157   0.47321   0.00000   0.00000  Uiso   1.00
C83    C     0.40635   0.42583   0.00000   0.00000  Uiso   1.00
C84    C     0.35278   0.38313   0.00000   0.00000  Uiso   1.00
C85    C     0.32481   0.36086   0.00000   0.00000  Uiso   1.00
H86    H     0.29495   0.36713   0.00000   0.00000  Uiso   1.00
C87    C     0.30941   0.31027   0.00000   0.00000  Uiso   1.00
C88    C     0.32338   0.28238   0.00000   0.00000  Uiso   1.00
H89    H     0.35396   0.27883   0.00000   0.00000  Uiso   1.00
C90    C     0.30010   0.25873   0.00000   0.00000  Uiso   1.00
H91    H     0.31171   0.23605   0.00000   0.00000  Uiso   1.00
C92    C     0.26234   0.26255   0.00000   0.00000  Uiso   1.00
C93    C     0.24841   0.29060   0.00000   0.00000  Uiso   1.00
H94    H     0.21781   0.29398   0.00000   0.00000  Uiso   1.00
C95    C     0.27169   0.31425   0.00000   0.00000  Uiso   1.00
H96    H     0.25991   0.33687   0.00000   0.00000  Uiso   1.00
N97    N     0.83419   0.83400   0.00000   0.00000  Uiso   1.00
C98    C     0.98162   0.91157   0.00000   0.00000  Uiso   1.00
H99    H     0.96617   0.89038   0.00000   0.00000  Uiso   1.00
C100   C     0.97095   0.94006   0.00000   0.00000  Uiso   1.00
C101   C     0.93481   0.94837   0.00000   0.00000  Uiso   1.00
C102   C     0.92431   0.97700   0.00000   0.00000  Uiso   1.00
C103   C     0.88833   0.98545   0.00000   0.00000  Uiso   1.00
H104   H     0.86157   0.97321   0.00000   0.00000  Uiso   1.00
C105   C     0.90635   0.92583   0.00000   0.00000  Uiso   1.00
C106   C     0.85278   0.88313   0.00000   0.00000  Uiso   1.00
C107   C     0.82481   0.86086   0.00000   0.00000  Uiso   1.00
H108   H     0.79495   0.86713   0.00000   0.00000  Uiso   1.00
C109   C     0.80941   0.81027   0.00000   0.00000  Uiso   1.00
C110   C     0.82338   0.78238   0.00000   0.00000  Uiso   1.00
H111   H     0.85396   0.77883   0.00000   0.00000  Uiso   1.00
C112   C     0.80010   0.75873   0.00000   0.00000  Uiso   1.00
H113   H     0.81171   0.73605   0.00000   0.00000  Uiso   1.00
C114   C     0.76234   0.76255   0.00000   0.00000  Uiso   1.00
C115   C     0.74841   0.79060   0.00000   0.00000  Uiso   1.00
H116   H     0.71781   0.79398   0.00000   0.00000  Uiso   1.00
C117   C     0.77169   0.81425   0.00000   0.00000  Uiso   1.00
H118   H     0.75991   0.83687   0.00000   0.00000  Uiso   1.00
N119   N     0.66581   0.66600   0.00000   0.00000  Uiso   1.00
C120   C     0.51838   0.58843   0.00000   0.00000  Uiso   1.00
H121   H     0.53383   0.60962   0.00000   0.00000  Uiso   1.00
C122   C     0.52905   0.55994   0.00000   0.00000  Uiso   1.00
C123   C     0.56519   0.55163   0.00000   0.00000  Uiso   1.00
C124   C     0.57569   0.52300   0.00000   0.00000  Uiso   1.00
C125   C     0.61167   0.51455   0.00000   0.00000  Uiso   1.00
H126   H     0.63843   0.52679   0.00000   0.00000  Uiso   1.00
C127   C     0.59365   0.57417   0.00000   0.00000  Uiso   1.00
C128   C     0.64722   0.61687   0.00000   0.00000  Uiso   1.00
C129   C     0.67519   0.63914   0.00000   0.00000  Uiso   1.00
H130   H     0.70505   0.63287   0.00000   0.00000  Uiso   1.00
C131   C     0.69059   0.68973   0.00000   0.00000  Uiso   1.00
C132   C     0.67662   0.71762   0.00000   0.00000  Uiso   1.00
H133   H     0.64604   0.72117   0.00000   0.00000  Uiso   1.00
C134   C     0.69990   0.74127   0.00000   0.00000  Uiso   1.00
H135   H     0.68829   0.76395   0.00000   0.00000  Uiso   1.00
C136   C     0.73766   0.73745   0.00000   0.00000  Uiso   1.00
C137   C     0.75159   0.70940   0.00000   0.00000  Uiso   1.00
H138   H     0.78219   0.70602   0.00000   0.00000  Uiso   1.00
C139   C     0.72831   0.68575   0.00000   0.00000  Uiso   1.00
H140   H     0.74009   0.66313   0.00000   0.00000  Uiso   1.00
N141   N     0.16581   0.16600   0.00000   0.00000  Uiso   1.00
C142   C     0.01838   0.08843   0.00000   0.00000  Uiso   1.00
H143   H     0.03383   0.10962   0.00000   0.00000  Uiso   1.00
C144   C     0.02905   0.05994   0.00000   0.00000  Uiso   1.00
C145   C     0.06519   0.05163   0.00000   0.00000  Uiso   1.00
C146   C     0.07569   0.02300   0.00000   0.00000  Uiso   1.00
C147   C     0.11167   0.01455   0.00000   0.00000  Uiso   1.00
H148   H     0.13843   0.02679   0.00000   0.00000  Uiso   1.00
C149   C     0.09365   0.07417   0.00000   0.00000  Uiso   1.00
C150   C     0.14722   0.11687   0.00000   0.00000  Uiso   1.00
C151   C     0.17519   0.13914   0.00000   0.00000  Uiso   1.00
H152   H     0.20505   0.13287   0.00000   0.00000  Uiso   1.00
C153   C     0.19059   0.18973   0.00000   0.00000  Uiso   1.00
C154   C     0.17662   0.21762   0.00000   0.00000  Uiso   1.00
H155   H     0.14604   0.22117   0.00000   0.00000  Uiso   1.00
C156   C     0.19990   0.24127   0.00000   0.00000  Uiso   1.00
H157   H     0.18829   0.26395   0.00000   0.00000  Uiso   1.00
C158   C     0.23766   0.23745   0.00000   0.00000  Uiso   1.00
C159   C     0.25159   0.20940   0.00000   0.00000  Uiso   1.00
H160   H     0.28219   0.20602   0.00000   0.00000  Uiso   1.00
C161   C     0.22831   0.18575   0.00000   0.00000  Uiso   1.00
H162   H     0.24009   0.16313   0.00000   0.00000  Uiso   1.00
N163   N     0.66581   0.33400   0.00000   0.00000  Uiso   1.00
C164   C     0.51838   0.41157   0.00000   0.00000  Uiso   1.00
H165   H     0.53383   0.39038   0.00000   0.00000  Uiso   1.00
C166   C     0.52905   0.44006   0.00000   0.00000  Uiso   1.00
C167   C     0.56519   0.44837   0.00000   0.00000  Uiso   1.00
C168   C     0.57569   0.47700   0.00000   0.00000  Uiso   1.00
C169   C     0.61167   0.48545   0.00000   0.00000  Uiso   1.00
H170   H     0.63843   0.47321   0.00000   0.00000  Uiso   1.00
C171   C     0.59365   0.42583   0.00000   0.00000  Uiso   1.00
C172   C     0.64722   0.38313   0.00000   0.00000  Uiso   1.00
C173   C     0.67519   0.36086   0.00000   0.00000  Uiso   1.00
H174   H     0.70505   0.36713   0.00000   0.00000  Uiso   1.00
C175   C     0.69059   0.31027   0.00000   0.00000  Uiso   1.00
C176   C     0.67662   0.28238   0.00000   0.00000  Uiso   1.00
H177   H     0.64604   0.27883   0.00000   0.00000  Uiso   1.00
C178   C     0.69990   0.25873   0.00000   0.00000  Uiso   1.00
H179   H     0.68829   0.23605   0.00000   0.00000  Uiso   1.00
C180   C     0.73766   0.26255   0.00000   0.00000  Uiso   1.00
C181   C     0.75159   0.29060   0.00000   0.00000  Uiso   1.00
H182   H     0.78219   0.29398   0.00000   0.00000  Uiso   1.00
C183   C     0.72831   0.31425   0.00000   0.00000  Uiso   1.00
H184   H     0.74009   0.33687   0.00000   0.00000  Uiso   1.00
N185   N     0.16581   0.83400   0.00000   0.00000  Uiso   1.00
C186   C     0.01838   0.91157   0.00000   0.00000  Uiso   1.00
H187   H     0.03383   0.89038   0.00000   0.00000  Uiso   1.00
C188   C     0.02905   0.94006   0.00000   0.00000  Uiso   1.00
C189   C     0.06519   0.94837   0.00000   0.00000  Uiso   1.00
C190   C     0.07569   0.97700   0.00000   0.00000  Uiso   1.00
C191   C     0.11167   0.98545   0.00000   0.00000  Uiso   1.00
H192   H     0.13843   0.97321   0.00000   0.00000  Uiso   1.00
C193   C     0.09365   0.92583   0.00000   0.00000  Uiso   1.00
C194   C     0.14722   0.88313   0.00000   0.00000  Uiso   1.00
C195   C     0.17519   0.86086   0.00000   0.00000  Uiso   1.00
H196   H     0.20505   0.86713   0.00000   0.00000  Uiso   1.00
C197   C     0.19059   0.81027   0.00000   0.00000  Uiso   1.00
C198   C     0.17662   0.78238   0.00000   0.00000  Uiso   1.00
H199   H     0.14604   0.77883   0.00000   0.00000  Uiso   1.00
C200   C     0.19990   0.75873   0.00000   0.00000  Uiso   1.00
H201   H     0.18829   0.73605   0.00000   0.00000  Uiso   1.00
C202   C     0.23766   0.76255   0.00000   0.00000  Uiso   1.00
C203   C     0.25159   0.79060   0.00000   0.00000  Uiso   1.00
H204   H     0.28219   0.79398   0.00000   0.00000  Uiso   1.00
C205   C     0.22831   0.81425   0.00000   0.00000  Uiso   1.00
H206   H     0.24009   0.83687   0.00000   0.00000  Uiso   1.00
N207   N     0.33419   0.66600   0.00000   0.00000  Uiso   1.00
C208   C     0.48162   0.58843   0.00000   0.00000  Uiso   1.00
H209   H     0.46617   0.60962   0.00000   0.00000  Uiso   1.00
C210   C     0.47095   0.55994   0.00000   0.00000  Uiso   1.00
C211   C     0.43481   0.55163   0.00000   0.00000  Uiso   1.00
C212   C     0.42431   0.52300   0.00000   0.00000  Uiso   1.00
C213   C     0.38833   0.51455   0.00000   0.00000  Uiso   1.00
H214   H     0.36157   0.52679   0.00000   0.00000  Uiso   1.00
C215   C     0.40635   0.57417   0.00000   0.00000  Uiso   1.00
C216   C     0.35278   0.61687   0.00000   0.00000  Uiso   1.00
C217   C     0.32481   0.63914   0.00000   0.00000  Uiso   1.00
H218   H     0.29495   0.63287   0.00000   0.00000  Uiso   1.00
C219   C     0.30941   0.68973   0.00000   0.00000  Uiso   1.00
C220   C     0.32338   0.71762   0.00000   0.00000  Uiso   1.00
H221   H     0.35396   0.72117   0.00000   0.00000  Uiso   1.00
C222   C     0.30010   0.74127   0.00000   0.00000  Uiso   1.00
H223   H     0.31171   0.76395   0.00000   0.00000  Uiso   1.00
C224   C     0.26234   0.73745   0.00000   0.00000  Uiso   1.00
C225   C     0.24841   0.70940   0.00000   0.00000  Uiso   1.00
H226   H     0.21781   0.70602   0.00000   0.00000  Uiso   1.00
C227   C     0.27169   0.68575   0.00000   0.00000  Uiso   1.00
H228   H     0.25991   0.66313   0.00000   0.00000  Uiso   1.00
N229   N     0.83419   0.16600   0.00000   0.00000  Uiso   1.00
C230   C     0.98162   0.08843   0.00000   0.00000  Uiso   1.00
H231   H     0.96617   0.10962   0.00000   0.00000  Uiso   1.00
C232   C     0.97095   0.05994   0.00000   0.00000  Uiso   1.00
C233   C     0.93481   0.05163   0.00000   0.00000  Uiso   1.00
C234   C     0.92431   0.02300   0.00000   0.00000  Uiso   1.00
C235   C     0.88833   0.01455   0.00000   0.00000  Uiso   1.00
H236   H     0.86157   0.02679   0.00000   0.00000  Uiso   1.00
C237   C     0.90635   0.07417   0.00000   0.00000  Uiso   1.00
C238   C     0.85278   0.11687   0.00000   0.00000  Uiso   1.00
C239   C     0.82481   0.13914   0.00000   0.00000  Uiso   1.00
H240   H     0.79495   0.13287   0.00000   0.00000  Uiso   1.00
C241   C     0.80941   0.18973   0.00000   0.00000  Uiso   1.00
C242   C     0.82338   0.21762   0.00000   0.00000  Uiso   1.00
H243   H     0.85396   0.22117   0.00000   0.00000  Uiso   1.00
C244   C     0.80010   0.24127   0.00000   0.00000  Uiso   1.00
H245   H     0.81171   0.26395   0.00000   0.00000  Uiso   1.00
C246   C     0.76234   0.23745   0.00000   0.00000  Uiso   1.00
C247   C     0.74841   0.20940   0.00000   0.00000  Uiso   1.00
H248   H     0.71781   0.20602   0.00000   0.00000  Uiso   1.00
C249   C     0.77169   0.18575   0.00000   0.00000  Uiso   1.00
H250   H     0.75991   0.16313   0.00000   0.00000  Uiso   1.00
loop_
_geom_bond_atom_site_label_1
_geom_bond_atom_site_label_2
_geom_bond_distance
_geom_bond_site_symmetry_2
_ccdc_geom_bond_type
C1     H2      1.097   .     S
C1     C3      1.193   .     D
C1     C83     1.348   .     S
C3     H4      1.097   .     S
C3     C84     1.347   .     S
C5     H6      1.097   .     S
C5     C7      1.193   .     D
C5     C105    1.348   .     S
C7     H8      1.097   .     S
C7     C106    1.347   .     S
C9     H10     1.097   .     S
C9     C11     1.193   .     D
C9     C127    1.348   .     S
C11    H12     1.097   .     S
C11    C128    1.347   .     S
C13    H14     1.097   .     S
C13    C15     1.193   .     D
C13    C149    1.348   .     S
C15    H16     1.097   .     S
C15    C150    1.347   .     S
C17    H18     1.097   .     S
C17    C19     1.193   .     S
C17    C171    1.348   .     D
C19    H20     1.097   .     S
C19    C172    1.347   .     D
C21    H22     1.097   .     S
C21    C23     1.193   .     S
C21    C193    1.348   .     D
C23    H24     1.097   .     S
C23    C194    1.347   .     D
C25    H26     1.097   .     S
C25    C27     1.193   .     S
C25    C215    1.348   .     D
C27    H28     1.097   .     S
C27    C216    1.347   .     D
C29    H30     1.097   .     S
C29    C31     1.193   .     S
C29    C237    1.348   .     D
C31    H32     1.097   .     S
C31    C238    1.347   .     D
C33    H34     1.097   .     S
C33    C35     1.193   .     S
C33    C127    1.348   .     D
C35    H36     1.097   .     S
C35    C128    1.347   .     D
C37    H38     1.097   .     S
C37    C39     1.193   .     S
C37    C149    1.348   .     D
C39    H40     1.097   .     S
C39    C150    1.347   .     D
C41    H42     1.097   .     S
C41    C43     1.193   .     S
C41    C83     1.348   .     D
C43    H44     1.097   .     S
C43    C84     1.347   .     D
C45    H46     1.097   .     S
C45    C47     1.193   .     S
C45    C105    1.348   .     D
C47    H48     1.097   .     S
C47    C106    1.347   .     D
C49    H50     1.097   .     S
C49    C51     1.193   .     D
C49    C215    1.348   .     S
C51    H52     1.097   .     S
C51    C216    1.347   .     S
C53    H54     1.097   .     S
C53    C55     1.193   .     D
C53    C237    1.348   .     S
C55    H56     1.097   .     S
C55    C238    1.347   .     S
C57    H58     1.097   .     S
C57    C59     1.193   .     D
C57    C171    1.348   .     S
C59    H60     1.097   .     S
C59    C172    1.347   .     S
C61    H62     1.097   .     S
C61    C63     1.193   .     D
C61    C193    1.348   .     S
C63    H64     1.097   .     S
C63    C194    1.347   .     S
Co65   N67     1.690   .     S
Co65   N69     1.690   .     S
Co65   N71     1.653   .     S
Co65   N73     1.653   .     S
Co66   N68     1.690   1_545 S
Co66   N70     1.690   .     S
Co66   N72     1.653   1_455 S
Co66   N74     1.653   .     S
N67    C78     1.156   .     S
N67    C166    1.156   .     D
N68    Co66    1.690   1_565 S
N68    C100    1.156   1_455 S
N68    C188    1.156   .     D
N69    C122    1.156   .     S
N69    C210    1.156   .     D
N70    C144    1.156   .     S
N70    C232    1.156   1_455 D
N71    C80     1.162   .     D
N71    C212    1.162   .     S
N72    Co66    1.653   1_655 S
N72    C102    1.162   1_545 D
N72    C234    1.162   .     S
N73    C124    1.162   .     D
N73    C168    1.162   .     S
N74    C146    1.162   .     D
N74    C190    1.162   1_545 S
N75    C85     1.119   .     D
N75    C87     1.227   .     S
C76    H77     0.978   .     S
C76    C78     1.193   .     S
C76    C164    1.144   .     D
C78    C79     1.174   .     D
C79    C80     1.197   .     S
C79    C83     1.267   .     S
C80    C81     1.170   .     S
C81    H82     0.968   .     S
C81    C213    1.170   .     D
C84    C85     1.249   .     S
C85    H86     0.963   .     S
C87    C88     1.203   .     D
C87    C95     1.185   .     S
C88    H89     0.963   .     S
C88    C90     1.196   .     S
C90    H91     0.981   .     S
C90    C92     1.185   .     D
C92    C93     1.208   .     S
C92    C158    1.268   .     S
C93    H94     0.962   .     S
C93    C95     1.196   .     D
C95    H96     0.981   .     S
N97    C107    1.119   .     D
N97    C109    1.227   .     S
C98    H99     0.978   .     S
C98    C100    1.193   .     S
C98    C186    1.144   1_655 D
C100   N68     1.156   1_655 S
C100   C101    1.174   .     D
C101   C102    1.197   .     S
C101   C105    1.267   .     S
C102   N72     1.162   1_565 D
C102   C103    1.170   .     S
C103   H104    0.968   .     S
C103   C235    1.170   1_565 D
C106   C107    1.249   .     S
C107   H108    0.963   .     S
C109   C110    1.203   .     D
C109   C117    1.185   .     S
C110   H111    0.963   .     S
C110   C112    1.196   .     S
C112   H113    0.981   .     S
C112   C114    1.185   .     D
C114   C115    1.208   .     S
C114   C136    1.268   .     S
C115   H116    0.962   .     S
C115   C117    1.196   .     D
C117   H118    0.981   .     S
N119   C129    1.119   .     D
N119   C131    1.227   .     S
C120   H121    0.978   .     S
C120   C122    1.193   .     S
C120   C208    1.144   .     D
C122   C123    1.174   .     D
C123   C124    1.197   .     S
C123   C127    1.267   .     S
C124   C125    1.170   .     S
C125   H126    0.968   .     S
C125   C169    1.170   .     D
C128   C129    1.249   .     S
C129   H130    0.963   .     S
C131   C132    1.203   .     D
C131   C139    1.185   .     S
C132   H133    0.963   .     S
C132   C134    1.196   .     S
C134   H135    0.981   .     S
C134   C136    1.185   .     D
C136   C137    1.208   .     S
C137   H138    0.962   .     S
C137   C139    1.196   .     D
C139   H140    0.981   .     S
N141   C151    1.119   .     D
N141   C153    1.227   .     S
C142   H143    0.978   .     S
C142   C144    1.193   .     S
C142   C230    1.144   1_455 D
C144   C145    1.174   .     D
C145   C146    1.197   .     S
C145   C149    1.267   .     S
C146   C147    1.170   .     S
C147   H148    0.968   .     S
C147   C191    1.170   1_545 D
C150   C151    1.249   .     S
C151   H152    0.963   .     S
C153   C154    1.203   .     D
C153   C161    1.185   .     S
C154   H155    0.963   .     S
C154   C156    1.196   .     S
C156   H157    0.981   .     S
C156   C158    1.185   .     D
C158   C159    1.208   .     S
C159   H160    0.962   .     S
C159   C161    1.196   .     D
C161   H162    0.981   .     S
N163   C173    1.119   .     D
N163   C175    1.227   .     S
C164   H165    0.978   .     S
C164   C166    1.193   .     S
C166   C167    1.174   .     S
C167   C168    1.197   .     D
C167   C171    1.267   .     S
C168   C169    1.170   .     S
C169   H170    0.968   .     S
C172   C173    1.249   .     S
C173   H174    0.963   .     S
C175   C176    1.203   .     D
C175   C183    1.185   .     S
C176   H177    0.963   .     S
C176   C178    1.196   .     S
C178   H179    0.981   .     S
C178   C180    1.185   .     D
C180   C181    1.208   .     S
C180   C246    1.268   .     S
C181   H182    0.962   .     S
C181   C183    1.196   .     D
C183   H184    0.981   .     S
N185   C195    1.119   .     D
N185   C197    1.227   .     S
C186   C98     1.144   1_455 D
C186   H187    0.978   .     S
C186   C188    1.193   .     S
C188   C189    1.174   .     S
C189   C190    1.197   .     D
C189   C193    1.267   .     S
C190   N74     1.162   1_565 S
C190   C191    1.170   .     S
C191   C147    1.170   1_565 D
C191   H192    0.968   .     S
C194   C195    1.249   .     S
C195   H196    0.963   .     S
C197   C198    1.203   .     D
C197   C205    1.185   .     S
C198   H199    0.963   .     S
C198   C200    1.196   .     S
C200   H201    0.981   .     S
C200   C202    1.185   .     D
C202   C203    1.208   .     S
C202   C224    1.268   .     S
C203   H204    0.962   .     S
C203   C205    1.196   .     D
C205   H206    0.981   .     S
N207   C217    1.119   .     D
N207   C219    1.227   .     S
C208   H209    0.978   .     S
C208   C210    1.193   .     S
C210   C211    1.174   .     S
C211   C212    1.197   .     D
C211   C215    1.267   .     S
C212   C213    1.170   .     S
C213   H214    0.968   .     S
C216   C217    1.249   .     S
C217   H218    0.963   .     S
C219   C220    1.203   .     D
C219   C227    1.185   .     S
C220   H221    0.963   .     S
C220   C222    1.196   .     S
C222   H223    0.981   .     S
C222   C224    1.185   .     D
C224   C225    1.208   .     S
C225   H226    0.962   .     S
C225   C227    1.196   .     D
C227   H228    0.981   .     S
N229   C239    1.119   .     D
N229   C241    1.227   .     S
C230   C142    1.144   1_655 D
C230   H231    0.978   .     S
C230   C232    1.193   .     S
C232   N70     1.156   1_655 D
C232   C233    1.174   .     S
C233   C234    1.197   .     D
C233   C237    1.267   .     S
C234   C235    1.170   .     S
C235   C103    1.170   1_545 D
C235   H236    0.968   .     S
C238   C239    1.249   .     S
C239   H240    0.963   .     S
C241   C242    1.203   .     D
C241   C249    1.185   .     S
C242   H243    0.963   .     S
C242   C244    1.196   .     S
C244   H245    0.981   .     S
C244   C246    1.185   .     D
C246   C247    1.208   .     S
C247   H248    0.962   .     S
C247   C249    1.196   .     D
C249   H250    0.981   .     S
