data_1170
_audit_creation_date              2023-09-08
_audit_creation_method            'Materials Studio'
_symmetry_space_group_name_H-M    'P1'
_symmetry_Int_Tables_number       1
_symmetry_cell_setting            triclinic
loop_
_symmetry_equiv_pos_as_xyz
  x,y,z
_cell_length_a                    28.7810
_cell_length_b                    28.7810
_cell_length_c                    7.1910
_cell_angle_alpha                 90.0000
_cell_angle_beta                  90.0000
_cell_angle_gamma                 120.0000
loop_
_atom_site_label
_atom_site_type_symbol
_atom_site_fract_x
_atom_site_fract_y
_atom_site_fract_z
_atom_site_U_iso_or_equiv
_atom_site_adp_type
_atom_site_occupancy
C1     C     0.05739   0.03008   0.25000   0.00000  Uiso   1.00
C2     C     0.02794   0.05792   0.25000   0.00000  Uiso   1.00
O3     O     0.05067   0.10672   0.25000   0.00000  Uiso   1.00
C4     C     0.10893   0.05409   0.25000   0.00000  Uiso   1.00
N5     N     0.14462   0.10981   0.25000   0.00000  Uiso   1.00
C6     C     0.19932   0.12735   0.25000   0.00000  Uiso   1.00
C7     C     0.21757   0.09008   0.25000   0.00000  Uiso   1.00
C8     C     0.26905   0.10593   0.25000   0.00000  Uiso   1.00
C9     C     0.30583   0.15960   0.25000   0.00000  Uiso   1.00
C10    C     0.28876   0.19821   0.25000   0.00000  Uiso   1.00
C11    C     0.23551   0.18207   0.25000   0.00000  Uiso   1.00
C12    C     0.21937   0.22232   0.25000   0.00000  Uiso   1.00
N13    N     0.20660   0.25458   0.25000   0.00000  Uiso   1.00
H14    H     0.12367   0.02774   0.25000   0.00000  Uiso   1.00
H15    H     0.13370   0.13902   0.25000   0.00000  Uiso   1.00
H16    H     0.19597   0.04720   0.25000   0.00000  Uiso   1.00
H17    H     0.27747   0.07365   0.25000   0.00000  Uiso   1.00
H18    H     0.31420   0.24095   0.25000   0.00000  Uiso   1.00
C19    C     0.60928   0.30325   0.25000   0.00000  Uiso   1.00
C20    C     0.63873   0.27541   0.25000   0.00000  Uiso   1.00
O21    O     0.61600   0.22661   0.25000   0.00000  Uiso   1.00
C22    C     0.55774   0.27924   0.25000   0.00000  Uiso   1.00
N23    N     0.52205   0.22353   0.25000   0.00000  Uiso   1.00
C24    C     0.46735   0.20598   0.25000   0.00000  Uiso   1.00
C25    C     0.44909   0.24325   0.25000   0.00000  Uiso   1.00
C26    C     0.39761   0.22740   0.25000   0.00000  Uiso   1.00
C27    C     0.36083   0.17373   0.25000   0.00000  Uiso   1.00
C28    C     0.37791   0.13512   0.25000   0.00000  Uiso   1.00
C29    C     0.43115   0.15126   0.25000   0.00000  Uiso   1.00
C30    C     0.44730   0.11101   0.25000   0.00000  Uiso   1.00
N31    N     0.46007   0.07876   0.25000   0.00000  Uiso   1.00
H32    H     0.54300   0.30559   0.25000   0.00000  Uiso   1.00
H33    H     0.53296   0.19431   0.25000   0.00000  Uiso   1.00
H34    H     0.47069   0.28613   0.25000   0.00000  Uiso   1.00
H35    H     0.38920   0.25968   0.25000   0.00000  Uiso   1.00
H36    H     0.35247   0.09238   0.25000   0.00000  Uiso   1.00
C37    C     0.96992   0.02731   0.25000   0.00000  Uiso   1.00
C38    C     0.94208   0.97002   0.25000   0.00000  Uiso   1.00
O39    O     0.89328   0.94395   0.25000   0.00000  Uiso   1.00
C40    C     0.94591   0.05484   0.25000   0.00000  Uiso   1.00
N41    N     0.89019   0.03481   0.25000   0.00000  Uiso   1.00
C42    C     0.87265   0.07197   0.25000   0.00000  Uiso   1.00
C43    C     0.90992   0.12749   0.25000   0.00000  Uiso   1.00
C44    C     0.89407   0.16312   0.25000   0.00000  Uiso   1.00
C45    C     0.84040   0.14623   0.25000   0.00000  Uiso   1.00
C46    C     0.80179   0.09055   0.25000   0.00000  Uiso   1.00
C47    C     0.81793   0.05344   0.25000   0.00000  Uiso   1.00
C48    C     0.77768   0.99705   0.25000   0.00000  Uiso   1.00
N49    N     0.74542   0.95202   0.25000   0.00000  Uiso   1.00
H50    H     0.97226   0.09593   0.25000   0.00000  Uiso   1.00
H51    H     0.86098   0.99468   0.25000   0.00000  Uiso   1.00
H52    H     0.95280   0.14877   0.25000   0.00000  Uiso   1.00
H53    H     0.92635   0.20382   0.25000   0.00000  Uiso   1.00
H54    H     0.75905   0.07325   0.25000   0.00000  Uiso   1.00
C55    C     0.69675   0.30603   0.25000   0.00000  Uiso   1.00
C56    C     0.72459   0.36332   0.25000   0.00000  Uiso   1.00
O57    O     0.77339   0.38939   0.25000   0.00000  Uiso   1.00
C58    C     0.72076   0.27850   0.25000   0.00000  Uiso   1.00
N59    N     0.77647   0.29852   0.25000   0.00000  Uiso   1.00
C60    C     0.79402   0.26137   0.25000   0.00000  Uiso   1.00
C61    C     0.75675   0.20584   0.25000   0.00000  Uiso   1.00
C62    C     0.77260   0.17021   0.25000   0.00000  Uiso   1.00
C63    C     0.82627   0.18710   0.25000   0.00000  Uiso   1.00
C64    C     0.86488   0.24279   0.25000   0.00000  Uiso   1.00
C65    C     0.84874   0.27989   0.25000   0.00000  Uiso   1.00
C66    C     0.88899   0.33629   0.25000   0.00000  Uiso   1.00
N67    N     0.92124   0.38131   0.25000   0.00000  Uiso   1.00
H68    H     0.69441   0.23741   0.25000   0.00000  Uiso   1.00
H69    H     0.80569   0.33865   0.25000   0.00000  Uiso   1.00
H70    H     0.71387   0.18456   0.25000   0.00000  Uiso   1.00
H71    H     0.74032   0.12952   0.25000   0.00000  Uiso   1.00
H72    H     0.90762   0.26009   0.25000   0.00000  Uiso   1.00
C73    C     0.97269   0.94261   0.25000   0.00000  Uiso   1.00
C74    C     0.02998   0.97206   0.25000   0.00000  Uiso   1.00
O75    O     0.05605   0.94933   0.25000   0.00000  Uiso   1.00
C76    C     0.94516   0.89107   0.25000   0.00000  Uiso   1.00
N77    N     0.96519   0.85538   0.25000   0.00000  Uiso   1.00
C78    C     0.92803   0.80068   0.25000   0.00000  Uiso   1.00
C79    C     0.87251   0.78243   0.25000   0.00000  Uiso   1.00
C80    C     0.83688   0.73095   0.25000   0.00000  Uiso   1.00
C81    C     0.85377   0.69417   0.25000   0.00000  Uiso   1.00
C82    C     0.90945   0.71124   0.25000   0.00000  Uiso   1.00
C83    C     0.94656   0.76449   0.25000   0.00000  Uiso   1.00
C84    C     0.00295   0.78063   0.25000   0.00000  Uiso   1.00
N85    N     0.04798   0.79340   0.25000   0.00000  Uiso   1.00
H86    H     0.90407   0.87633   0.25000   0.00000  Uiso   1.00
H87    H     0.00532   0.86630   0.25000   0.00000  Uiso   1.00
H88    H     0.85123   0.80403   0.25000   0.00000  Uiso   1.00
H89    H     0.79618   0.72253   0.25000   0.00000  Uiso   1.00
H90    H     0.92675   0.68580   0.25000   0.00000  Uiso   1.00
C91    C     0.69397   0.39072   0.25000   0.00000  Uiso   1.00
C92    C     0.63668   0.36127   0.25000   0.00000  Uiso   1.00
O93    O     0.61061   0.38400   0.25000   0.00000  Uiso   1.00
C94    C     0.72150   0.44226   0.25000   0.00000  Uiso   1.00
N95    N     0.70148   0.47795   0.25000   0.00000  Uiso   1.00
C96    C     0.73863   0.53265   0.25000   0.00000  Uiso   1.00
C97    C     0.79416   0.55091   0.25000   0.00000  Uiso   1.00
C98    C     0.82979   0.60239   0.25000   0.00000  Uiso   1.00
C99    C     0.81290   0.63917   0.25000   0.00000  Uiso   1.00
C100   C     0.75721   0.62209   0.25000   0.00000  Uiso   1.00
C101   C     0.72011   0.56885   0.25000   0.00000  Uiso   1.00
C102   C     0.66371   0.55270   0.25000   0.00000  Uiso   1.00
N103   N     0.61869   0.53993   0.25000   0.00000  Uiso   1.00
H104   H     0.76259   0.45700   0.25000   0.00000  Uiso   1.00
H105   H     0.66135   0.46704   0.25000   0.00000  Uiso   1.00
H106   H     0.81544   0.52931   0.25000   0.00000  Uiso   1.00
H107   H     0.87048   0.61080   0.25000   0.00000  Uiso   1.00
H108   H     0.73991   0.64753   0.25000   0.00000  Uiso   1.00
C109   C     0.94261   0.96992   0.75000   0.00000  Uiso   1.00
C110   C     0.97206   0.94208   0.75000   0.00000  Uiso   1.00
O111   O     0.94933   0.89328   0.75000   0.00000  Uiso   1.00
C112   C     0.89107   0.94591   0.75000   0.00000  Uiso   1.00
N113   N     0.85538   0.89019   0.75000   0.00000  Uiso   1.00
C114   C     0.80068   0.87265   0.75000   0.00000  Uiso   1.00
C115   C     0.78243   0.90992   0.75000   0.00000  Uiso   1.00
C116   C     0.73095   0.89407   0.75000   0.00000  Uiso   1.00
C117   C     0.69417   0.84040   0.75000   0.00000  Uiso   1.00
C118   C     0.71124   0.80179   0.75000   0.00000  Uiso   1.00
C119   C     0.76449   0.81793   0.75000   0.00000  Uiso   1.00
C120   C     0.78063   0.77768   0.75000   0.00000  Uiso   1.00
N121   N     0.79340   0.74542   0.75000   0.00000  Uiso   1.00
H122   H     0.87633   0.97226   0.75000   0.00000  Uiso   1.00
H123   H     0.86630   0.86098   0.75000   0.00000  Uiso   1.00
H124   H     0.80403   0.95280   0.75000   0.00000  Uiso   1.00
H125   H     0.72253   0.92635   0.75000   0.00000  Uiso   1.00
H126   H     0.68580   0.75905   0.75000   0.00000  Uiso   1.00
C127   C     0.39072   0.69675   0.75000   0.00000  Uiso   1.00
C128   C     0.36127   0.72459   0.75000   0.00000  Uiso   1.00
O129   O     0.38400   0.77339   0.75000   0.00000  Uiso   1.00
C130   C     0.44226   0.72076   0.75000   0.00000  Uiso   1.00
N131   N     0.47795   0.77647   0.75000   0.00000  Uiso   1.00
C132   C     0.53265   0.79402   0.75000   0.00000  Uiso   1.00
C133   C     0.55091   0.75675   0.75000   0.00000  Uiso   1.00
C134   C     0.60239   0.77260   0.75000   0.00000  Uiso   1.00
C135   C     0.63917   0.82627   0.75000   0.00000  Uiso   1.00
C136   C     0.62209   0.86488   0.75000   0.00000  Uiso   1.00
C137   C     0.56885   0.84874   0.75000   0.00000  Uiso   1.00
C138   C     0.55270   0.88899   0.75000   0.00000  Uiso   1.00
N139   N     0.53993   0.92124   0.75000   0.00000  Uiso   1.00
H140   H     0.45700   0.69441   0.75000   0.00000  Uiso   1.00
H141   H     0.46704   0.80569   0.75000   0.00000  Uiso   1.00
H142   H     0.52931   0.71387   0.75000   0.00000  Uiso   1.00
H143   H     0.61080   0.74032   0.75000   0.00000  Uiso   1.00
H144   H     0.64753   0.90762   0.75000   0.00000  Uiso   1.00
C145   C     0.03008   0.97269   0.75000   0.00000  Uiso   1.00
C146   C     0.05792   0.02998   0.75000   0.00000  Uiso   1.00
O147   O     0.10672   0.05605   0.75000   0.00000  Uiso   1.00
C148   C     0.05409   0.94516   0.75000   0.00000  Uiso   1.00
N149   N     0.10981   0.96519   0.75000   0.00000  Uiso   1.00
C150   C     0.12735   0.92803   0.75000   0.00000  Uiso   1.00
C151   C     0.09008   0.87251   0.75000   0.00000  Uiso   1.00
C152   C     0.10593   0.83688   0.75000   0.00000  Uiso   1.00
C153   C     0.15960   0.85377   0.75000   0.00000  Uiso   1.00
C154   C     0.19821   0.90945   0.75000   0.00000  Uiso   1.00
C155   C     0.18207   0.94656   0.75000   0.00000  Uiso   1.00
C156   C     0.22232   0.00295   0.75000   0.00000  Uiso   1.00
N157   N     0.25458   0.04798   0.75000   0.00000  Uiso   1.00
H158   H     0.02774   0.90407   0.75000   0.00000  Uiso   1.00
H159   H     0.13902   0.00532   0.75000   0.00000  Uiso   1.00
H160   H     0.04720   0.85123   0.75000   0.00000  Uiso   1.00
H161   H     0.07365   0.79618   0.75000   0.00000  Uiso   1.00
H162   H     0.24095   0.92675   0.75000   0.00000  Uiso   1.00
C163   C     0.30325   0.69397   0.75000   0.00000  Uiso   1.00
C164   C     0.27541   0.63668   0.75000   0.00000  Uiso   1.00
O165   O     0.22661   0.61061   0.75000   0.00000  Uiso   1.00
C166   C     0.27924   0.72150   0.75000   0.00000  Uiso   1.00
N167   N     0.22353   0.70148   0.75000   0.00000  Uiso   1.00
C168   C     0.20598   0.73863   0.75000   0.00000  Uiso   1.00
C169   C     0.24325   0.79416   0.75000   0.00000  Uiso   1.00
C170   C     0.22740   0.82979   0.75000   0.00000  Uiso   1.00
C171   C     0.17373   0.81290   0.75000   0.00000  Uiso   1.00
C172   C     0.13512   0.75721   0.75000   0.00000  Uiso   1.00
C173   C     0.15126   0.72011   0.75000   0.00000  Uiso   1.00
C174   C     0.11101   0.66371   0.75000   0.00000  Uiso   1.00
N175   N     0.07876   0.61869   0.75000   0.00000  Uiso   1.00
H176   H     0.30559   0.76259   0.75000   0.00000  Uiso   1.00
H177   H     0.19431   0.66135   0.75000   0.00000  Uiso   1.00
H178   H     0.28613   0.81544   0.75000   0.00000  Uiso   1.00
H179   H     0.25968   0.87048   0.75000   0.00000  Uiso   1.00
H180   H     0.09238   0.73991   0.75000   0.00000  Uiso   1.00
C181   C     0.02731   0.05739   0.75000   0.00000  Uiso   1.00
C182   C     0.97002   0.02794   0.75000   0.00000  Uiso   1.00
O183   O     0.94395   0.05067   0.75000   0.00000  Uiso   1.00
C184   C     0.05484   0.10893   0.75000   0.00000  Uiso   1.00
N185   N     0.03481   0.14462   0.75000   0.00000  Uiso   1.00
C186   C     0.07197   0.19932   0.75000   0.00000  Uiso   1.00
C187   C     0.12749   0.21757   0.75000   0.00000  Uiso   1.00
C188   C     0.16312   0.26905   0.75000   0.00000  Uiso   1.00
C189   C     0.14623   0.30583   0.75000   0.00000  Uiso   1.00
C190   C     0.09055   0.28876   0.75000   0.00000  Uiso   1.00
C191   C     0.05344   0.23551   0.75000   0.00000  Uiso   1.00
C192   C     0.99705   0.21937   0.75000   0.00000  Uiso   1.00
N193   N     0.95202   0.20660   0.75000   0.00000  Uiso   1.00
H194   H     0.09593   0.12367   0.75000   0.00000  Uiso   1.00
H195   H     0.99468   0.13370   0.75000   0.00000  Uiso   1.00
H196   H     0.14877   0.19597   0.75000   0.00000  Uiso   1.00
H197   H     0.20382   0.27747   0.75000   0.00000  Uiso   1.00
H198   H     0.07325   0.31420   0.75000   0.00000  Uiso   1.00
C199   C     0.30603   0.60928   0.75000   0.00000  Uiso   1.00
C200   C     0.36332   0.63873   0.75000   0.00000  Uiso   1.00
O201   O     0.38939   0.61600   0.75000   0.00000  Uiso   1.00
C202   C     0.27850   0.55774   0.75000   0.00000  Uiso   1.00
N203   N     0.29852   0.52205   0.75000   0.00000  Uiso   1.00
C204   C     0.26137   0.46735   0.75000   0.00000  Uiso   1.00
C205   C     0.20584   0.44909   0.75000   0.00000  Uiso   1.00
C206   C     0.17021   0.39761   0.75000   0.00000  Uiso   1.00
C207   C     0.18710   0.36083   0.75000   0.00000  Uiso   1.00
C208   C     0.24279   0.37791   0.75000   0.00000  Uiso   1.00
C209   C     0.27989   0.43115   0.75000   0.00000  Uiso   1.00
C210   C     0.33629   0.44730   0.75000   0.00000  Uiso   1.00
N211   N     0.38131   0.46007   0.75000   0.00000  Uiso   1.00
H212   H     0.23741   0.54300   0.75000   0.00000  Uiso   1.00
H213   H     0.33865   0.53296   0.75000   0.00000  Uiso   1.00
H214   H     0.18456   0.47069   0.75000   0.00000  Uiso   1.00
H215   H     0.12952   0.38920   0.75000   0.00000  Uiso   1.00
H216   H     0.26009   0.35247   0.75000   0.00000  Uiso   1.00
loop_
_geom_bond_atom_site_label_1
_geom_bond_atom_site_label_2
_geom_bond_distance
_geom_bond_site_symmetry_2
_ccdc_geom_bond_type
C1     C2      1.428   .     S
C1     C4      1.286   .     D
C1     C74     1.447   1_545 S
C2     O3      1.217   .     D
C2     C37     1.447   1_455 S
C4     N5      1.407   .     S
C4     H14     1.038   .     S
N5     C6      1.392   .     S
N5     H15     1.034   .     S
C6     C7      1.411   .     D
C6     C11     1.387   .     S
C7     C8      1.314   .     S
C7     H16     1.069   .     S
C8     C9      1.368   .     D
C8     H17     1.071   .     S
C9     C10     1.422   .     S
C9     C27     1.424   .     S
C10    C11     1.361   .     D
C10    H18     1.072   .     S
C11    C12     1.448   .     S
C12    N13     1.157   .     T
C19    C20     1.428   .     S
C19    C22     1.286   .     D
C19    C92     1.447   .     S
C20    O21     1.217   .     D
C20    C55     1.447   .     S
C22    N23     1.407   .     S
C22    H32     1.038   .     S
N23    C24     1.392   .     S
N23    H33     1.034   .     S
C24    C25     1.411   .     D
C24    C29     1.387   .     S
C25    C26     1.314   .     S
C25    H34     1.069   .     S
C26    C27     1.368   .     D
C26    H35     1.071   .     S
C27    C28     1.422   .     S
C28    C29     1.361   .     D
C28    H36     1.072   .     S
C29    C30     1.448   .     S
C30    N31     1.157   .     T
C37    C40     1.286   .     D
C37    C2      1.447   1_655 S
C37    C38     1.428   1_545 S
C38    O39     1.217   .     D
C38    C73     1.447   .     S
C38    C37     1.428   1_565 S
C40    N41     1.407   .     S
C40    H50     1.038   .     S
N41    C42     1.392   .     S
N41    H51     1.034   1_545 S
C42    C43     1.411   .     D
C42    C47     1.387   .     S
C43    C44     1.314   .     S
C43    H52     1.069   .     S
C44    C45     1.368   .     D
C44    H53     1.071   .     S
C45    C46     1.422   .     S
C45    C63     1.424   .     S
C46    C47     1.361   .     D
C46    H54     1.072   .     S
C47    C48     1.448   1_545 S
C48    N49     1.157   .     T
C48    C47     1.448   1_565 S
H51    N41     1.034   1_565 S
C55    C56     1.428   .     S
C55    C58     1.286   .     D
C56    O57     1.217   .     D
C56    C91     1.447   .     S
C58    N59     1.407   .     S
C58    H68     1.038   .     S
N59    C60     1.392   .     S
N59    H69     1.034   .     S
C60    C61     1.411   .     D
C60    C65     1.387   .     S
C61    C62     1.314   .     S
C61    H70     1.069   .     S
C62    C63     1.368   .     D
C62    H71     1.071   .     S
C63    C64     1.422   .     S
C64    C65     1.361   .     D
C64    H72     1.072   .     S
C65    C66     1.448   .     S
C66    N67     1.157   .     T
C73    C76     1.286   .     D
C73    C74     1.428   1_655 S
C74    O75     1.217   .     D
C74    C1      1.447   1_565 S
C74    C73     1.428   1_455 S
C76    N77     1.407   .     S
C76    H86     1.038   .     S
N77    C78     1.392   .     S
N77    H87     1.034   1_655 S
C78    C79     1.411   .     D
C78    C83     1.387   .     S
C79    C80     1.314   .     S
C79    H88     1.069   .     S
C80    C81     1.368   .     D
C80    H89     1.071   .     S
C81    C82     1.422   .     S
C81    C99     1.424   .     S
C82    C83     1.361   .     D
C82    H90     1.072   .     S
C83    C84     1.448   1_655 S
C84    N85     1.157   .     T
C84    C83     1.448   1_455 S
H87    N77     1.034   1_455 S
C91    C92     1.428   .     S
C91    C94     1.286   .     D
C92    O93     1.217   .     D
C94    N95     1.407   .     S
C94    H104    1.038   .     S
N95    C96     1.392   .     S
N95    H105    1.034   .     S
C96    C97     1.411   .     S
C96    C101    1.387   .     D
C97    C98     1.314   .     D
C97    H106    1.069   .     S
C98    C99     1.368   .     S
C98    H107    1.071   .     S
C99    C100    1.422   .     D
C100   C101    1.361   .     S
C100   H108    1.072   .     S
C101   C102    1.448   .     S
C102   N103    1.157   .     T
C109   C110    1.428   .     S
C109   C112    1.286   .     D
C109   C182    1.447   1_565 S
C110   O111    1.217   .     D
C110   C145    1.447   1_655 S
C112   N113    1.407   .     S
C112   H122    1.038   .     S
N113   C114    1.392   .     S
N113   H123    1.034   .     S
C114   C115    1.411   .     D
C114   C119    1.387   .     S
C115   C116    1.314   .     S
C115   H124    1.069   .     S
C116   C117    1.368   .     D
C116   H125    1.071   .     S
C117   C118    1.422   .     S
C117   C135    1.424   .     S
C118   C119    1.361   .     D
C118   H126    1.072   .     S
C119   C120    1.448   .     S
C120   N121    1.157   .     T
C127   C128    1.428   .     S
C127   C130    1.286   .     D
C127   C200    1.447   .     S
C128   O129    1.217   .     D
C128   C163    1.447   .     S
C130   N131    1.407   .     S
C130   H140    1.038   .     S
N131   C132    1.392   .     S
N131   H141    1.034   .     S
C132   C133    1.411   .     D
C132   C137    1.387   .     S
C133   C134    1.314   .     S
C133   H142    1.069   .     S
C134   C135    1.368   .     D
C134   H143    1.071   .     S
C135   C136    1.422   .     S
C136   C137    1.361   .     D
C136   H144    1.072   .     S
C137   C138    1.448   .     S
C138   N139    1.157   .     T
C145   C148    1.286   .     D
C145   C110    1.447   1_455 S
C145   C146    1.428   1_565 S
C146   O147    1.217   .     D
C146   C181    1.447   .     S
C146   C145    1.428   1_545 S
C148   N149    1.407   .     S
C148   H158    1.038   .     S
N149   C150    1.392   .     S
N149   H159    1.034   1_565 S
C150   C151    1.411   .     D
C150   C155    1.387   .     S
C151   C152    1.314   .     S
C151   H160    1.069   .     S
C152   C153    1.368   .     D
C152   H161    1.071   .     S
C153   C154    1.422   .     S
C153   C171    1.424   .     S
C154   C155    1.361   .     D
C154   H162    1.072   .     S
C155   C156    1.448   1_565 S
C156   N157    1.157   .     T
C156   C155    1.448   1_545 S
H159   N149    1.034   1_545 S
C163   C164    1.428   .     S
C163   C166    1.286   .     D
C164   O165    1.217   .     D
C164   C199    1.447   .     S
C166   N167    1.407   .     S
C166   H176    1.038   .     S
N167   C168    1.392   .     S
N167   H177    1.034   .     S
C168   C169    1.411   .     D
C168   C173    1.387   .     S
C169   C170    1.314   .     S
C169   H178    1.069   .     S
C170   C171    1.368   .     D
C170   H179    1.071   .     S
C171   C172    1.422   .     S
C172   C173    1.361   .     D
C172   H180    1.072   .     S
C173   C174    1.448   .     S
C174   N175    1.157   .     T
C181   C184    1.286   .     D
C181   C182    1.428   1_455 S
C182   O183    1.217   .     D
C182   C109    1.447   1_545 S
C182   C181    1.428   1_655 S
C184   N185    1.407   .     S
C184   H194    1.038   .     S
N185   C186    1.392   .     S
N185   H195    1.034   1_455 S
C186   C187    1.411   .     D
C186   C191    1.387   .     S
C187   C188    1.314   .     S
C187   H196    1.069   .     S
C188   C189    1.368   .     D
C188   H197    1.071   .     S
C189   C190    1.422   .     S
C189   C207    1.424   .     S
C190   C191    1.361   .     D
C190   H198    1.072   .     S
C191   C192    1.448   1_455 S
C192   N193    1.157   .     T
C192   C191    1.448   1_655 S
H195   N185    1.034   1_655 S
C199   C200    1.428   .     S
C199   C202    1.286   .     D
C200   O201    1.217   .     D
C202   N203    1.407   .     S
C202   H212    1.038   .     S
N203   C204    1.392   .     S
N203   H213    1.034   .     S
C204   C205    1.411   .     S
C204   C209    1.387   .     D
C205   C206    1.314   .     D
C205   H214    1.069   .     S
C206   C207    1.368   .     S
C206   H215    1.071   .     S
C207   C208    1.422   .     D
C208   C209    1.361   .     S
C208   H216    1.072   .     S
C209   C210    1.448   .     S
C210   N211    1.157   .     T
