data_1171
_audit_creation_date              2023-09-08
_audit_creation_method            'Materials Studio'
_symmetry_space_group_name_H-M    'P1'
_symmetry_Int_Tables_number       1
_symmetry_cell_setting            triclinic
loop_
_symmetry_equiv_pos_as_xyz
  x,y,z
_cell_length_a                    36.9164
_cell_length_b                    41.8713
_cell_length_c                    3.9555
_cell_angle_alpha                 90.0000
_cell_angle_beta                  90.0000
_cell_angle_gamma                 90.0000
loop_
_atom_site_label
_atom_site_type_symbol
_atom_site_fract_x
_atom_site_fract_y
_atom_site_fract_z
_atom_site_U_iso_or_equiv
_atom_site_adp_type
_atom_site_occupancy
C1     C     0.92294   0.97077  -0.03352   0.00000  Uiso   1.00
C2     C     0.96165   0.97097  -0.01253   0.00000  Uiso   1.00
C3     C     0.98154   0.94227   0.00083   0.00000  Uiso   1.00
H4     H     0.96805   0.08105  -0.01012   0.00000  Uiso   1.00
C5     C     0.09841   0.94272   0.07938   0.00000  Uiso   1.00
C6     C     0.13288   0.93925  -0.08575   0.00000  Uiso   1.00
C7     C     0.08783   0.91684   0.29622   0.00000  Uiso   1.00
C8     C     0.15390   0.91249  -0.04448   0.00000  Uiso   1.00
H9     H     0.14247   0.95802  -0.25873   0.00000  Uiso   1.00
C10    C     0.10856   0.88977   0.32667   0.00000  Uiso   1.00
H11    H     0.06267   0.91863   0.44388   0.00000  Uiso   1.00
C12    C     0.14133   0.88797   0.15825   0.00000  Uiso   1.00
H13    H     0.17972   0.91059  -0.18053   0.00000  Uiso   1.00
H14    H     0.10002   0.86987   0.48976   0.00000  Uiso   1.00
N15    N     0.16094   0.86075   0.20165   0.00000  Uiso   1.00
C16    C     0.19668   0.85479   0.08489   0.00000  Uiso   1.00
H17    H     0.21311   0.87313  -0.04195   0.00000  Uiso   1.00
C18    C     0.21095   0.82302   0.14195   0.00000  Uiso   1.00
C19    C     0.19092   0.79877   0.29843   0.00000  Uiso   1.00
C20    C     0.24653   0.81521   0.03883   0.00000  Uiso   1.00
C21    C     0.20600   0.76913   0.34174   0.00000  Uiso   1.00
H22    H     0.16316   0.80293   0.38809   0.00000  Uiso   1.00
N23    N     0.26223   0.78654   0.08286   0.00000  Uiso   1.00
H24    H     0.26433   0.83246  -0.08743   0.00000  Uiso   1.00
C25    C     0.24191   0.76357   0.23078   0.00000  Uiso   1.00
H26    H     0.19089   0.74974   0.46501   0.00000  Uiso   1.00
C27    C     0.42310   0.47120  -0.06195   0.00000  Uiso   1.00
C28    C     0.46167   0.47111  -0.02842   0.00000  Uiso   1.00
C29    C     0.48157   0.44238  -0.01084   0.00000  Uiso   1.00
H30    H     0.46806   0.58096   0.01063   0.00000  Uiso   1.00
C31    C     0.59774   0.44363   0.15048   0.00000  Uiso   1.00
C32    C     0.63370   0.43859   0.02134   0.00000  Uiso   1.00
C33    C     0.58412   0.41925   0.37100   0.00000  Uiso   1.00
C34    C     0.65306   0.41145   0.09539   0.00000  Uiso   1.00
H35    H     0.64576   0.45602  -0.15356   0.00000  Uiso   1.00
C36    C     0.60297   0.39160   0.43108   0.00000  Uiso   1.00
H37    H     0.55749   0.42227   0.49038   0.00000  Uiso   1.00
C38    C     0.63721   0.38821   0.29479   0.00000  Uiso   1.00
H39    H     0.68011   0.40757  -0.01292   0.00000  Uiso   1.00
H40    H     0.59181   0.37262   0.59236   0.00000  Uiso   1.00
N41    N     0.65495   0.36042   0.35729   0.00000  Uiso   1.00
C42    C     0.69281   0.35733   0.40657   0.00000  Uiso   1.00
H43    H     0.70985   0.37766   0.48296   0.00000  Uiso   1.00
C44    C     0.70774   0.32567   0.35811   0.00000  Uiso   1.00
C45    C     0.68738   0.30069   0.21933   0.00000  Uiso   1.00
C46    C     0.74400   0.31865   0.44699   0.00000  Uiso   1.00
N47    N     0.70301   0.27139   0.17108   0.00000  Uiso   1.00
H48    H     0.65911   0.30418   0.14129   0.00000  Uiso   1.00
C49    C     0.75995   0.29000   0.40638   0.00000  Uiso   1.00
H50    H     0.76205   0.33648   0.56030   0.00000  Uiso   1.00
C51    C     0.73955   0.26660   0.26745   0.00000  Uiso   1.00
H52    H     0.68767   0.74845  -0.05862   0.00000  Uiso   1.00
C53    C     0.07706   0.02923  -0.03352   0.00000  Uiso   1.00
C54    C     0.03835   0.02903  -0.01253   0.00000  Uiso   1.00
C55    C     0.01846   0.05773   0.00083   0.00000  Uiso   1.00
H56    H     0.03195   0.91895  -0.01012   0.00000  Uiso   1.00
C57    C     0.90159   0.05728   0.07938   0.00000  Uiso   1.00
C58    C     0.86712   0.06075  -0.08575   0.00000  Uiso   1.00
C59    C     0.91217   0.08316   0.29622   0.00000  Uiso   1.00
C60    C     0.84610   0.08751  -0.04448   0.00000  Uiso   1.00
H61    H     0.85753   0.04198  -0.25873   0.00000  Uiso   1.00
C62    C     0.89144   0.11023   0.32667   0.00000  Uiso   1.00
H63    H     0.93733   0.08137   0.44388   0.00000  Uiso   1.00
C64    C     0.85867   0.11203   0.15825   0.00000  Uiso   1.00
H65    H     0.82028   0.08941  -0.18053   0.00000  Uiso   1.00
H66    H     0.89998   0.13013   0.48976   0.00000  Uiso   1.00
N67    N     0.83906   0.13925   0.20165   0.00000  Uiso   1.00
C68    C     0.80332   0.14521   0.08489   0.00000  Uiso   1.00
H69    H     0.78689   0.12687  -0.04195   0.00000  Uiso   1.00
C70    C     0.78905   0.17698   0.14195   0.00000  Uiso   1.00
C71    C     0.80908   0.20123   0.29843   0.00000  Uiso   1.00
C72    C     0.75347   0.18479   0.03883   0.00000  Uiso   1.00
C73    C     0.79400   0.23087   0.34174   0.00000  Uiso   1.00
H74    H     0.83684   0.19707   0.38809   0.00000  Uiso   1.00
N75    N     0.73777   0.21346   0.08286   0.00000  Uiso   1.00
H76    H     0.73567   0.16754  -0.08743   0.00000  Uiso   1.00
C77    C     0.75809   0.23643   0.23078   0.00000  Uiso   1.00
H78    H     0.80911   0.25026   0.46501   0.00000  Uiso   1.00
C79    C     0.57690   0.52880  -0.06195   0.00000  Uiso   1.00
C80    C     0.53833   0.52889  -0.02842   0.00000  Uiso   1.00
C81    C     0.51843   0.55762  -0.01084   0.00000  Uiso   1.00
H82    H     0.53194   0.41904   0.01063   0.00000  Uiso   1.00
C83    C     0.40226   0.55637   0.15048   0.00000  Uiso   1.00
C84    C     0.36630   0.56141   0.02134   0.00000  Uiso   1.00
C85    C     0.41588   0.58075   0.37100   0.00000  Uiso   1.00
C86    C     0.34694   0.58855   0.09539   0.00000  Uiso   1.00
H87    H     0.35424   0.54398  -0.15356   0.00000  Uiso   1.00
C88    C     0.39703   0.60840   0.43108   0.00000  Uiso   1.00
H89    H     0.44251   0.57773   0.49038   0.00000  Uiso   1.00
C90    C     0.36279   0.61179   0.29479   0.00000  Uiso   1.00
H91    H     0.31989   0.59243  -0.01292   0.00000  Uiso   1.00
H92    H     0.40819   0.62738   0.59236   0.00000  Uiso   1.00
N93    N     0.34505   0.63958   0.35729   0.00000  Uiso   1.00
C94    C     0.30719   0.64267   0.40657   0.00000  Uiso   1.00
H95    H     0.29015   0.62234   0.48296   0.00000  Uiso   1.00
C96    C     0.29226   0.67433   0.35811   0.00000  Uiso   1.00
C97    C     0.31262   0.69931   0.21933   0.00000  Uiso   1.00
C98    C     0.25600   0.68135   0.44699   0.00000  Uiso   1.00
N99    N     0.29699   0.72861   0.17108   0.00000  Uiso   1.00
H100   H     0.34089   0.69582   0.14129   0.00000  Uiso   1.00
C101   C     0.24005   0.71000   0.40638   0.00000  Uiso   1.00
H102   H     0.23795   0.66352   0.56030   0.00000  Uiso   1.00
C103   C     0.26045   0.73340   0.26745   0.00000  Uiso   1.00
H104   H     0.31233   0.25155  -0.05862   0.00000  Uiso   1.00
C105   C     0.07706   0.97077   0.03352   0.00000  Uiso   1.00
C106   C     0.03835   0.97097   0.01253   0.00000  Uiso   1.00
C107   C     0.01846   0.94227  -0.00083   0.00000  Uiso   1.00
H108   H     0.03195   0.08105   0.01012   0.00000  Uiso   1.00
C109   C     0.90159   0.94272  -0.07938   0.00000  Uiso   1.00
C110   C     0.86712   0.93925   0.08575   0.00000  Uiso   1.00
C111   C     0.91217   0.91684  -0.29622   0.00000  Uiso   1.00
C112   C     0.84610   0.91249   0.04448   0.00000  Uiso   1.00
H113   H     0.85753   0.95802   0.25873   0.00000  Uiso   1.00
C114   C     0.89144   0.88977  -0.32667   0.00000  Uiso   1.00
H115   H     0.93733   0.91863  -0.44388   0.00000  Uiso   1.00
C116   C     0.85867   0.88797  -0.15825   0.00000  Uiso   1.00
H117   H     0.82028   0.91059   0.18053   0.00000  Uiso   1.00
H118   H     0.89998   0.86987  -0.48976   0.00000  Uiso   1.00
N119   N     0.83906   0.86075  -0.20165   0.00000  Uiso   1.00
C120   C     0.80332   0.85479  -0.08489   0.00000  Uiso   1.00
H121   H     0.78689   0.87313   0.04195   0.00000  Uiso   1.00
C122   C     0.78905   0.82302  -0.14195   0.00000  Uiso   1.00
C123   C     0.80908   0.79877  -0.29843   0.00000  Uiso   1.00
C124   C     0.75347   0.81521  -0.03883   0.00000  Uiso   1.00
C125   C     0.79400   0.76913  -0.34174   0.00000  Uiso   1.00
H126   H     0.83684   0.80293  -0.38809   0.00000  Uiso   1.00
N127   N     0.73777   0.78654  -0.08286   0.00000  Uiso   1.00
H128   H     0.73567   0.83246   0.08743   0.00000  Uiso   1.00
C129   C     0.75809   0.76357  -0.23078   0.00000  Uiso   1.00
H130   H     0.80911   0.74974  -0.46501   0.00000  Uiso   1.00
C131   C     0.57690   0.47120   0.06195   0.00000  Uiso   1.00
C132   C     0.53833   0.47111   0.02842   0.00000  Uiso   1.00
C133   C     0.51843   0.44238   0.01084   0.00000  Uiso   1.00
H134   H     0.53194   0.58096  -0.01063   0.00000  Uiso   1.00
C135   C     0.40226   0.44363  -0.15048   0.00000  Uiso   1.00
C136   C     0.36630   0.43859  -0.02134   0.00000  Uiso   1.00
C137   C     0.41588   0.41925  -0.37100   0.00000  Uiso   1.00
C138   C     0.34694   0.41145  -0.09539   0.00000  Uiso   1.00
H139   H     0.35424   0.45602   0.15356   0.00000  Uiso   1.00
C140   C     0.39703   0.39160  -0.43108   0.00000  Uiso   1.00
H141   H     0.44251   0.42227  -0.49038   0.00000  Uiso   1.00
C142   C     0.36279   0.38821  -0.29479   0.00000  Uiso   1.00
H143   H     0.31989   0.40757   0.01292   0.00000  Uiso   1.00
H144   H     0.40819   0.37262  -0.59236   0.00000  Uiso   1.00
N145   N     0.34505   0.36042  -0.35729   0.00000  Uiso   1.00
C146   C     0.30719   0.35733  -0.40657   0.00000  Uiso   1.00
H147   H     0.29015   0.37766  -0.48296   0.00000  Uiso   1.00
C148   C     0.29226   0.32567  -0.35811   0.00000  Uiso   1.00
C149   C     0.31262   0.30069  -0.21933   0.00000  Uiso   1.00
C150   C     0.25600   0.31865  -0.44699   0.00000  Uiso   1.00
N151   N     0.29699   0.27139  -0.17108   0.00000  Uiso   1.00
H152   H     0.34089   0.30418  -0.14129   0.00000  Uiso   1.00
C153   C     0.24005   0.29000  -0.40638   0.00000  Uiso   1.00
H154   H     0.23795   0.33648  -0.56030   0.00000  Uiso   1.00
C155   C     0.26045   0.26660  -0.26745   0.00000  Uiso   1.00
H156   H     0.31233   0.74845   0.05862   0.00000  Uiso   1.00
C157   C     0.92294   0.02923   0.03352   0.00000  Uiso   1.00
C158   C     0.96165   0.02903   0.01253   0.00000  Uiso   1.00
C159   C     0.98154   0.05773  -0.00083   0.00000  Uiso   1.00
H160   H     0.96805   0.91895   0.01012   0.00000  Uiso   1.00
C161   C     0.09841   0.05728  -0.07938   0.00000  Uiso   1.00
C162   C     0.13288   0.06075   0.08575   0.00000  Uiso   1.00
C163   C     0.08783   0.08316  -0.29622   0.00000  Uiso   1.00
C164   C     0.15390   0.08751   0.04448   0.00000  Uiso   1.00
H165   H     0.14247   0.04198   0.25873   0.00000  Uiso   1.00
C166   C     0.10856   0.11023  -0.32667   0.00000  Uiso   1.00
H167   H     0.06267   0.08137  -0.44388   0.00000  Uiso   1.00
C168   C     0.14133   0.11203  -0.15825   0.00000  Uiso   1.00
H169   H     0.17972   0.08941   0.18053   0.00000  Uiso   1.00
H170   H     0.10002   0.13013  -0.48976   0.00000  Uiso   1.00
N171   N     0.16094   0.13925  -0.20165   0.00000  Uiso   1.00
C172   C     0.19668   0.14521  -0.08489   0.00000  Uiso   1.00
H173   H     0.21311   0.12687   0.04195   0.00000  Uiso   1.00
C174   C     0.21095   0.17698  -0.14195   0.00000  Uiso   1.00
C175   C     0.19092   0.20123  -0.29843   0.00000  Uiso   1.00
C176   C     0.24653   0.18479  -0.03883   0.00000  Uiso   1.00
C177   C     0.20600   0.23087  -0.34174   0.00000  Uiso   1.00
H178   H     0.16316   0.19707  -0.38809   0.00000  Uiso   1.00
N179   N     0.26223   0.21346  -0.08286   0.00000  Uiso   1.00
H180   H     0.26433   0.16754   0.08743   0.00000  Uiso   1.00
C181   C     0.24191   0.23643  -0.23078   0.00000  Uiso   1.00
H182   H     0.19089   0.25026  -0.46501   0.00000  Uiso   1.00
C183   C     0.42310   0.52880   0.06195   0.00000  Uiso   1.00
C184   C     0.46167   0.52889   0.02842   0.00000  Uiso   1.00
C185   C     0.48157   0.55762   0.01084   0.00000  Uiso   1.00
H186   H     0.46806   0.41904  -0.01063   0.00000  Uiso   1.00
C187   C     0.59774   0.55637  -0.15048   0.00000  Uiso   1.00
C188   C     0.63370   0.56141  -0.02134   0.00000  Uiso   1.00
C189   C     0.58412   0.58075  -0.37100   0.00000  Uiso   1.00
C190   C     0.65306   0.58855  -0.09539   0.00000  Uiso   1.00
H191   H     0.64576   0.54398   0.15356   0.00000  Uiso   1.00
C192   C     0.60297   0.60840  -0.43108   0.00000  Uiso   1.00
H193   H     0.55749   0.57773  -0.49038   0.00000  Uiso   1.00
C194   C     0.63721   0.61179  -0.29479   0.00000  Uiso   1.00
H195   H     0.68011   0.59243   0.01292   0.00000  Uiso   1.00
H196   H     0.59181   0.62738  -0.59236   0.00000  Uiso   1.00
N197   N     0.65495   0.63958  -0.35729   0.00000  Uiso   1.00
C198   C     0.69281   0.64267  -0.40657   0.00000  Uiso   1.00
H199   H     0.70985   0.62234  -0.48296   0.00000  Uiso   1.00
C200   C     0.70774   0.67433  -0.35811   0.00000  Uiso   1.00
C201   C     0.68738   0.69931  -0.21933   0.00000  Uiso   1.00
C202   C     0.74400   0.68135  -0.44699   0.00000  Uiso   1.00
N203   N     0.70301   0.72861  -0.17108   0.00000  Uiso   1.00
H204   H     0.65911   0.69582  -0.14129   0.00000  Uiso   1.00
C205   C     0.75995   0.71000  -0.40638   0.00000  Uiso   1.00
H206   H     0.76205   0.66352  -0.56030   0.00000  Uiso   1.00
C207   C     0.73955   0.73340  -0.26745   0.00000  Uiso   1.00
H208   H     0.68767   0.25155   0.05862   0.00000  Uiso   1.00
C209   C     0.90511   0.00000   0.00000   0.00000  Uiso   1.00
C210   C     0.98105   0.00000   0.00000   0.00000  Uiso   1.00
H211   H     0.87534   0.00000   0.00000   0.00000  Uiso   1.00
C212   C     0.09489   0.00000   0.00000   0.00000  Uiso   1.00
C213   C     0.01895   0.00000   0.00000   0.00000  Uiso   1.00
H214   H     0.12466   0.00000   0.00000   0.00000  Uiso   1.00
C215   C     0.40520   0.50000   0.00000   0.00000  Uiso   1.00
C216   C     0.48107   0.50000   0.00000   0.00000  Uiso   1.00
H217   H     0.37546   0.50000   0.00000   0.00000  Uiso   1.00
C218   C     0.59480   0.50000   0.00000   0.00000  Uiso   1.00
C219   C     0.51893   0.50000   0.00000   0.00000  Uiso   1.00
H220   H     0.62454   0.50000   0.00000   0.00000  Uiso   1.00
loop_
_geom_bond_atom_site_label_1
_geom_bond_atom_site_label_2
_geom_bond_distance
_geom_bond_site_symmetry_2
_ccdc_geom_bond_type
C1     C2      1.431   .     D
C1     C109    1.426   .     S
C1     C209    1.396   1_565 S
C2     C3      1.409   .     S
C2     C210    1.412   1_565 S
C3     H160    1.097   .     S
C3     C107    1.363   1_655 D
H4     C159    1.097   .     S
C5     C6      1.438   .     D
C5     C7      1.436   .     S
C5     C105    1.426   .     S
C6     C8      1.373   .     S
C6     H9      1.101   .     S
C7     C10     1.373   .     D
C7     H11     1.100   .     S
C8     C12     1.383   .     D
C8     H13     1.097   .     S
C10    C12     1.383   .     S
C10    H14     1.100   .     S
C12    N15     1.361   .     S
N15    C16     1.420   .     D
C16    H17     1.100   .     S
C16    C18     1.448   .     S
C18    C19     1.400   .     D
C18    C20     1.414   .     S
C19    C21     1.371   .     S
C19    H22     1.098   .     S
C20    N23     1.344   .     D
C20    H24     1.097   .     S
C21    C25     1.416   .     D
C21    H26     1.099   .     S
N23    C25     1.353   .     S
C25    C103    1.444   .     S
C27    C28     1.430   .     D
C27    C215    1.397   .     S
C27    C135    1.431   .     S
C28    C29     1.411   .     S
C28    C216    1.410   .     S
C29    C133    1.363   .     D
C29    H186    1.097   .     S
H30    C185    1.097   .     S
C31    C32     1.438   .     D
C31    C33     1.434   .     S
C31    C131    1.431   .     S
C32    C34     1.374   .     S
C32    H35     1.100   .     S
C33    C36     1.372   .     D
C33    H37     1.098   .     S
C34    C38     1.383   .     D
C34    H39     1.099   .     S
C36    C38     1.381   .     S
C36    H40     1.099   .     S
C38    N41     1.358   .     S
N41    C42     1.417   .     D
C42    H43     1.101   .     S
C42    C44     1.448   .     S
C44    C45     1.400   .     D
C44    C46     1.415   .     S
C45    N47     1.369   .     S
C45    H48     1.098   .     S
C46    C49     1.346   .     D
C46    H50     1.096   .     S
N47    C51     1.416   .     S
N47    H208    1.099   .     S
C49    C51     1.352   .     D
C51    C77     1.444   .     S
H52    N203    1.099   .     S
C53    C54     1.431   .     S
C53    C212    1.396   .     D
C53    C161    1.426   .     S
C54    C55     1.409   .     S
C54    C213    1.412   .     D
C55    H108    1.097   .     S
C55    C159    1.363   1_455 D
H56    C107    1.097   .     S
C57    C58     1.438   .     D
C57    C59     1.436   .     S
C57    C157    1.426   .     S
C58    C60     1.373   .     S
C58    H61     1.101   .     S
C59    C62     1.373   .     D
C59    H63     1.100   .     S
C60    C64     1.383   .     D
C60    H65     1.097   .     S
C62    C64     1.383   .     S
C62    H66     1.100   .     S
C64    N67     1.361   .     S
N67    C68     1.420   .     D
C68    H69     1.100   .     S
C68    C70     1.448   .     S
C70    C71     1.400   .     D
C70    C72     1.414   .     S
C71    C73     1.371   .     S
C71    H74     1.098   .     S
C72    N75     1.344   .     D
C72    H76     1.097   .     S
C73    C77     1.416   .     D
C73    H78     1.099   .     S
N75    C77     1.353   .     S
C79    C80     1.430   .     S
C79    C218    1.397   .     D
C79    C187    1.431   .     S
C80    C81     1.411   .     D
C80    C219    1.410   .     S
C81    C185    1.363   .     S
C81    H134    1.097   .     S
H82    C133    1.097   .     S
C83    C84     1.438   .     S
C83    C85     1.434   .     D
C83    C183    1.431   .     S
C84    C86     1.374   .     D
C84    H87     1.100   .     S
C85    C88     1.372   .     S
C85    H89     1.098   .     S
C86    C90     1.383   .     S
C86    H91     1.099   .     S
C88    C90     1.381   .     D
C88    H92     1.099   .     S
C90    N93     1.358   .     S
N93    C94     1.417   .     D
C94    H95     1.101   .     S
C94    C96     1.448   .     S
C96    C97     1.400   .     D
C96    C98     1.415   .     S
C97    N99     1.369   .     S
C97    H100    1.098   .     S
C98    C101    1.346   .     D
C98    H102    1.096   .     S
N99    C103    1.416   .     S
N99    H156    1.099   .     S
C101   C103    1.352   .     D
H104   N151    1.099   .     S
C105   C106    1.431   .     D
C105   C212    1.396   1_565 S
C106   C107    1.409   .     S
C106   C213    1.412   1_565 S
C107   C3      1.363   1_455 D
C109   C110    1.438   .     D
C109   C111    1.436   .     S
C110   C112    1.373   .     S
C110   H113    1.101   .     S
C111   C114    1.373   .     D
C111   H115    1.100   .     S
C112   C116    1.383   .     D
C112   H117    1.097   .     S
C114   C116    1.383   .     S
C114   H118    1.100   .     S
C116   N119    1.361   .     S
N119   C120    1.420   .     D
C120   H121    1.100   .     S
C120   C122    1.448   .     S
C122   C123    1.400   .     D
C122   C124    1.414   .     S
C123   C125    1.371   .     S
C123   H126    1.098   .     S
C124   N127    1.344   .     D
C124   H128    1.097   .     S
C125   C129    1.416   .     D
C125   H130    1.099   .     S
N127   C129    1.353   .     S
C129   C207    1.444   .     S
C131   C132    1.430   .     D
C131   C218    1.397   .     S
C132   C133    1.411   .     S
C132   C219    1.410   .     S
C135   C136    1.438   .     D
C135   C137    1.434   .     S
C136   C138    1.374   .     S
C136   H139    1.100   .     S
C137   C140    1.372   .     D
C137   H141    1.098   .     S
C138   C142    1.383   .     D
C138   H143    1.099   .     S
C140   C142    1.381   .     S
C140   H144    1.099   .     S
C142   N145    1.358   .     S
N145   C146    1.417   .     D
C146   H147    1.101   .     S
C146   C148    1.448   .     S
C148   C149    1.400   .     D
C148   C150    1.415   .     S
C149   N151    1.369   .     S
C149   H152    1.098   .     S
C150   C153    1.346   .     D
C150   H154    1.096   .     S
N151   C155    1.416   .     S
C153   C155    1.352   .     D
C155   C181    1.444   .     S
C157   C158    1.431   .     S
C157   C209    1.396   .     D
C158   C159    1.409   .     S
C158   C210    1.412   .     D
C159   C55     1.363   1_655 D
C161   C162    1.438   .     D
C161   C163    1.436   .     S
C162   C164    1.373   .     S
C162   H165    1.101   .     S
C163   C166    1.373   .     D
C163   H167    1.100   .     S
C164   C168    1.383   .     D
C164   H169    1.097   .     S
C166   C168    1.383   .     S
C166   H170    1.100   .     S
C168   N171    1.361   .     S
N171   C172    1.420   .     D
C172   H173    1.100   .     S
C172   C174    1.448   .     S
C174   C175    1.400   .     D
C174   C176    1.414   .     S
C175   C177    1.371   .     S
C175   H178    1.098   .     S
C176   N179    1.344   .     D
C176   H180    1.097   .     S
C177   C181    1.416   .     D
C177   H182    1.099   .     S
N179   C181    1.353   .     S
C183   C184    1.430   .     S
C183   C215    1.397   .     D
C184   C185    1.411   .     D
C184   C216    1.410   .     S
C187   C188    1.438   .     S
C187   C189    1.434   .     D
C188   C190    1.374   .     D
C188   H191    1.100   .     S
C189   C192    1.372   .     S
C189   H193    1.098   .     S
C190   C194    1.383   .     S
C190   H195    1.099   .     S
C192   C194    1.381   .     D
C192   H196    1.099   .     S
C194   N197    1.358   .     S
N197   C198    1.417   .     D
C198   H199    1.101   .     S
C198   C200    1.448   .     S
C200   C201    1.400   .     D
C200   C202    1.415   .     S
C201   N203    1.369   .     S
C201   H204    1.098   .     S
C202   C205    1.346   .     D
C202   H206    1.096   .     S
N203   C207    1.416   .     S
C205   C207    1.352   .     D
C209   H211    1.099   .     S
C209   C1      1.396   1_545 S
C210   C2      1.412   1_545 S
C210   C213    1.399   1_655 S
C212   H214    1.099   .     S
C212   C105    1.396   1_545 S
C213   C106    1.412   1_545 S
C213   C210    1.399   1_455 S
C215   H217    1.098   .     S
C216   C219    1.398   .     D
C218   H220    1.098   .     S
