data_1172
_audit_creation_date              2023-09-08
_audit_creation_method            'Materials Studio'
_symmetry_space_group_name_H-M    'P1'
_symmetry_Int_Tables_number       1
_symmetry_cell_setting            triclinic
loop_
_symmetry_equiv_pos_as_xyz
  x,y,z
_cell_length_a                    39.9494
_cell_length_b                    40.8391
_cell_length_c                    3.8138
_cell_angle_alpha                 90.0000
_cell_angle_beta                  90.0000
_cell_angle_gamma                 90.0000
loop_
_atom_site_label
_atom_site_type_symbol
_atom_site_fract_x
_atom_site_fract_y
_atom_site_fract_z
_atom_site_U_iso_or_equiv
_atom_site_adp_type
_atom_site_occupancy
C1     C     0.53076   0.42807  -0.04262   0.00000  Uiso   1.00
C2     C     0.53067   0.46500  -0.01729   0.00000  Uiso   1.00
C3     C     0.06044   0.98309   0.00352   0.00000  Uiso   1.00
C4     C     0.56014   0.59113   0.11016   0.00000  Uiso   1.00
C5     C     0.56359   0.62334  -0.02418   0.00000  Uiso   1.00
C6     C     0.58656   0.57926   0.31972   0.00000  Uiso   1.00
C7     C     0.59231   0.64195   0.03934   0.00000  Uiso   1.00
C8     C     0.61597   0.59716   0.36850   0.00000  Uiso   1.00
C9     C     0.61919   0.62874   0.22955   0.00000  Uiso   1.00
N10    N     0.65174   0.67775   0.17170   0.00000  Uiso   1.00
C11    C     0.67929   0.69735   0.18291   0.00000  Uiso   1.00
C12    C     0.21120   0.18542   0.27537   0.00000  Uiso   1.00
C13    C     0.67598   0.73068   0.09068   0.00000  Uiso   1.00
C14    C     0.23901   0.20608   0.27493   0.00000  Uiso   1.00
C15    C     0.70385   0.75138   0.10097   0.00000  Uiso   1.00
C16    C     0.73588   0.73951   0.19002   0.00000  Uiso   1.00
H17    H     0.91539   0.97169  -0.02786   0.00000  Uiso   1.00
H18    H     0.54526   0.63392  -0.19910   0.00000  Uiso   1.00
H19    H     0.08436   0.05644   0.45837   0.00000  Uiso   1.00
H20    H     0.59388   0.66618  -0.07490   0.00000  Uiso   1.00
H21    H     0.13579   0.08663   0.52651   0.00000  Uiso   1.00
H22    H     0.26280   0.19586   0.35517   0.00000  Uiso   1.00
O23    O     0.64533   0.74422  -0.01280   0.00000  Uiso   1.00
H24    H     0.70038   0.77658   0.02062   0.00000  Uiso   1.00
C25    C     0.64887   0.64628   0.28199   0.00000  Uiso   1.00
H26    H     0.21535   0.16008   0.34267   0.00000  Uiso   1.00
H27    H     0.33089   0.63445  -0.42118   0.00000  Uiso   1.00
H28    H     0.37408   0.72831   0.02029   0.00000  Uiso   1.00
C29    C     0.03076   0.92807  -0.04262   0.00000  Uiso   1.00
C30    C     0.03067   0.96500  -0.01729   0.00000  Uiso   1.00
C31    C     0.56044   0.48309   0.00352   0.00000  Uiso   1.00
C32    C     0.06014   0.09113   0.11016   0.00000  Uiso   1.00
C33    C     0.06359   0.12334  -0.02418   0.00000  Uiso   1.00
C34    C     0.08656   0.07926   0.31972   0.00000  Uiso   1.00
C35    C     0.09231   0.14195   0.03934   0.00000  Uiso   1.00
C36    C     0.11597   0.09716   0.36850   0.00000  Uiso   1.00
C37    C     0.11919   0.12874   0.22955   0.00000  Uiso   1.00
N38    N     0.15174   0.17775   0.17170   0.00000  Uiso   1.00
C39    C     0.17929   0.19735   0.18291   0.00000  Uiso   1.00
C40    C     0.71120   0.68542   0.27537   0.00000  Uiso   1.00
C41    C     0.17598   0.23068   0.09068   0.00000  Uiso   1.00
C42    C     0.73901   0.70608   0.27493   0.00000  Uiso   1.00
C43    C     0.20385   0.25138   0.10097   0.00000  Uiso   1.00
C44    C     0.23588   0.23951   0.19002   0.00000  Uiso   1.00
H45    H     0.41539   0.47169  -0.02786   0.00000  Uiso   1.00
H46    H     0.04526   0.13392  -0.19910   0.00000  Uiso   1.00
H47    H     0.58436   0.55644   0.45837   0.00000  Uiso   1.00
H48    H     0.09388   0.16618  -0.07490   0.00000  Uiso   1.00
H49    H     0.63579   0.58663   0.52651   0.00000  Uiso   1.00
H50    H     0.76280   0.69586   0.35517   0.00000  Uiso   1.00
O51    O     0.14533   0.24422  -0.01280   0.00000  Uiso   1.00
H52    H     0.20038   0.27658   0.02062   0.00000  Uiso   1.00
C53    C     0.14887   0.14628   0.28199   0.00000  Uiso   1.00
H54    H     0.71535   0.66008   0.34267   0.00000  Uiso   1.00
H55    H     0.83089   0.13445  -0.42118   0.00000  Uiso   1.00
H56    H     0.87408   0.22831   0.02029   0.00000  Uiso   1.00
C57    C     0.46924   0.57193  -0.04262   0.00000  Uiso   1.00
C58    C     0.46933   0.53500  -0.01729   0.00000  Uiso   1.00
C59    C     0.93956   0.01691   0.00352   0.00000  Uiso   1.00
C60    C     0.43986   0.40887   0.11016   0.00000  Uiso   1.00
C61    C     0.43641   0.37666  -0.02418   0.00000  Uiso   1.00
C62    C     0.41344   0.42074   0.31972   0.00000  Uiso   1.00
C63    C     0.40769   0.35805   0.03934   0.00000  Uiso   1.00
C64    C     0.38403   0.40284   0.36850   0.00000  Uiso   1.00
C65    C     0.38081   0.37126   0.22955   0.00000  Uiso   1.00
N66    N     0.34826   0.32225   0.17170   0.00000  Uiso   1.00
C67    C     0.32071   0.30265   0.18291   0.00000  Uiso   1.00
C68    C     0.78880   0.81458   0.27537   0.00000  Uiso   1.00
C69    C     0.32402   0.26932   0.09068   0.00000  Uiso   1.00
C70    C     0.76099   0.79392   0.27493   0.00000  Uiso   1.00
C71    C     0.29615   0.24862   0.10097   0.00000  Uiso   1.00
C72    C     0.26412   0.26049   0.19002   0.00000  Uiso   1.00
H73    H     0.08461   0.02831  -0.02786   0.00000  Uiso   1.00
H74    H     0.45474   0.36608  -0.19910   0.00000  Uiso   1.00
H75    H     0.91564   0.94356   0.45837   0.00000  Uiso   1.00
H76    H     0.40612   0.33382  -0.07490   0.00000  Uiso   1.00
H77    H     0.86421   0.91337   0.52651   0.00000  Uiso   1.00
H78    H     0.73720   0.80414   0.35517   0.00000  Uiso   1.00
O79    O     0.35467   0.25578  -0.01280   0.00000  Uiso   1.00
H80    H     0.29962   0.22342   0.02062   0.00000  Uiso   1.00
C81    C     0.35113   0.35372   0.28199   0.00000  Uiso   1.00
H82    H     0.78465   0.83992   0.34267   0.00000  Uiso   1.00
H83    H     0.66911   0.36555  -0.42118   0.00000  Uiso   1.00
H84    H     0.62592   0.27169   0.02029   0.00000  Uiso   1.00
C85    C     0.96924   0.07193  -0.04262   0.00000  Uiso   1.00
C86    C     0.96933   0.03500  -0.01729   0.00000  Uiso   1.00
C87    C     0.43956   0.51691   0.00352   0.00000  Uiso   1.00
C88    C     0.93986   0.90887   0.11016   0.00000  Uiso   1.00
C89    C     0.93641   0.87666  -0.02418   0.00000  Uiso   1.00
C90    C     0.91344   0.92074   0.31972   0.00000  Uiso   1.00
C91    C     0.90769   0.85805   0.03934   0.00000  Uiso   1.00
C92    C     0.88403   0.90284   0.36850   0.00000  Uiso   1.00
C93    C     0.88081   0.87126   0.22955   0.00000  Uiso   1.00
N94    N     0.84826   0.82225   0.17170   0.00000  Uiso   1.00
C95    C     0.82071   0.80265   0.18291   0.00000  Uiso   1.00
C96    C     0.28880   0.31458   0.27537   0.00000  Uiso   1.00
C97    C     0.82402   0.76932   0.09068   0.00000  Uiso   1.00
C98    C     0.26099   0.29392   0.27493   0.00000  Uiso   1.00
C99    C     0.79615   0.74862   0.10097   0.00000  Uiso   1.00
C100   C     0.76412   0.76049   0.19002   0.00000  Uiso   1.00
H101   H     0.58461   0.52831  -0.02786   0.00000  Uiso   1.00
H102   H     0.95474   0.86608  -0.19910   0.00000  Uiso   1.00
H103   H     0.41564   0.44356   0.45837   0.00000  Uiso   1.00
H104   H     0.90612   0.83382  -0.07490   0.00000  Uiso   1.00
H105   H     0.36421   0.41337   0.52651   0.00000  Uiso   1.00
H106   H     0.23720   0.30414   0.35517   0.00000  Uiso   1.00
O107   O     0.85467   0.75578  -0.01280   0.00000  Uiso   1.00
H108   H     0.79962   0.72342   0.02062   0.00000  Uiso   1.00
C109   C     0.85113   0.85372   0.28199   0.00000  Uiso   1.00
H110   H     0.28465   0.33992   0.34267   0.00000  Uiso   1.00
H111   H     0.16911   0.86555  -0.42118   0.00000  Uiso   1.00
H112   H     0.12592   0.77169   0.02029   0.00000  Uiso   1.00
C113   C     0.46924   0.42807   0.04262   0.00000  Uiso   1.00
C114   C     0.46933   0.46500   0.01729   0.00000  Uiso   1.00
C115   C     0.93956   0.98309  -0.00352   0.00000  Uiso   1.00
C116   C     0.43986   0.59113  -0.11016   0.00000  Uiso   1.00
C117   C     0.43641   0.62334   0.02418   0.00000  Uiso   1.00
C118   C     0.41344   0.57926  -0.31972   0.00000  Uiso   1.00
C119   C     0.40769   0.64195  -0.03934   0.00000  Uiso   1.00
C120   C     0.38403   0.59716  -0.36850   0.00000  Uiso   1.00
C121   C     0.38081   0.62874  -0.22955   0.00000  Uiso   1.00
N122   N     0.34826   0.67775  -0.17170   0.00000  Uiso   1.00
C123   C     0.32071   0.69735  -0.18291   0.00000  Uiso   1.00
C124   C     0.78880   0.18542  -0.27537   0.00000  Uiso   1.00
C125   C     0.32402   0.73068  -0.09068   0.00000  Uiso   1.00
C126   C     0.76099   0.20608  -0.27493   0.00000  Uiso   1.00
C127   C     0.29615   0.75138  -0.10097   0.00000  Uiso   1.00
C128   C     0.26412   0.73951  -0.19002   0.00000  Uiso   1.00
H129   H     0.08461   0.97169   0.02786   0.00000  Uiso   1.00
H130   H     0.45474   0.63392   0.19910   0.00000  Uiso   1.00
H131   H     0.91564   0.05644  -0.45837   0.00000  Uiso   1.00
H132   H     0.40612   0.66618   0.07490   0.00000  Uiso   1.00
H133   H     0.86421   0.08663  -0.52651   0.00000  Uiso   1.00
H134   H     0.73720   0.19586  -0.35517   0.00000  Uiso   1.00
O135   O     0.35467   0.74422   0.01280   0.00000  Uiso   1.00
H136   H     0.29962   0.77658  -0.02062   0.00000  Uiso   1.00
C137   C     0.35113   0.64628  -0.28199   0.00000  Uiso   1.00
H138   H     0.78465   0.16008  -0.34267   0.00000  Uiso   1.00
H139   H     0.66911   0.63445   0.42118   0.00000  Uiso   1.00
H140   H     0.62592   0.72831  -0.02029   0.00000  Uiso   1.00
C141   C     0.96924   0.92807   0.04262   0.00000  Uiso   1.00
C142   C     0.96933   0.96500   0.01729   0.00000  Uiso   1.00
C143   C     0.43956   0.48309  -0.00352   0.00000  Uiso   1.00
C144   C     0.93986   0.09113  -0.11016   0.00000  Uiso   1.00
C145   C     0.93641   0.12334   0.02418   0.00000  Uiso   1.00
C146   C     0.91344   0.07926  -0.31972   0.00000  Uiso   1.00
C147   C     0.90769   0.14195  -0.03934   0.00000  Uiso   1.00
C148   C     0.88403   0.09716  -0.36850   0.00000  Uiso   1.00
C149   C     0.88081   0.12874  -0.22955   0.00000  Uiso   1.00
N150   N     0.84826   0.17775  -0.17170   0.00000  Uiso   1.00
C151   C     0.82071   0.19735  -0.18291   0.00000  Uiso   1.00
C152   C     0.28880   0.68542  -0.27537   0.00000  Uiso   1.00
C153   C     0.82402   0.23068  -0.09068   0.00000  Uiso   1.00
C154   C     0.26099   0.70608  -0.27493   0.00000  Uiso   1.00
C155   C     0.79615   0.25138  -0.10097   0.00000  Uiso   1.00
C156   C     0.76412   0.23951  -0.19002   0.00000  Uiso   1.00
H157   H     0.58461   0.47169   0.02786   0.00000  Uiso   1.00
H158   H     0.95474   0.13392   0.19910   0.00000  Uiso   1.00
H159   H     0.41564   0.55644  -0.45837   0.00000  Uiso   1.00
H160   H     0.90612   0.16618   0.07490   0.00000  Uiso   1.00
H161   H     0.36421   0.58663  -0.52651   0.00000  Uiso   1.00
H162   H     0.23720   0.69586  -0.35517   0.00000  Uiso   1.00
O163   O     0.85467   0.24422   0.01280   0.00000  Uiso   1.00
H164   H     0.79962   0.27658  -0.02062   0.00000  Uiso   1.00
C165   C     0.85113   0.14628  -0.28199   0.00000  Uiso   1.00
H166   H     0.28465   0.66008  -0.34267   0.00000  Uiso   1.00
H167   H     0.16911   0.13445   0.42118   0.00000  Uiso   1.00
H168   H     0.12592   0.22831  -0.02029   0.00000  Uiso   1.00
C169   C     0.53076   0.57193   0.04262   0.00000  Uiso   1.00
C170   C     0.53067   0.53500   0.01729   0.00000  Uiso   1.00
C171   C     0.06044   0.01691  -0.00352   0.00000  Uiso   1.00
C172   C     0.56014   0.40887  -0.11016   0.00000  Uiso   1.00
C173   C     0.56359   0.37666   0.02418   0.00000  Uiso   1.00
C174   C     0.58656   0.42074  -0.31972   0.00000  Uiso   1.00
C175   C     0.59231   0.35805  -0.03934   0.00000  Uiso   1.00
C176   C     0.61597   0.40284  -0.36850   0.00000  Uiso   1.00
C177   C     0.61919   0.37126  -0.22955   0.00000  Uiso   1.00
N178   N     0.65174   0.32225  -0.17170   0.00000  Uiso   1.00
C179   C     0.67929   0.30265  -0.18291   0.00000  Uiso   1.00
C180   C     0.21120   0.81458  -0.27537   0.00000  Uiso   1.00
C181   C     0.67598   0.26932  -0.09068   0.00000  Uiso   1.00
C182   C     0.23901   0.79392  -0.27493   0.00000  Uiso   1.00
C183   C     0.70385   0.24862  -0.10097   0.00000  Uiso   1.00
C184   C     0.73588   0.26049  -0.19002   0.00000  Uiso   1.00
H185   H     0.91539   0.02831   0.02786   0.00000  Uiso   1.00
H186   H     0.54526   0.36608   0.19910   0.00000  Uiso   1.00
H187   H     0.08436   0.94356  -0.45837   0.00000  Uiso   1.00
H188   H     0.59388   0.33382   0.07490   0.00000  Uiso   1.00
H189   H     0.13579   0.91337  -0.52651   0.00000  Uiso   1.00
H190   H     0.26280   0.80414  -0.35517   0.00000  Uiso   1.00
O191   O     0.64533   0.25578   0.01280   0.00000  Uiso   1.00
H192   H     0.70038   0.22342  -0.02062   0.00000  Uiso   1.00
C193   C     0.64887   0.35372  -0.28199   0.00000  Uiso   1.00
H194   H     0.21535   0.83992  -0.34267   0.00000  Uiso   1.00
H195   H     0.33089   0.36555   0.42118   0.00000  Uiso   1.00
H196   H     0.37408   0.27169  -0.02029   0.00000  Uiso   1.00
C197   C     0.03076   0.07193   0.04262   0.00000  Uiso   1.00
C198   C     0.03067   0.03500   0.01729   0.00000  Uiso   1.00
C199   C     0.56044   0.51691  -0.00352   0.00000  Uiso   1.00
C200   C     0.06014   0.90887  -0.11016   0.00000  Uiso   1.00
C201   C     0.06359   0.87666   0.02418   0.00000  Uiso   1.00
C202   C     0.08656   0.92074  -0.31972   0.00000  Uiso   1.00
C203   C     0.09231   0.85805  -0.03934   0.00000  Uiso   1.00
C204   C     0.11597   0.90284  -0.36850   0.00000  Uiso   1.00
C205   C     0.11919   0.87126  -0.22955   0.00000  Uiso   1.00
N206   N     0.15174   0.82225  -0.17170   0.00000  Uiso   1.00
C207   C     0.17929   0.80265  -0.18291   0.00000  Uiso   1.00
C208   C     0.71120   0.31458  -0.27537   0.00000  Uiso   1.00
C209   C     0.17598   0.76932  -0.09068   0.00000  Uiso   1.00
C210   C     0.73901   0.29392  -0.27493   0.00000  Uiso   1.00
C211   C     0.20385   0.74862  -0.10097   0.00000  Uiso   1.00
C212   C     0.23588   0.76049  -0.19002   0.00000  Uiso   1.00
H213   H     0.41539   0.52831   0.02786   0.00000  Uiso   1.00
H214   H     0.04526   0.86608   0.19910   0.00000  Uiso   1.00
H215   H     0.58436   0.44356  -0.45837   0.00000  Uiso   1.00
H216   H     0.09388   0.83382   0.07490   0.00000  Uiso   1.00
H217   H     0.63579   0.41337  -0.52651   0.00000  Uiso   1.00
H218   H     0.76280   0.30414  -0.35517   0.00000  Uiso   1.00
O219   O     0.14533   0.75578   0.01280   0.00000  Uiso   1.00
H220   H     0.20038   0.72342  -0.02062   0.00000  Uiso   1.00
C221   C     0.14887   0.85372  -0.28199   0.00000  Uiso   1.00
H222   H     0.71535   0.33992  -0.34267   0.00000  Uiso   1.00
H223   H     0.83089   0.86555   0.42118   0.00000  Uiso   1.00
H224   H     0.87408   0.77169  -0.02029   0.00000  Uiso   1.00
C225   C     0.50000   0.41187   0.00000   0.00000  Uiso   1.00
C226   C     0.50000   0.48240   0.00000   0.00000  Uiso   1.00
H227   H     0.50000   0.38558   0.00000   0.00000  Uiso   1.00
C228   C     0.00000   0.91187   0.00000   0.00000  Uiso   1.00
C229   C     0.00000   0.98240   0.00000   0.00000  Uiso   1.00
H230   H     0.00000   0.88558   0.00000   0.00000  Uiso   1.00
C231   C     0.50000   0.58813   0.00000   0.00000  Uiso   1.00
C232   C     0.50000   0.51760   0.00000   0.00000  Uiso   1.00
H233   H     0.50000   0.61442   0.00000   0.00000  Uiso   1.00
C234   C     0.00000   0.08813   0.00000   0.00000  Uiso   1.00
C235   C     0.00000   0.01760   0.00000   0.00000  Uiso   1.00
H236   H     0.00000   0.11442   0.00000   0.00000  Uiso   1.00
loop_
_geom_bond_atom_site_label_1
_geom_bond_atom_site_label_2
_geom_bond_distance
_geom_bond_site_symmetry_2
_ccdc_geom_bond_type
C1     C2      1.511   .     S
C1     C225    1.405   .     D
C1     C172    1.435   .     S
C2     C226    1.418   .     D
C2     C31     1.402   .     S
C3     C30     1.402   .     S
C3     H129    1.076   .     S
C3     C171    1.381   1_565 D
C4     C5      1.418   .     D
C4     C6      1.410   .     S
C4     C169    1.435   .     S
C5     C7      1.397   .     S
C5     H18     1.081   .     S
C6     C8      1.396   .     D
C6     H47     1.075   .     S
C7     C9      1.404   .     D
C7     H20     1.083   .     S
C8     C9      1.400   .     S
C8     H49     1.084   .     S
C9     C25     1.400   .     S
N10    C11     1.362   .     S
N10    C25     1.357   .     D
C11    C13     1.412   .     D
C11    C40     1.410   .     S
C12    C14     1.395   .     D
C12    H26     1.079   .     S
C12    C39     1.410   .     S
C13    C15     1.399   .     S
C13    O23     1.400   .     S
C14    H22     1.082   .     S
C14    C44     1.409   .     S
C15    C16     1.410   .     D
C15    H24     1.083   .     S
C16    C42     1.409   .     S
C16    C100    1.417   .     S
H17    C115    1.076   .     S
H19    C34     1.075   .     S
H21    C36     1.084   .     S
O23    H140    1.012   .     S
C25    H139    1.081   .     S
H27    C137    1.081   .     S
H28    O135    1.012   .     S
C29    C30     1.511   .     D
C29    C228    1.405   .     S
C29    C200    1.435   .     S
C30    C229    1.418   .     S
C31    H157    1.076   .     S
C31    C199    1.381   .     D
C32    C33     1.418   .     S
C32    C34     1.410   .     D
C32    C197    1.435   .     S
C33    C35     1.397   .     D
C33    H46     1.081   .     S
C34    C36     1.396   .     S
C35    C37     1.404   .     S
C35    H48     1.083   .     S
C36    C37     1.400   .     D
C37    C53     1.400   .     S
N38    C39     1.362   .     S
N38    C53     1.357   .     D
C39    C41     1.412   .     D
C40    C42     1.395   .     D
C40    H54     1.079   .     S
C41    C43     1.399   .     S
C41    O51     1.400   .     S
C42    H50     1.082   .     S
C43    C44     1.410   .     D
C43    H52     1.083   .     S
C44    C72     1.417   .     S
H45    C143    1.076   .     S
O51    H168    1.012   .     S
C53    H167    1.081   .     S
H55    C165    1.081   .     S
H56    O163    1.012   .     S
C57    C58     1.511   .     S
C57    C231    1.405   .     D
C57    C116    1.435   .     S
C58    C232    1.418   .     D
C58    C87     1.402   .     S
C59    C86     1.402   .     S
C59    H185    1.076   .     S
C59    C115    1.381   1_545 D
C60    C61     1.418   .     D
C60    C62     1.410   .     S
C60    C113    1.435   .     S
C61    C63     1.397   .     S
C61    H74     1.081   .     S
C62    C64     1.396   .     D
C62    H103    1.075   .     S
C63    C65     1.404   .     D
C63    H76     1.083   .     S
C64    C65     1.400   .     S
C64    H105    1.084   .     S
C65    C81     1.400   .     S
N66    C67     1.362   .     S
N66    C81     1.357   .     D
C67    C69     1.412   .     D
C67    C96     1.410   .     S
C68    C70     1.395   .     S
C68    H82     1.079   .     S
C68    C95     1.410   .     D
C69    C71     1.399   .     S
C69    O79     1.400   .     S
C70    H78     1.082   .     S
C70    C100    1.409   .     D
C71    C72     1.410   .     D
C71    H80     1.083   .     S
C72    C98     1.409   .     S
H73    C171    1.076   .     S
H75    C90     1.075   .     S
H77    C92     1.084   .     S
O79    H196    1.012   .     S
C81    H195    1.081   .     S
H83    C193    1.081   .     S
H84    O191    1.012   .     S
C85    C86     1.511   .     S
C85    C144    1.435   .     S
C85    C234    1.405   1_655 D
C86    C235    1.418   1_655 D
C87    H213    1.076   .     S
C87    C143    1.381   .     D
C88    C89     1.418   .     D
C88    C90     1.410   .     S
C88    C141    1.435   .     S
C89    C91     1.397   .     S
C89    H102    1.081   .     S
C90    C92     1.396   .     D
C91    C93     1.404   .     D
C91    H104    1.083   .     S
C92    C93     1.400   .     S
C93    C109    1.400   .     S
N94    C95     1.362   .     S
N94    C109    1.357   .     D
C95    C97     1.412   .     S
C96    C98     1.395   .     D
C96    H110    1.079   .     S
C97    C99     1.399   .     D
C97    O107    1.400   .     S
C98    H106    1.082   .     S
C99    C100    1.410   .     S
C99    H108    1.083   .     S
H101   C199    1.076   .     S
O107   H224    1.012   .     S
C109   H223    1.081   .     S
H111   C221    1.081   .     S
H112   O219    1.012   .     S
C113   C114    1.511   .     D
C113   C225    1.405   .     S
C114   C226    1.418   .     S
C114   C143    1.402   .     S
C115   C142    1.402   .     S
C115   C59     1.381   1_565 D
C116   C117    1.418   .     S
C116   C118    1.410   .     D
C117   C119    1.397   .     D
C117   H130    1.081   .     S
C118   C120    1.396   .     S
C118   H159    1.075   .     S
C119   C121    1.404   .     S
C119   H132    1.083   .     S
C120   C121    1.400   .     D
C120   H161    1.084   .     S
C121   C137    1.400   .     S
N122   C123    1.362   .     S
N122   C137    1.357   .     D
C123   C125    1.412   .     S
C123   C152    1.410   .     D
C124   C126    1.395   .     S
C124   H138    1.079   .     S
C124   C151    1.410   .     D
C125   C127    1.399   .     D
C125   O135    1.400   .     S
C126   H134    1.082   .     S
C126   C156    1.409   .     D
C127   C128    1.410   .     S
C127   H136    1.083   .     S
C128   C154    1.409   .     D
C128   C212    1.417   .     S
H131   C146    1.075   .     S
H133   C148    1.084   .     S
C141   C142    1.511   .     S
C141   C228    1.405   1_655 D
C142   C229    1.418   1_655 D
C144   C145    1.418   .     D
C144   C146    1.410   .     S
C145   C147    1.397   .     S
C145   H158    1.081   .     S
C146   C148    1.396   .     D
C147   C149    1.404   .     D
C147   H160    1.083   .     S
C148   C149    1.400   .     S
C149   C165    1.400   .     S
N150   C151    1.362   .     S
N150   C165    1.357   .     D
C151   C153    1.412   .     S
C152   C154    1.395   .     S
C152   H166    1.079   .     S
C153   C155    1.399   .     D
C153   O163    1.400   .     S
C154   H162    1.082   .     S
C155   C156    1.410   .     S
C155   H164    1.083   .     S
C156   C184    1.417   .     S
C169   C170    1.511   .     D
C169   C231    1.405   .     S
C170   C232    1.418   .     S
C170   C199    1.402   .     S
C171   C198    1.402   .     S
C171   C3      1.381   1_545 D
C172   C173    1.418   .     D
C172   C174    1.410   .     S
C173   C175    1.397   .     S
C173   H186    1.081   .     S
C174   C176    1.396   .     D
C174   H215    1.075   .     S
C175   C177    1.404   .     D
C175   H188    1.083   .     S
C176   C177    1.400   .     S
C176   H217    1.084   .     S
C177   C193    1.400   .     S
N178   C179    1.362   .     S
N178   C193    1.357   .     D
C179   C181    1.412   .     D
C179   C208    1.410   .     S
C180   C182    1.395   .     S
C180   H194    1.079   .     S
C180   C207    1.410   .     D
C181   C183    1.399   .     S
C181   O191    1.400   .     S
C182   H190    1.082   .     S
C182   C212    1.409   .     D
C183   C184    1.410   .     D
C183   H192    1.083   .     S
C184   C210    1.409   .     S
H187   C202    1.075   .     S
H189   C204    1.084   .     S
C197   C198    1.511   .     D
C197   C234    1.405   .     S
C198   C235    1.418   .     S
C200   C201    1.418   .     D
C200   C202    1.410   .     S
C201   C203    1.397   .     S
C201   H214    1.081   .     S
C202   C204    1.396   .     D
C203   C205    1.404   .     D
C203   H216    1.083   .     S
C204   C205    1.400   .     S
C205   C221    1.400   .     S
N206   C207    1.362   .     S
N206   C221    1.357   .     D
C207   C209    1.412   .     S
C208   C210    1.395   .     D
C208   H222    1.079   .     S
C209   C211    1.399   .     D
C209   O219    1.400   .     S
C210   H218    1.082   .     S
C211   C212    1.410   .     S
C211   H220    1.083   .     S
C225   H227    1.074   .     S
C226   C232    1.438   .     S
C228   H230    1.074   .     S
C228   C141    1.405   1_455 D
C229   C142    1.418   1_455 D
C229   C235    1.438   1_565 S
C231   H233    1.074   .     S
C234   H236    1.074   .     S
C234   C85     1.405   1_455 D
C235   C86     1.418   1_455 D
C235   C229    1.438   1_545 S
