data_1173
_audit_creation_date              2023-09-08
_audit_creation_method            'Materials Studio'
_symmetry_space_group_name_H-M    'P1'
_symmetry_Int_Tables_number       1
_symmetry_cell_setting            triclinic
loop_
_symmetry_equiv_pos_as_xyz
  x,y,z
_cell_length_a                    42.3000
_cell_length_b                    36.9000
_cell_length_c                    4.4000
_cell_angle_alpha                 90.0000
_cell_angle_beta                  90.0000
_cell_angle_gamma                 90.0000
loop_
_atom_site_label
_atom_site_type_symbol
_atom_site_fract_x
_atom_site_fract_y
_atom_site_fract_z
_atom_site_U_iso_or_equiv
_atom_site_adp_type
_atom_site_occupancy
N1     N     0.35310   0.34660   0.17540   0.00000  Uiso   1.00
C2     C     0.43710   0.46700   0.27130   0.00000  Uiso   1.00
C3     C     0.46870   0.46660   0.38030   0.00000  Uiso   1.00
C4     C     0.48460   0.43400   0.44300   0.00000  Uiso   1.00
C5     C     0.41680   0.43460   0.25120   0.00000  Uiso   1.00
C6     C     0.42380   0.40580   0.05050   0.00000  Uiso   1.00
C7     C     0.40310   0.37620   0.02760   0.00000  Uiso   1.00
C8     C     0.37530   0.37550   0.20450   0.00000  Uiso   1.00
C9     C     0.36830   0.40420   0.40300   0.00000  Uiso   1.00
C10    C     0.38870   0.43360   0.42600   0.00000  Uiso   1.00
C11    C     0.34830   0.32410   0.40040   0.00000  Uiso   1.00
C12    C     0.32030   0.30040   0.40100   0.00000  Uiso   1.00
C13    C     0.29330   0.30940   0.22890   0.00000  Uiso   1.00
C14    C     0.31900   0.27070   0.60150   0.00000  Uiso   1.00
H15    H     0.47235   0.40695   0.40085   0.00000  Uiso   1.00
H16    H     0.44625   0.40662  -0.09269   0.00000  Uiso   1.00
H17    H     0.40879   0.35289  -0.13336   0.00000  Uiso   1.00
H18    H     0.34583   0.40343   0.54589   0.00000  Uiso   1.00
H19    H     0.38283   0.45697   0.58579   0.00000  Uiso   1.00
C20    C     0.26550   0.28940   0.26510   0.00000  Uiso   1.00
C21    C     0.26480   0.26040   0.47390   0.00000  Uiso   1.00
C22    C     0.29170   0.25170   0.63280   0.00000  Uiso   1.00
H23    H     0.36583   0.32279   0.59692   0.00000  Uiso   1.00
H24    H     0.29420   0.33291   0.06104   0.00000  Uiso   1.00
H25    H     0.34085   0.26263   0.73729   0.00000  Uiso   1.00
H26    H     0.24361   0.29657   0.12643   0.00000  Uiso   1.00
H27    H     0.29157   0.22784   0.79741   0.00000  Uiso   1.00
N28    N     0.85310   0.84660   0.17540   0.00000  Uiso   1.00
C29    C     0.93710   0.96700   0.27130   0.00000  Uiso   1.00
C30    C     0.96870   0.96660   0.38030   0.00000  Uiso   1.00
C31    C     0.98460   0.93400   0.44300   0.00000  Uiso   1.00
C32    C     0.91680   0.93460   0.25120   0.00000  Uiso   1.00
C33    C     0.92380   0.90580   0.05050   0.00000  Uiso   1.00
C34    C     0.90310   0.87620   0.02760   0.00000  Uiso   1.00
C35    C     0.87530   0.87550   0.20450   0.00000  Uiso   1.00
C36    C     0.86830   0.90420   0.40300   0.00000  Uiso   1.00
C37    C     0.88870   0.93360   0.42600   0.00000  Uiso   1.00
C38    C     0.84830   0.82410   0.40040   0.00000  Uiso   1.00
C39    C     0.82030   0.80040   0.40100   0.00000  Uiso   1.00
C40    C     0.79330   0.80940   0.22890   0.00000  Uiso   1.00
C41    C     0.81900   0.77070   0.60150   0.00000  Uiso   1.00
H42    H     0.97235   0.90695   0.40085   0.00000  Uiso   1.00
H43    H     0.94625   0.90662  -0.09269   0.00000  Uiso   1.00
H44    H     0.90879   0.85289  -0.13336   0.00000  Uiso   1.00
H45    H     0.84583   0.90343   0.54589   0.00000  Uiso   1.00
H46    H     0.88283   0.95697   0.58579   0.00000  Uiso   1.00
C47    C     0.76550   0.78940   0.26510   0.00000  Uiso   1.00
C48    C     0.76480   0.76040   0.47390   0.00000  Uiso   1.00
C49    C     0.79170   0.75170   0.63280   0.00000  Uiso   1.00
H50    H     0.86583   0.82279   0.59692   0.00000  Uiso   1.00
H51    H     0.79420   0.83291   0.06104   0.00000  Uiso   1.00
H52    H     0.84085   0.76263   0.73729   0.00000  Uiso   1.00
H53    H     0.74361   0.79657   0.12643   0.00000  Uiso   1.00
H54    H     0.79157   0.72784   0.79741   0.00000  Uiso   1.00
N55    N     0.64690   0.34660   0.82460   0.00000  Uiso   1.00
C56    C     0.56290   0.46700   0.72870   0.00000  Uiso   1.00
C57    C     0.53130   0.46660   0.61970   0.00000  Uiso   1.00
C58    C     0.51540   0.43400   0.55700   0.00000  Uiso   1.00
C59    C     0.58320   0.43460   0.74880   0.00000  Uiso   1.00
C60    C     0.57620   0.40580   0.94950   0.00000  Uiso   1.00
C61    C     0.59690   0.37620   0.97240   0.00000  Uiso   1.00
C62    C     0.62470   0.37550   0.79550   0.00000  Uiso   1.00
C63    C     0.63170   0.40420   0.59700   0.00000  Uiso   1.00
C64    C     0.61130   0.43360   0.57400   0.00000  Uiso   1.00
C65    C     0.65170   0.32410   0.59960   0.00000  Uiso   1.00
C66    C     0.67970   0.30040   0.59900   0.00000  Uiso   1.00
C67    C     0.70670   0.30940   0.77110   0.00000  Uiso   1.00
C68    C     0.68100   0.27070   0.39850   0.00000  Uiso   1.00
H69    H     0.52765   0.40695   0.59915   0.00000  Uiso   1.00
H70    H     0.55375   0.40662   1.09269   0.00000  Uiso   1.00
H71    H     0.59121   0.35289   1.13336   0.00000  Uiso   1.00
H72    H     0.65417   0.40343   0.45411   0.00000  Uiso   1.00
H73    H     0.61717   0.45697   0.41421   0.00000  Uiso   1.00
C74    C     0.73450   0.28940   0.73490   0.00000  Uiso   1.00
C75    C     0.73520   0.26040   0.52610   0.00000  Uiso   1.00
C76    C     0.70830   0.25170   0.36720   0.00000  Uiso   1.00
H77    H     0.63417   0.32279   0.40308   0.00000  Uiso   1.00
H78    H     0.70580   0.33291   0.93896   0.00000  Uiso   1.00
H79    H     0.65915   0.26263   0.26271   0.00000  Uiso   1.00
H80    H     0.75639   0.29657   0.87357   0.00000  Uiso   1.00
H81    H     0.70843   0.22784   0.20259   0.00000  Uiso   1.00
N82    N     0.14690   0.84660   0.82460   0.00000  Uiso   1.00
C83    C     0.06290   0.96700   0.72870   0.00000  Uiso   1.00
C84    C     0.03130   0.96660   0.61970   0.00000  Uiso   1.00
C85    C     0.01540   0.93400   0.55700   0.00000  Uiso   1.00
C86    C     0.08320   0.93460   0.74880   0.00000  Uiso   1.00
C87    C     0.07620   0.90580   0.94950   0.00000  Uiso   1.00
C88    C     0.09690   0.87620   0.97240   0.00000  Uiso   1.00
C89    C     0.12470   0.87550   0.79550   0.00000  Uiso   1.00
C90    C     0.13170   0.90420   0.59700   0.00000  Uiso   1.00
C91    C     0.11130   0.93360   0.57400   0.00000  Uiso   1.00
C92    C     0.15170   0.82410   0.59960   0.00000  Uiso   1.00
C93    C     0.17970   0.80040   0.59900   0.00000  Uiso   1.00
C94    C     0.20670   0.80940   0.77110   0.00000  Uiso   1.00
C95    C     0.18100   0.77070   0.39850   0.00000  Uiso   1.00
H96    H     0.02765   0.90695   0.59915   0.00000  Uiso   1.00
H97    H     0.05375   0.90662   1.09269   0.00000  Uiso   1.00
H98    H     0.09121   0.85289   1.13336   0.00000  Uiso   1.00
H99    H     0.15417   0.90343   0.45411   0.00000  Uiso   1.00
H100   H     0.11717   0.95697   0.41421   0.00000  Uiso   1.00
C101   C     0.23450   0.78940   0.73490   0.00000  Uiso   1.00
C102   C     0.23520   0.76040   0.52610   0.00000  Uiso   1.00
C103   C     0.20830   0.75170   0.36720   0.00000  Uiso   1.00
H104   H     0.13417   0.82279   0.40308   0.00000  Uiso   1.00
H105   H     0.20580   0.83291   0.93896   0.00000  Uiso   1.00
H106   H     0.15915   0.76263   0.26271   0.00000  Uiso   1.00
H107   H     0.25639   0.79657   0.87357   0.00000  Uiso   1.00
H108   H     0.20843   0.72784   0.20259   0.00000  Uiso   1.00
N109   N     0.64690   0.65340   0.82460   0.00000  Uiso   1.00
C110   C     0.56290   0.53300   0.72870   0.00000  Uiso   1.00
C111   C     0.53130   0.53340   0.61970   0.00000  Uiso   1.00
C112   C     0.51540   0.56600   0.55700   0.00000  Uiso   1.00
C113   C     0.58320   0.56540   0.74880   0.00000  Uiso   1.00
C114   C     0.57620   0.59420   0.94950   0.00000  Uiso   1.00
C115   C     0.59690   0.62380   0.97240   0.00000  Uiso   1.00
C116   C     0.62470   0.62450   0.79550   0.00000  Uiso   1.00
C117   C     0.63170   0.59580   0.59700   0.00000  Uiso   1.00
C118   C     0.61130   0.56640   0.57400   0.00000  Uiso   1.00
C119   C     0.65170   0.67590   0.59960   0.00000  Uiso   1.00
C120   C     0.67970   0.69960   0.59900   0.00000  Uiso   1.00
C121   C     0.70670   0.69060   0.77110   0.00000  Uiso   1.00
C122   C     0.68100   0.72930   0.39850   0.00000  Uiso   1.00
H123   H     0.52765   0.59305   0.59915   0.00000  Uiso   1.00
H124   H     0.55375   0.59338   1.09269   0.00000  Uiso   1.00
H125   H     0.59121   0.64711   1.13336   0.00000  Uiso   1.00
H126   H     0.65417   0.59657   0.45411   0.00000  Uiso   1.00
H127   H     0.61717   0.54303   0.41421   0.00000  Uiso   1.00
C128   C     0.73450   0.71060   0.73490   0.00000  Uiso   1.00
C129   C     0.73520   0.73960   0.52610   0.00000  Uiso   1.00
C130   C     0.70830   0.74830   0.36720   0.00000  Uiso   1.00
H131   H     0.63417   0.67721   0.40308   0.00000  Uiso   1.00
H132   H     0.70580   0.66709   0.93896   0.00000  Uiso   1.00
H133   H     0.65915   0.73737   0.26271   0.00000  Uiso   1.00
H134   H     0.75639   0.70343   0.87357   0.00000  Uiso   1.00
H135   H     0.70843   0.77216   0.20259   0.00000  Uiso   1.00
N136   N     0.14690   0.15340   0.82460   0.00000  Uiso   1.00
C137   C     0.06290   0.03300   0.72870   0.00000  Uiso   1.00
C138   C     0.03130   0.03340   0.61970   0.00000  Uiso   1.00
C139   C     0.01540   0.06600   0.55700   0.00000  Uiso   1.00
C140   C     0.08320   0.06540   0.74880   0.00000  Uiso   1.00
C141   C     0.07620   0.09420   0.94950   0.00000  Uiso   1.00
C142   C     0.09690   0.12380   0.97240   0.00000  Uiso   1.00
C143   C     0.12470   0.12450   0.79550   0.00000  Uiso   1.00
C144   C     0.13170   0.09580   0.59700   0.00000  Uiso   1.00
C145   C     0.11130   0.06640   0.57400   0.00000  Uiso   1.00
C146   C     0.15170   0.17590   0.59960   0.00000  Uiso   1.00
C147   C     0.17970   0.19960   0.59900   0.00000  Uiso   1.00
C148   C     0.20670   0.19060   0.77110   0.00000  Uiso   1.00
C149   C     0.18100   0.22930   0.39850   0.00000  Uiso   1.00
H150   H     0.02765   0.09305   0.59915   0.00000  Uiso   1.00
H151   H     0.05375   0.09338   1.09269   0.00000  Uiso   1.00
H152   H     0.09121   0.14711   1.13336   0.00000  Uiso   1.00
H153   H     0.15417   0.09657   0.45411   0.00000  Uiso   1.00
H154   H     0.11717   0.04303   0.41421   0.00000  Uiso   1.00
C155   C     0.23450   0.21060   0.73490   0.00000  Uiso   1.00
C156   C     0.23520   0.23960   0.52610   0.00000  Uiso   1.00
C157   C     0.20830   0.24830   0.36720   0.00000  Uiso   1.00
H158   H     0.13417   0.17721   0.40308   0.00000  Uiso   1.00
H159   H     0.20580   0.16709   0.93896   0.00000  Uiso   1.00
H160   H     0.15915   0.23737   0.26271   0.00000  Uiso   1.00
H161   H     0.25639   0.20343   0.87357   0.00000  Uiso   1.00
H162   H     0.20843   0.27216   0.20259   0.00000  Uiso   1.00
N163   N     0.35310   0.65340   0.17540   0.00000  Uiso   1.00
C164   C     0.43710   0.53300   0.27130   0.00000  Uiso   1.00
C165   C     0.46870   0.53340   0.38030   0.00000  Uiso   1.00
C166   C     0.48460   0.56600   0.44300   0.00000  Uiso   1.00
C167   C     0.41680   0.56540   0.25120   0.00000  Uiso   1.00
C168   C     0.42380   0.59420   0.05050   0.00000  Uiso   1.00
C169   C     0.40310   0.62380   0.02760   0.00000  Uiso   1.00
C170   C     0.37530   0.62450   0.20450   0.00000  Uiso   1.00
C171   C     0.36830   0.59580   0.40300   0.00000  Uiso   1.00
C172   C     0.38870   0.56640   0.42600   0.00000  Uiso   1.00
C173   C     0.34830   0.67590   0.40040   0.00000  Uiso   1.00
C174   C     0.32030   0.69960   0.40100   0.00000  Uiso   1.00
C175   C     0.29330   0.69060   0.22890   0.00000  Uiso   1.00
C176   C     0.31900   0.72930   0.60150   0.00000  Uiso   1.00
H177   H     0.47235   0.59305   0.40085   0.00000  Uiso   1.00
H178   H     0.44625   0.59338  -0.09269   0.00000  Uiso   1.00
H179   H     0.40879   0.64711  -0.13336   0.00000  Uiso   1.00
H180   H     0.34583   0.59657   0.54589   0.00000  Uiso   1.00
H181   H     0.38283   0.54303   0.58579   0.00000  Uiso   1.00
C182   C     0.26550   0.71060   0.26510   0.00000  Uiso   1.00
C183   C     0.26480   0.73960   0.47390   0.00000  Uiso   1.00
C184   C     0.29170   0.74830   0.63280   0.00000  Uiso   1.00
H185   H     0.36583   0.67721   0.59692   0.00000  Uiso   1.00
H186   H     0.29420   0.66709   0.06104   0.00000  Uiso   1.00
H187   H     0.34085   0.73737   0.73729   0.00000  Uiso   1.00
H188   H     0.24361   0.70343   0.12643   0.00000  Uiso   1.00
H189   H     0.29157   0.77216   0.79741   0.00000  Uiso   1.00
N190   N     0.85310   0.15340   0.17540   0.00000  Uiso   1.00
C191   C     0.93710   0.03300   0.27130   0.00000  Uiso   1.00
C192   C     0.96870   0.03340   0.38030   0.00000  Uiso   1.00
C193   C     0.98460   0.06600   0.44300   0.00000  Uiso   1.00
C194   C     0.91680   0.06540   0.25120   0.00000  Uiso   1.00
C195   C     0.92380   0.09420   0.05050   0.00000  Uiso   1.00
C196   C     0.90310   0.12380   0.02760   0.00000  Uiso   1.00
C197   C     0.87530   0.12450   0.20450   0.00000  Uiso   1.00
C198   C     0.86830   0.09580   0.40300   0.00000  Uiso   1.00
C199   C     0.88870   0.06640   0.42600   0.00000  Uiso   1.00
C200   C     0.84830   0.17590   0.40040   0.00000  Uiso   1.00
C201   C     0.82030   0.19960   0.40100   0.00000  Uiso   1.00
C202   C     0.79330   0.19060   0.22890   0.00000  Uiso   1.00
C203   C     0.81900   0.22930   0.60150   0.00000  Uiso   1.00
H204   H     0.97235   0.09305   0.40085   0.00000  Uiso   1.00
H205   H     0.94625   0.09338  -0.09269   0.00000  Uiso   1.00
H206   H     0.90879   0.14711  -0.13336   0.00000  Uiso   1.00
H207   H     0.84583   0.09657   0.54589   0.00000  Uiso   1.00
H208   H     0.88283   0.04303   0.58579   0.00000  Uiso   1.00
C209   C     0.76550   0.21060   0.26510   0.00000  Uiso   1.00
C210   C     0.76480   0.23960   0.47390   0.00000  Uiso   1.00
C211   C     0.79170   0.24830   0.63280   0.00000  Uiso   1.00
H212   H     0.86583   0.17721   0.59692   0.00000  Uiso   1.00
H213   H     0.79420   0.16709   0.06104   0.00000  Uiso   1.00
H214   H     0.84085   0.23737   0.73729   0.00000  Uiso   1.00
H215   H     0.74361   0.20343   0.12643   0.00000  Uiso   1.00
H216   H     0.79157   0.27216   0.79741   0.00000  Uiso   1.00
C217   C     0.42210   0.50000   0.22090   0.00000  Uiso   1.00
C218   C     0.48440   0.50000   0.43800   0.00000  Uiso   1.00
C219   C     0.92210   0.00000   0.22090   0.00000  Uiso   1.00
C220   C     0.98440   0.00000   0.43800   0.00000  Uiso   1.00
C221   C     0.57790   0.50000   0.77910   0.00000  Uiso   1.00
C222   C     0.51560   0.50000   0.56200   0.00000  Uiso   1.00
C223   C     0.07790   0.00000   0.77910   0.00000  Uiso   1.00
C224   C     0.01560   0.00000   0.56200   0.00000  Uiso   1.00
H225   H     0.39666   0.50059   0.13543   0.00000  Uiso   1.00
H226   H     0.89666   0.00059   0.13543   0.00000  Uiso   1.00
H227   H     0.60334   0.50059   0.86457   0.00000  Uiso   1.00
H228   H     0.10334   0.00059   0.86457   0.00000  Uiso   1.00
loop_
_geom_bond_atom_site_label_1
_geom_bond_atom_site_label_2
_geom_bond_distance
_geom_bond_site_symmetry_2
_ccdc_geom_bond_type
N1     C8      1.427   .     D
N1     C11     1.308   .     S
C2     C3      1.420   .     S
C2     C5      1.475   .     D
C2     C217    1.391   .     S
C3     C4      1.406   .     D
C3     C218    1.423   .     S
C4     H15     1.140   .     S
C4     C58     1.396   .     S
C5     C6      1.413   .     S
C5     C10     1.416   .     S
C6     C7      1.404   .     D
C6     H16     1.140   .     S
C7     C8      1.410   .     S
C7     H17     1.140   .     S
C8     C9      1.404   .     S
C9     C10     1.390   .     D
C9     H18     1.140   .     S
C10    H19     1.140   .     S
C11    C12     1.472   .     D
C11    H23     1.140   .     S
C12    C13     1.410   .     S
C12    C14     1.408   .     S
C13    C20     1.397   .     D
C13    H24     1.140   .     S
C14    C22     1.358   .     D
C14    H25     1.140   .     S
C20    C21     1.411   .     S
C20    H26     1.140   .     S
C21    C22     1.374   .     S
C21    C156    1.486   .     D
C22    H27     1.140   .     S
N28    C35     1.427   .     S
N28    C38     1.308   .     D
C29    C30     1.420   .     S
C29    C32     1.475   .     S
C29    C219    1.391   1_565 D
C30    C31     1.406   .     S
C30    C220    1.423   1_565 D
C31    H42     1.140   .     S
C31    C85     1.396   1_655 D
C32    C33     1.413   .     D
C32    C37     1.416   .     S
C33    C34     1.404   .     S
C33    H43     1.140   .     S
C34    C35     1.410   .     D
C34    H44     1.140   .     S
C35    C36     1.404   .     S
C36    C37     1.390   .     D
C36    H45     1.140   .     S
C37    H46     1.140   .     S
C38    C39     1.472   .     S
C38    H50     1.140   .     S
C39    C40     1.410   .     D
C39    C41     1.408   .     S
C40    C47     1.397   .     S
C40    H51     1.140   .     S
C41    C49     1.358   .     D
C41    H52     1.140   .     S
C47    C48     1.411   .     D
C47    H53     1.140   .     S
C48    C49     1.374   .     S
C48    C129    1.486   .     S
C49    H54     1.140   .     S
N55    C62     1.427   .     D
N55    C65     1.308   .     S
C56    C57     1.420   .     S
C56    C59     1.475   .     D
C56    C221    1.391   .     S
C57    C58     1.406   .     D
C57    C222    1.423   .     S
C58    H69     1.140   .     S
C59    C60     1.413   .     S
C59    C64     1.416   .     S
C60    C61     1.404   .     D
C60    H70     1.140   .     S
C61    C62     1.410   .     S
C61    H71     1.140   .     S
C62    C63     1.404   .     S
C63    C64     1.390   .     D
C63    H72     1.140   .     S
C64    H73     1.140   .     S
C65    C66     1.472   .     D
C65    H77     1.140   .     S
C66    C67     1.410   .     S
C66    C68     1.408   .     S
C67    C74     1.397   .     D
C67    H78     1.140   .     S
C68    C76     1.358   .     D
C68    H79     1.140   .     S
C74    C75     1.411   .     S
C74    H80     1.140   .     S
C75    C76     1.374   .     S
C75    C210    1.486   .     D
C76    H81     1.140   .     S
N82    C89     1.427   .     S
N82    C92     1.308   .     D
C83    C84     1.420   .     S
C83    C86     1.475   .     S
C83    C223    1.391   1_565 D
C84    C85     1.406   .     S
C84    C224    1.423   1_565 D
C85    H96     1.140   .     S
C85    C31     1.396   1_455 D
C86    C87     1.413   .     S
C86    C91     1.416   .     D
C87    C88     1.404   .     D
C87    H97     1.140   .     S
C88    C89     1.410   .     S
C88    H98     1.140   .     S
C89    C90     1.404   .     D
C90    C91     1.390   .     S
C90    H99     1.140   .     S
C91    H100    1.140   .     S
C92    C93     1.472   .     S
C92    H104    1.140   .     S
C93    C94     1.410   .     S
C93    C95     1.408   .     D
C94    C101    1.397   .     D
C94    H105    1.140   .     S
C95    C103    1.358   .     S
C95    H106    1.140   .     S
C101   C102    1.411   .     S
C101   H107    1.140   .     S
C102   C103    1.374   .     D
C102   C183    1.486   .     S
C103   H108    1.140   .     S
N109   C116    1.427   .     S
N109   C119    1.308   .     D
C110   C111    1.420   .     S
C110   C113    1.475   .     S
C110   C221    1.391   .     D
C111   C112    1.406   .     S
C111   C222    1.423   .     D
C112   H123    1.140   .     S
C112   C166    1.396   .     D
C113   C114    1.413   .     D
C113   C118    1.416   .     S
C114   C115    1.404   .     S
C114   H124    1.140   .     S
C115   C116    1.410   .     D
C115   H125    1.140   .     S
C116   C117    1.404   .     S
C117   C118    1.390   .     D
C117   H126    1.140   .     S
C118   H127    1.140   .     S
C119   C120    1.472   .     S
C119   H131    1.140   .     S
C120   C121    1.410   .     D
C120   C122    1.408   .     S
C121   C128    1.397   .     S
C121   H132    1.140   .     S
C122   C130    1.358   .     D
C122   H133    1.140   .     S
C128   C129    1.411   .     D
C128   H134    1.140   .     S
C129   C130    1.374   .     S
C130   H135    1.140   .     S
N136   C143    1.427   .     D
N136   C146    1.308   .     S
C137   C138    1.420   .     S
C137   C140    1.475   .     D
C137   C223    1.391   .     S
C138   C139    1.406   .     D
C138   C224    1.423   .     S
C139   H150    1.140   .     S
C139   C193    1.396   1_455 S
C140   C141    1.413   .     S
C140   C145    1.416   .     S
C141   C142    1.404   .     D
C141   H151    1.140   .     S
C142   C143    1.410   .     S
C142   H152    1.140   .     S
C143   C144    1.404   .     S
C144   C145    1.390   .     D
C144   H153    1.140   .     S
C145   H154    1.140   .     S
C146   C147    1.472   .     D
C146   H158    1.140   .     S
C147   C148    1.410   .     S
C147   C149    1.408   .     S
C148   C155    1.397   .     D
C148   H159    1.140   .     S
C149   C157    1.358   .     D
C149   H160    1.140   .     S
C155   C156    1.411   .     S
C155   H161    1.140   .     S
C156   C157    1.374   .     S
C157   H162    1.140   .     S
N163   C170    1.427   .     S
N163   C173    1.308   .     D
C164   C165    1.420   .     S
C164   C167    1.475   .     S
C164   C217    1.391   .     D
C165   C166    1.406   .     S
C165   C218    1.423   .     D
C166   H177    1.140   .     S
C167   C168    1.413   .     S
C167   C172    1.416   .     D
C168   C169    1.404   .     D
C168   H178    1.140   .     S
C169   C170    1.410   .     S
C169   H179    1.140   .     S
C170   C171    1.404   .     D
C171   C172    1.390   .     S
C171   H180    1.140   .     S
C172   H181    1.140   .     S
C173   C174    1.472   .     S
C173   H185    1.140   .     S
C174   C175    1.410   .     S
C174   C176    1.408   .     D
C175   C182    1.397   .     D
C175   H186    1.140   .     S
C176   C184    1.358   .     S
C176   H187    1.140   .     S
C182   C183    1.411   .     S
C182   H188    1.140   .     S
C183   C184    1.374   .     D
C184   H189    1.140   .     S
N190   C197    1.427   .     D
N190   C200    1.308   .     S
C191   C192    1.420   .     S
C191   C194    1.475   .     D
C191   C219    1.391   .     S
C192   C193    1.406   .     D
C192   C220    1.423   .     S
C193   H204    1.140   .     S
C193   C139    1.396   1_655 S
C194   C195    1.413   .     S
C194   C199    1.416   .     S
C195   C196    1.404   .     D
C195   H205    1.140   .     S
C196   C197    1.410   .     S
C196   H206    1.140   .     S
C197   C198    1.404   .     S
C198   C199    1.390   .     D
C198   H207    1.140   .     S
C199   H208    1.140   .     S
C200   C201    1.472   .     D
C200   H212    1.140   .     S
C201   C202    1.410   .     S
C201   C203    1.408   .     S
C202   C209    1.397   .     D
C202   H213    1.140   .     S
C203   C211    1.358   .     D
C203   H214    1.140   .     S
C209   C210    1.411   .     S
C209   H215    1.140   .     S
C210   C211    1.374   .     S
C211   H216    1.140   .     S
C217   H225    1.140   .     S
C218   C222    1.428   .     S
C219   H226    1.140   .     S
C219   C29     1.391   1_545 D
C220   C30     1.423   1_545 D
C220   C224    1.428   1_655 S
C221   H227    1.140   .     S
C223   H228    1.140   .     S
C223   C83     1.391   1_545 D
C224   C84     1.423   1_545 D
C224   C220    1.428   1_455 S
