data_1174
_audit_creation_date              2023-09-08
_audit_creation_method            'Materials Studio'
_symmetry_space_group_name_H-M    'P1'
_symmetry_Int_Tables_number       1
_symmetry_cell_setting            triclinic
loop_
_symmetry_equiv_pos_as_xyz
  x,y,z
_cell_length_a                    42.6000
_cell_length_b                    36.7000
_cell_length_c                    4.4000
_cell_angle_alpha                 90.0000
_cell_angle_beta                  90.5000
_cell_angle_gamma                 90.0000
loop_
_atom_site_label
_atom_site_type_symbol
_atom_site_fract_x
_atom_site_fract_y
_atom_site_fract_z
_atom_site_U_iso_or_equiv
_atom_site_adp_type
_atom_site_occupancy
N1     N     0.35310   0.34660   0.17540   0.00000  Uiso   1.00
C2     C     0.43710   0.46700   0.27130   0.00000  Uiso   1.00
C3     C     0.46870   0.46660   0.38030   0.00000  Uiso   1.00
C4     C     0.48460   0.43400   0.44300   0.00000  Uiso   1.00
C5     C     0.41680   0.43460   0.25120   0.00000  Uiso   1.00
C6     C     0.42380   0.40580   0.05050   0.00000  Uiso   1.00
C7     C     0.40310   0.37620   0.02760   0.00000  Uiso   1.00
C8     C     0.37530   0.37550   0.20450   0.00000  Uiso   1.00
C9     C     0.36830   0.40420   0.40300   0.00000  Uiso   1.00
C10    C     0.38870   0.43360   0.42600   0.00000  Uiso   1.00
C11    C     0.34830   0.32410   0.40040   0.00000  Uiso   1.00
C12    C     0.32030   0.30040   0.40100   0.00000  Uiso   1.00
C13    C     0.29330   0.30940   0.22890   0.00000  Uiso   1.00
C14    C     0.31900   0.27070   0.60150   0.00000  Uiso   1.00
H15    H     0.47247   0.40674   0.40133   0.00000  Uiso   1.00
H16    H     0.44608   0.40676  -0.09086   0.00000  Uiso   1.00
H17    H     0.40854   0.35268  -0.13279   0.00000  Uiso   1.00
H18    H     0.34599   0.40329   0.54406   0.00000  Uiso   1.00
H19    H     0.38308   0.45718   0.58522   0.00000  Uiso   1.00
C20    C     0.26550   0.28940   0.26510   0.00000  Uiso   1.00
C21    C     0.26480   0.26040   0.47390   0.00000  Uiso   1.00
N22    N     0.29170   0.25170   0.63280   0.00000  Uiso   1.00
H23    H     0.36578   0.32269   0.59768   0.00000  Uiso   1.00
H24    H     0.29404   0.33295   0.06013   0.00000  Uiso   1.00
H25    H     0.34074   0.26248   0.73794   0.00000  Uiso   1.00
H26    H     0.24371   0.29671   0.12580   0.00000  Uiso   1.00
N27    N     0.85310   0.84660   0.17540   0.00000  Uiso   1.00
C28    C     0.93710   0.96700   0.27130   0.00000  Uiso   1.00
C29    C     0.96870   0.96660   0.38030   0.00000  Uiso   1.00
C30    C     0.98460   0.93400   0.44300   0.00000  Uiso   1.00
C31    C     0.91680   0.93460   0.25120   0.00000  Uiso   1.00
C32    C     0.92380   0.90580   0.05050   0.00000  Uiso   1.00
C33    C     0.90310   0.87620   0.02760   0.00000  Uiso   1.00
C34    C     0.87530   0.87550   0.20450   0.00000  Uiso   1.00
C35    C     0.86830   0.90420   0.40300   0.00000  Uiso   1.00
C36    C     0.88870   0.93360   0.42600   0.00000  Uiso   1.00
C37    C     0.84830   0.82410   0.40040   0.00000  Uiso   1.00
C38    C     0.82030   0.80040   0.40100   0.00000  Uiso   1.00
C39    C     0.79330   0.80940   0.22890   0.00000  Uiso   1.00
C40    C     0.81900   0.77070   0.60150   0.00000  Uiso   1.00
H41    H     0.97247   0.90674   0.40133   0.00000  Uiso   1.00
H42    H     0.94608   0.90676  -0.09086   0.00000  Uiso   1.00
H43    H     0.90854   0.85268  -0.13279   0.00000  Uiso   1.00
H44    H     0.84599   0.90329   0.54406   0.00000  Uiso   1.00
H45    H     0.88308   0.95718   0.58522   0.00000  Uiso   1.00
C46    C     0.76550   0.78940   0.26510   0.00000  Uiso   1.00
C47    C     0.76480   0.76040   0.47390   0.00000  Uiso   1.00
N48    N     0.79170   0.75170   0.63280   0.00000  Uiso   1.00
H49    H     0.86578   0.82269   0.59768   0.00000  Uiso   1.00
H50    H     0.79404   0.83295   0.06013   0.00000  Uiso   1.00
H51    H     0.84074   0.76248   0.73794   0.00000  Uiso   1.00
H52    H     0.74371   0.79671   0.12580   0.00000  Uiso   1.00
N53    N     0.64690   0.34660   0.82460   0.00000  Uiso   1.00
C54    C     0.56290   0.46700   0.72870   0.00000  Uiso   1.00
C55    C     0.53130   0.46660   0.61970   0.00000  Uiso   1.00
C56    C     0.51540   0.43400   0.55700   0.00000  Uiso   1.00
C57    C     0.58320   0.43460   0.74880   0.00000  Uiso   1.00
C58    C     0.57620   0.40580   0.94950   0.00000  Uiso   1.00
C59    C     0.59690   0.37620   0.97240   0.00000  Uiso   1.00
C60    C     0.62470   0.37550   0.79550   0.00000  Uiso   1.00
C61    C     0.63170   0.40420   0.59700   0.00000  Uiso   1.00
C62    C     0.61130   0.43360   0.57400   0.00000  Uiso   1.00
C63    C     0.65170   0.32410   0.59960   0.00000  Uiso   1.00
C64    C     0.67970   0.30040   0.59900   0.00000  Uiso   1.00
C65    C     0.70670   0.30940   0.77110   0.00000  Uiso   1.00
C66    C     0.68100   0.27070   0.39850   0.00000  Uiso   1.00
H67    H     0.52753   0.40674   0.59867   0.00000  Uiso   1.00
H68    H     0.55392   0.40676   1.09086   0.00000  Uiso   1.00
H69    H     0.59146   0.35268   1.13279   0.00000  Uiso   1.00
H70    H     0.65401   0.40329   0.45594   0.00000  Uiso   1.00
H71    H     0.61692   0.45718   0.41478   0.00000  Uiso   1.00
C72    C     0.73450   0.28940   0.73490   0.00000  Uiso   1.00
C73    C     0.73520   0.26040   0.52610   0.00000  Uiso   1.00
N74    N     0.70830   0.25170   0.36720   0.00000  Uiso   1.00
H75    H     0.63422   0.32269   0.40232   0.00000  Uiso   1.00
H76    H     0.70596   0.33295   0.93987   0.00000  Uiso   1.00
H77    H     0.65926   0.26248   0.26206   0.00000  Uiso   1.00
H78    H     0.75629   0.29671   0.87420   0.00000  Uiso   1.00
N79    N     0.14690   0.84660   0.82460   0.00000  Uiso   1.00
C80    C     0.06290   0.96700   0.72870   0.00000  Uiso   1.00
C81    C     0.03130   0.96660   0.61970   0.00000  Uiso   1.00
C82    C     0.01540   0.93400   0.55700   0.00000  Uiso   1.00
C83    C     0.08320   0.93460   0.74880   0.00000  Uiso   1.00
C84    C     0.07620   0.90580   0.94950   0.00000  Uiso   1.00
C85    C     0.09690   0.87620   0.97240   0.00000  Uiso   1.00
C86    C     0.12470   0.87550   0.79550   0.00000  Uiso   1.00
C87    C     0.13170   0.90420   0.59700   0.00000  Uiso   1.00
C88    C     0.11130   0.93360   0.57400   0.00000  Uiso   1.00
C89    C     0.15170   0.82410   0.59960   0.00000  Uiso   1.00
C90    C     0.17970   0.80040   0.59900   0.00000  Uiso   1.00
C91    C     0.20670   0.80940   0.77110   0.00000  Uiso   1.00
C92    C     0.18100   0.77070   0.39850   0.00000  Uiso   1.00
H93    H     0.02753   0.90674   0.59867   0.00000  Uiso   1.00
H94    H     0.05392   0.90676   1.09086   0.00000  Uiso   1.00
H95    H     0.09146   0.85268   1.13279   0.00000  Uiso   1.00
H96    H     0.15401   0.90329   0.45594   0.00000  Uiso   1.00
H97    H     0.11692   0.95718   0.41478   0.00000  Uiso   1.00
C98    C     0.23450   0.78940   0.73490   0.00000  Uiso   1.00
C99    C     0.23520   0.76040   0.52610   0.00000  Uiso   1.00
N100   N     0.20830   0.75170   0.36720   0.00000  Uiso   1.00
H101   H     0.13422   0.82269   0.40232   0.00000  Uiso   1.00
H102   H     0.20596   0.83295   0.93987   0.00000  Uiso   1.00
H103   H     0.15926   0.76248   0.26206   0.00000  Uiso   1.00
H104   H     0.25629   0.79671   0.87420   0.00000  Uiso   1.00
N105   N     0.64690   0.65340   0.82460   0.00000  Uiso   1.00
C106   C     0.56290   0.53300   0.72870   0.00000  Uiso   1.00
C107   C     0.53130   0.53340   0.61970   0.00000  Uiso   1.00
C108   C     0.51540   0.56600   0.55700   0.00000  Uiso   1.00
C109   C     0.58320   0.56540   0.74880   0.00000  Uiso   1.00
C110   C     0.57620   0.59420   0.94950   0.00000  Uiso   1.00
C111   C     0.59690   0.62380   0.97240   0.00000  Uiso   1.00
C112   C     0.62470   0.62450   0.79550   0.00000  Uiso   1.00
C113   C     0.63170   0.59580   0.59700   0.00000  Uiso   1.00
C114   C     0.61130   0.56640   0.57400   0.00000  Uiso   1.00
C115   C     0.65170   0.67590   0.59960   0.00000  Uiso   1.00
C116   C     0.67970   0.69960   0.59900   0.00000  Uiso   1.00
C117   C     0.70670   0.69060   0.77110   0.00000  Uiso   1.00
C118   C     0.68100   0.72930   0.39850   0.00000  Uiso   1.00
H119   H     0.52753   0.59326   0.59867   0.00000  Uiso   1.00
H120   H     0.55392   0.59324   1.09086   0.00000  Uiso   1.00
H121   H     0.59146   0.64732   1.13279   0.00000  Uiso   1.00
H122   H     0.65401   0.59671   0.45594   0.00000  Uiso   1.00
H123   H     0.61692   0.54282   0.41478   0.00000  Uiso   1.00
C124   C     0.73450   0.71060   0.73490   0.00000  Uiso   1.00
C125   C     0.73520   0.73960   0.52610   0.00000  Uiso   1.00
N126   N     0.70830   0.74830   0.36720   0.00000  Uiso   1.00
H127   H     0.63422   0.67731   0.40232   0.00000  Uiso   1.00
H128   H     0.70596   0.66705   0.93987   0.00000  Uiso   1.00
H129   H     0.65926   0.73752   0.26206   0.00000  Uiso   1.00
H130   H     0.75629   0.70329   0.87420   0.00000  Uiso   1.00
N131   N     0.14690   0.15340   0.82460   0.00000  Uiso   1.00
C132   C     0.06290   0.03300   0.72870   0.00000  Uiso   1.00
C133   C     0.03130   0.03340   0.61970   0.00000  Uiso   1.00
C134   C     0.01540   0.06600   0.55700   0.00000  Uiso   1.00
C135   C     0.08320   0.06540   0.74880   0.00000  Uiso   1.00
C136   C     0.07620   0.09420   0.94950   0.00000  Uiso   1.00
C137   C     0.09690   0.12380   0.97240   0.00000  Uiso   1.00
C138   C     0.12470   0.12450   0.79550   0.00000  Uiso   1.00
C139   C     0.13170   0.09580   0.59700   0.00000  Uiso   1.00
C140   C     0.11130   0.06640   0.57400   0.00000  Uiso   1.00
C141   C     0.15170   0.17590   0.59960   0.00000  Uiso   1.00
C142   C     0.17970   0.19960   0.59900   0.00000  Uiso   1.00
C143   C     0.20670   0.19060   0.77110   0.00000  Uiso   1.00
C144   C     0.18100   0.22930   0.39850   0.00000  Uiso   1.00
H145   H     0.02753   0.09326   0.59867   0.00000  Uiso   1.00
H146   H     0.05392   0.09324   1.09086   0.00000  Uiso   1.00
H147   H     0.09146   0.14732   1.13279   0.00000  Uiso   1.00
H148   H     0.15401   0.09671   0.45594   0.00000  Uiso   1.00
H149   H     0.11692   0.04282   0.41478   0.00000  Uiso   1.00
C150   C     0.23450   0.21060   0.73490   0.00000  Uiso   1.00
C151   C     0.23520   0.23960   0.52610   0.00000  Uiso   1.00
N152   N     0.20830   0.24830   0.36720   0.00000  Uiso   1.00
H153   H     0.13422   0.17731   0.40232   0.00000  Uiso   1.00
H154   H     0.20596   0.16705   0.93987   0.00000  Uiso   1.00
H155   H     0.15926   0.23752   0.26206   0.00000  Uiso   1.00
H156   H     0.25629   0.20329   0.87420   0.00000  Uiso   1.00
N157   N     0.35310   0.65340   0.17540   0.00000  Uiso   1.00
C158   C     0.43710   0.53300   0.27130   0.00000  Uiso   1.00
C159   C     0.46870   0.53340   0.38030   0.00000  Uiso   1.00
C160   C     0.48460   0.56600   0.44300   0.00000  Uiso   1.00
C161   C     0.41680   0.56540   0.25120   0.00000  Uiso   1.00
C162   C     0.42380   0.59420   0.05050   0.00000  Uiso   1.00
C163   C     0.40310   0.62380   0.02760   0.00000  Uiso   1.00
C164   C     0.37530   0.62450   0.20450   0.00000  Uiso   1.00
C165   C     0.36830   0.59580   0.40300   0.00000  Uiso   1.00
C166   C     0.38870   0.56640   0.42600   0.00000  Uiso   1.00
C167   C     0.34830   0.67590   0.40040   0.00000  Uiso   1.00
C168   C     0.32030   0.69960   0.40100   0.00000  Uiso   1.00
C169   C     0.29330   0.69060   0.22890   0.00000  Uiso   1.00
C170   C     0.31900   0.72930   0.60150   0.00000  Uiso   1.00
H171   H     0.47247   0.59326   0.40133   0.00000  Uiso   1.00
H172   H     0.44608   0.59324  -0.09086   0.00000  Uiso   1.00
H173   H     0.40854   0.64732  -0.13279   0.00000  Uiso   1.00
H174   H     0.34599   0.59671   0.54406   0.00000  Uiso   1.00
H175   H     0.38308   0.54282   0.58522   0.00000  Uiso   1.00
C176   C     0.26550   0.71060   0.26510   0.00000  Uiso   1.00
C177   C     0.26480   0.73960   0.47390   0.00000  Uiso   1.00
N178   N     0.29170   0.74830   0.63280   0.00000  Uiso   1.00
H179   H     0.36578   0.67731   0.59768   0.00000  Uiso   1.00
H180   H     0.29404   0.66705   0.06013   0.00000  Uiso   1.00
H181   H     0.34074   0.73752   0.73794   0.00000  Uiso   1.00
H182   H     0.24371   0.70329   0.12580   0.00000  Uiso   1.00
N183   N     0.85310   0.15340   0.17540   0.00000  Uiso   1.00
C184   C     0.93710   0.03300   0.27130   0.00000  Uiso   1.00
C185   C     0.96870   0.03340   0.38030   0.00000  Uiso   1.00
C186   C     0.98460   0.06600   0.44300   0.00000  Uiso   1.00
C187   C     0.91680   0.06540   0.25120   0.00000  Uiso   1.00
C188   C     0.92380   0.09420   0.05050   0.00000  Uiso   1.00
C189   C     0.90310   0.12380   0.02760   0.00000  Uiso   1.00
C190   C     0.87530   0.12450   0.20450   0.00000  Uiso   1.00
C191   C     0.86830   0.09580   0.40300   0.00000  Uiso   1.00
C192   C     0.88870   0.06640   0.42600   0.00000  Uiso   1.00
C193   C     0.84830   0.17590   0.40040   0.00000  Uiso   1.00
C194   C     0.82030   0.19960   0.40100   0.00000  Uiso   1.00
C195   C     0.79330   0.19060   0.22890   0.00000  Uiso   1.00
C196   C     0.81900   0.22930   0.60150   0.00000  Uiso   1.00
H197   H     0.97247   0.09326   0.40133   0.00000  Uiso   1.00
H198   H     0.94608   0.09324  -0.09086   0.00000  Uiso   1.00
H199   H     0.90854   0.14732  -0.13279   0.00000  Uiso   1.00
H200   H     0.84599   0.09671   0.54406   0.00000  Uiso   1.00
H201   H     0.88308   0.04282   0.58522   0.00000  Uiso   1.00
C202   C     0.76550   0.21060   0.26510   0.00000  Uiso   1.00
C203   C     0.76480   0.23960   0.47390   0.00000  Uiso   1.00
N204   N     0.79170   0.24830   0.63280   0.00000  Uiso   1.00
H205   H     0.86578   0.17731   0.59768   0.00000  Uiso   1.00
H206   H     0.79404   0.16705   0.06013   0.00000  Uiso   1.00
H207   H     0.84074   0.23752   0.73794   0.00000  Uiso   1.00
H208   H     0.74371   0.20329   0.12580   0.00000  Uiso   1.00
C209   C     0.42210   0.50000   0.22090   0.00000  Uiso   1.00
C210   C     0.48440   0.50000   0.43800   0.00000  Uiso   1.00
C211   C     0.92210   0.00000   0.22090   0.00000  Uiso   1.00
C212   C     0.98440   0.00000   0.43800   0.00000  Uiso   1.00
C213   C     0.57790   0.50000   0.77910   0.00000  Uiso   1.00
C214   C     0.51560   0.50000   0.56200   0.00000  Uiso   1.00
C215   C     0.07790   0.00000   0.77910   0.00000  Uiso   1.00
C216   C     0.01560   0.00000   0.56200   0.00000  Uiso   1.00
H217   H     0.39675   0.50048   0.13573   0.00000  Uiso   1.00
H218   H     0.89675   0.00048   0.13573   0.00000  Uiso   1.00
H219   H     0.60325   0.50048   0.86427   0.00000  Uiso   1.00
H220   H     0.10325   0.00048   0.86427   0.00000  Uiso   1.00
loop_
_geom_bond_atom_site_label_1
_geom_bond_atom_site_label_2
_geom_bond_distance
_geom_bond_site_symmetry_2
_ccdc_geom_bond_type
N1     C8      1.426   .     D
N1     C11     1.307   .     S
C2     C3      1.425   .     S
C2     C5      1.472   .     D
C2     C209    1.386   .     S
C3     C4      1.401   .     D
C3     C210    1.418   .     S
C4     H15     1.140   .     S
C4     C56     1.401   .     S
C5     C6      1.411   .     S
C5     C10     1.429   .     S
C6     C7      1.402   .     D
C6     H16     1.140   .     S
C7     C8      1.423   .     S
C7     H17     1.140   .     S
C8     C9      1.402   .     S
C9     C10     1.389   .     D
C9     H18     1.140   .     S
C10    H19     1.140   .     S
C11    C12     1.476   .     D
C11    H23     1.140   .     S
C12    C13     1.411   .     S
C12    C14     1.404   .     S
C13    C20     1.404   .     D
C13    H24     1.140   .     S
C14    N22     1.364   .     D
C14    H25     1.140   .     S
C20    C21     1.406   .     S
C20    H26     1.140   .     S
C21    N22     1.375   .     S
C21    C151    1.494   .     D
N27    C34     1.426   .     S
N27    C37     1.307   .     D
C28    C29     1.425   .     S
C28    C31     1.472   .     S
C28    C211    1.386   1_565 D
C29    C30     1.401   .     S
C29    C212    1.418   1_565 D
C30    H41     1.140   .     S
C30    C82     1.401   1_655 D
C31    C32     1.411   .     D
C31    C36     1.429   .     S
C32    C33     1.402   .     S
C32    H42     1.140   .     S
C33    C34     1.423   .     D
C33    H43     1.140   .     S
C34    C35     1.402   .     S
C35    C36     1.389   .     D
C35    H44     1.140   .     S
C36    H45     1.140   .     S
C37    C38     1.476   .     S
C37    H49     1.140   .     S
C38    C39     1.411   .     D
C38    C40     1.404   .     S
C39    C46     1.404   .     S
C39    H50     1.140   .     S
C40    N48     1.364   .     D
C40    H51     1.140   .     S
C46    C47     1.406   .     D
C46    H52     1.140   .     S
C47    N48     1.375   .     S
C47    C125    1.494   .     S
N53    C60     1.426   .     D
N53    C63     1.307   .     S
C54    C55     1.425   .     S
C54    C57     1.472   .     D
C54    C213    1.386   .     S
C55    C56     1.401   .     D
C55    C214    1.418   .     S
C56    H67     1.140   .     S
C57    C58     1.411   .     S
C57    C62     1.429   .     S
C58    C59     1.402   .     D
C58    H68     1.140   .     S
C59    C60     1.423   .     S
C59    H69     1.140   .     S
C60    C61     1.402   .     S
C61    C62     1.389   .     D
C61    H70     1.140   .     S
C62    H71     1.140   .     S
C63    C64     1.476   .     D
C63    H75     1.140   .     S
C64    C65     1.411   .     S
C64    C66     1.404   .     S
C65    C72     1.404   .     D
C65    H76     1.140   .     S
C66    N74     1.364   .     D
C66    H77     1.140   .     S
C72    C73     1.406   .     S
C72    H78     1.140   .     S
C73    N74     1.375   .     S
C73    C203    1.494   .     D
N79    C86     1.426   .     S
N79    C89     1.307   .     D
C80    C81     1.425   .     S
C80    C83     1.472   .     S
C80    C215    1.386   1_565 D
C81    C82     1.401   .     S
C81    C216    1.418   1_565 D
C82    H93     1.140   .     S
C82    C30     1.401   1_455 D
C83    C84     1.411   .     S
C83    C88     1.429   .     D
C84    C85     1.402   .     D
C84    H94     1.140   .     S
C85    C86     1.423   .     S
C85    H95     1.140   .     S
C86    C87     1.402   .     D
C87    C88     1.389   .     S
C87    H96     1.140   .     S
C88    H97     1.140   .     S
C89    C90     1.476   .     S
C89    H101    1.140   .     S
C90    C91     1.411   .     S
C90    C92     1.404   .     D
C91    C98     1.404   .     D
C91    H102    1.140   .     S
C92    N100    1.364   .     S
C92    H103    1.140   .     S
C98    C99     1.406   .     S
C98    H104    1.140   .     S
C99    N100    1.375   .     D
C99    C177    1.494   .     S
N105   C112    1.426   .     S
N105   C115    1.307   .     D
C106   C107    1.425   .     S
C106   C109    1.472   .     S
C106   C213    1.386   .     D
C107   C108    1.401   .     S
C107   C214    1.418   .     D
C108   H119    1.140   .     S
C108   C160    1.401   .     D
C109   C110    1.411   .     D
C109   C114    1.429   .     S
C110   C111    1.402   .     S
C110   H120    1.140   .     S
C111   C112    1.423   .     D
C111   H121    1.140   .     S
C112   C113    1.402   .     S
C113   C114    1.389   .     D
C113   H122    1.140   .     S
C114   H123    1.140   .     S
C115   C116    1.476   .     S
C115   H127    1.140   .     S
C116   C117    1.411   .     D
C116   C118    1.404   .     S
C117   C124    1.404   .     S
C117   H128    1.140   .     S
C118   N126    1.364   .     D
C118   H129    1.140   .     S
C124   C125    1.406   .     D
C124   H130    1.140   .     S
C125   N126    1.375   .     S
N131   C138    1.426   .     D
N131   C141    1.307   .     S
C132   C133    1.425   .     S
C132   C135    1.472   .     D
C132   C215    1.386   .     S
C133   C134    1.401   .     D
C133   C216    1.418   .     S
C134   H145    1.140   .     S
C134   C186    1.401   1_455 S
C135   C136    1.411   .     S
C135   C140    1.429   .     S
C136   C137    1.402   .     D
C136   H146    1.140   .     S
C137   C138    1.423   .     S
C137   H147    1.140   .     S
C138   C139    1.402   .     S
C139   C140    1.389   .     D
C139   H148    1.140   .     S
C140   H149    1.140   .     S
C141   C142    1.476   .     D
C141   H153    1.140   .     S
C142   C143    1.411   .     S
C142   C144    1.404   .     S
C143   C150    1.404   .     D
C143   H154    1.140   .     S
C144   N152    1.364   .     D
C144   H155    1.140   .     S
C150   C151    1.406   .     S
C150   H156    1.140   .     S
C151   N152    1.375   .     S
N157   C164    1.426   .     S
N157   C167    1.307   .     D
C158   C159    1.425   .     S
C158   C161    1.472   .     S
C158   C209    1.386   .     D
C159   C160    1.401   .     S
C159   C210    1.418   .     D
C160   H171    1.140   .     S
C161   C162    1.411   .     S
C161   C166    1.429   .     D
C162   C163    1.402   .     D
C162   H172    1.140   .     S
C163   C164    1.423   .     S
C163   H173    1.140   .     S
C164   C165    1.402   .     D
C165   C166    1.389   .     S
C165   H174    1.140   .     S
C166   H175    1.140   .     S
C167   C168    1.476   .     S
C167   H179    1.140   .     S
C168   C169    1.411   .     S
C168   C170    1.404   .     D
C169   C176    1.404   .     D
C169   H180    1.140   .     S
C170   N178    1.364   .     S
C170   H181    1.140   .     S
C176   C177    1.406   .     S
C176   H182    1.140   .     S
C177   N178    1.375   .     D
N183   C190    1.426   .     D
N183   C193    1.307   .     S
C184   C185    1.425   .     S
C184   C187    1.472   .     D
C184   C211    1.386   .     S
C185   C186    1.401   .     D
C185   C212    1.418   .     S
C186   H197    1.140   .     S
C186   C134    1.401   1_655 S
C187   C188    1.411   .     S
C187   C192    1.429   .     S
C188   C189    1.402   .     D
C188   H198    1.140   .     S
C189   C190    1.423   .     S
C189   H199    1.140   .     S
C190   C191    1.402   .     S
C191   C192    1.389   .     D
C191   H200    1.140   .     S
C192   H201    1.140   .     S
C193   C194    1.476   .     D
C193   H205    1.140   .     S
C194   C195    1.411   .     S
C194   C196    1.404   .     S
C195   C202    1.404   .     D
C195   H206    1.140   .     S
C196   N204    1.364   .     D
C196   H207    1.140   .     S
C202   C203    1.406   .     S
C202   H208    1.140   .     S
C203   N204    1.375   .     S
C209   H217    1.140   .     S
C210   C214    1.432   .     S
C211   H218    1.140   .     S
C211   C28     1.386   1_545 D
C212   C29     1.418   1_545 D
C212   C216    1.432   1_655 S
C213   H219    1.140   .     S
C215   H220    1.140   .     S
C215   C80     1.386   1_545 D
C216   C81     1.418   1_545 D
C216   C212    1.432   1_455 S
