data_1175
_audit_creation_date              2023-09-08
_audit_creation_method            'Materials Studio'
_symmetry_space_group_name_H-M    'P1'
_symmetry_Int_Tables_number       1
_symmetry_cell_setting            triclinic
loop_
_symmetry_equiv_pos_as_xyz
  x,y,z
_cell_length_a                    24.5000
_cell_length_b                    24.1000
_cell_length_c                    4.3000
_cell_angle_alpha                 90.0000
_cell_angle_beta                  91.0000
_cell_angle_gamma                 90.0000
loop_
_atom_site_label
_atom_site_type_symbol
_atom_site_fract_x
_atom_site_fract_y
_atom_site_fract_z
_atom_site_U_iso_or_equiv
_atom_site_adp_type
_atom_site_occupancy
C11    C     0.59134   0.59703   0.64858   0.00000  Uiso   1.00
C22    C     0.53725   0.61247   0.70170   0.00000  Uiso   1.00
C33    C     0.49608   0.57143   0.70413   0.00000  Uiso   1.00
C44    C     0.50859   0.51686   0.60955   0.00000  Uiso   1.00
C55    C     0.56308   0.50247   0.53742   0.00000  Uiso   1.00
C66    C     0.60521   0.54231   0.57514   0.00000  Uiso   1.00
C77    C     0.46638   0.47670   0.58514   0.00000  Uiso   1.00
C88    C     0.47891   0.42209   0.49142   0.00000  Uiso   1.00
C99    C     0.53230   0.40987   0.39778   0.00000  Uiso   1.00
C1010  C     0.57360   0.44916   0.42178   0.00000  Uiso   1.00
C1111  C     0.44271   0.58359   0.79854   0.00000  Uiso   1.00
C1212  C     0.40137   0.54436   0.77341   0.00000  Uiso   1.00
C1313  C     0.41189   0.49110   0.65710   0.00000  Uiso   1.00
C1414  C     0.36974   0.45130   0.61912   0.00000  Uiso   1.00
C1515  C     0.38362   0.39656   0.54637   0.00000  Uiso   1.00
C1616  C     0.43774   0.38105   0.49442   0.00000  Uiso   1.00
C1717  C     0.45081   0.32115   0.48504   0.00000  Uiso   1.00
C1818  C     0.31080   0.46532   0.64112   0.00000  Uiso   1.00
C1919  C     0.66416   0.52831   0.55286   0.00000  Uiso   1.00
C2020  C     0.52417   0.67233   0.71559   0.00000  Uiso   1.00
C2121  C     0.41902   0.28411   0.30561   0.00000  Uiso   1.00
C2222  C     0.42892   0.22711   0.32284   0.00000  Uiso   1.00
C2323  C     0.47105   0.20673   0.51997   0.00000  Uiso   1.00
C2424  C     0.50324   0.24379   0.69235   0.00000  Uiso   1.00
C2525  C     0.49269   0.30029   0.67991   0.00000  Uiso   1.00
C2626  C     0.28861   0.50913   0.46384   0.00000  Uiso   1.00
C2727  C     0.23251   0.51920   0.46001   0.00000  Uiso   1.00
C2828  C     0.19720   0.48529   0.62815   0.00000  Uiso   1.00
C2929  C     0.21935   0.44174   0.81034   0.00000  Uiso   1.00
C3030  C     0.27565   0.43199   0.81628   0.00000  Uiso   1.00
C3131  C     0.68639   0.48455   0.73028   0.00000  Uiso   1.00
C3232  C     0.74248   0.47443   0.73327   0.00000  Uiso   1.00
C3333  C     0.77773   0.50822   0.56411   0.00000  Uiso   1.00
C3434  C     0.75556   0.55186   0.38267   0.00000  Uiso   1.00
C3535  C     0.69927   0.56165   0.37744   0.00000  Uiso   1.00
C3636  C     0.55570   0.70889   0.89958   0.00000  Uiso   1.00
C3737  C     0.54506   0.76582   0.89152   0.00000  Uiso   1.00
C3838  C     0.50242   0.78657   0.69941   0.00000  Uiso   1.00
C3939  C     0.47087   0.74999   0.51996   0.00000  Uiso   1.00
C4040  C     0.48215   0.69360   0.52321   0.00000  Uiso   1.00
C4141  C     0.10012   0.46766   0.71997   0.00000  Uiso   1.00
C4242  C     0.87473   0.52477   0.46408   0.00000  Uiso   1.00
C4343  C     0.51655   0.88570   0.79102   0.00000  Uiso   1.00
C4444  C     0.45342   0.10755   0.45867   0.00000  Uiso   1.00
C4545  C     0.49951   0.94236   0.71107   0.00000  Uiso   1.00
C4646  C     0.93224   0.50962   0.52965   0.00000  Uiso   1.00
C4747  C     0.04263   0.48286   0.65455   0.00000  Uiso   1.00
C4848  C     0.46972   0.05096   0.54508   0.00000  Uiso   1.00
C4949  C     0.52981   0.98732   0.82663   0.00000  Uiso   1.00
C5050  C     0.45397   0.95207   0.51310   0.00000  Uiso   1.00
C5151  C     0.94604   0.46431   0.72251   0.00000  Uiso   1.00
C5252  C     0.97411   0.54137   0.40008   0.00000  Uiso   1.00
C5353  C     0.43922   0.00602   0.43122   0.00000  Uiso   1.00
C5454  C     0.51510   0.04128   0.74438   0.00000  Uiso   1.00
C5555  C     0.02882   0.52819   0.46177   0.00000  Uiso   1.00
C5656  C     0.00075   0.45108   0.78390   0.00000  Uiso   1.00
N157   N     0.48179   0.14902   0.56441   0.00000  Uiso   1.00
N258   N     0.13956   0.49583   0.59738   0.00000  Uiso   1.00
N359   N     0.49049   0.84428   0.66668   0.00000  Uiso   1.00
N460   N     0.83536   0.49758   0.59374   0.00000  Uiso   1.00
H161   H     0.62526   0.62933   0.66475   0.00000  Uiso   1.00
H262   H     0.54223   0.36713   0.30029   0.00000  Uiso   1.00
H363   H     0.61672   0.43829   0.34706   0.00000  Uiso   1.00
H464   H     0.43283   0.62623   0.89759   0.00000  Uiso   1.00
H565   H     0.35824   0.55525   0.84773   0.00000  Uiso   1.00
H666   H     0.35050   0.36344   0.52828   0.00000  Uiso   1.00
H767   H     0.38512   0.30060   0.14585   0.00000  Uiso   1.00
H868   H     0.40301   0.19712   0.17793   0.00000  Uiso   1.00
H969   H     0.53839   0.22765   0.84423   0.00000  Uiso   1.00
H1070  H     0.51827   0.32989   0.82920   0.00000  Uiso   1.00
H1171  H     0.31650   0.53678   0.32163   0.00000  Uiso   1.00
H1272  H     0.21502   0.55532   0.31906   0.00000  Uiso   1.00
H1373  H     0.19132   0.41436   0.95334   0.00000  Uiso   1.00
H1474  H     0.29333   0.39681   0.96388   0.00000  Uiso   1.00
H1575  H     0.65854   0.45699   0.87328   0.00000  Uiso   1.00
H1676  H     0.76001   0.43835   0.87441   0.00000  Uiso   1.00
H1777  H     0.78356   0.57927   0.23973   0.00000  Uiso   1.00
H1878  H     0.68156   0.59686   0.23023   0.00000  Uiso   1.00
H2181  H     0.43564   0.76643   0.36980   0.00000  Uiso   1.00
H2282  H     0.45708   0.66444   0.36848   0.00000  Uiso   1.00
H2383  H     0.11011   0.43103   0.87879   0.00000  Uiso   1.00
H2484  H     0.86469   0.56049   0.29894   0.00000  Uiso   1.00
H2585  H     0.55222   0.87866   0.96019   0.00000  Uiso   1.00
H2686  H     0.41623   0.11456   0.30049   0.00000  Uiso   1.00
H2787  H     0.56649   0.97977   0.98789   0.00000  Uiso   1.00
H2888  H     0.42900   0.91565   0.41912   0.00000  Uiso   1.00
H2989  H     0.91250   0.43813   0.82980   0.00000  Uiso   1.00
H3090  H     0.96362   0.57816   0.24347   0.00000  Uiso   1.00
H3191  H     0.40233   0.01357   0.27157   0.00000  Uiso   1.00
H3292  H     0.53997   0.07772   0.83909   0.00000  Uiso   1.00
H3393  H     0.06236   0.55443   0.35481   0.00000  Uiso   1.00
H3494  H     0.01123   0.41423   0.94006   0.00000  Uiso   1.00
H1979  H     0.58998   0.69207   1.05551   0.00000  Uiso   1.00
H2080  H     0.57078   0.79544   1.03988   0.00000  Uiso   1.00
loop_
_geom_bond_atom_site_label_1
_geom_bond_atom_site_label_2
_geom_bond_distance
_geom_bond_site_symmetry_2
_ccdc_geom_bond_type
C11    C22     1.399   .     D
C11    C66     1.399   .     S
C11    H161    1.140   .     S
C22    C33     1.413   .     S
C22    C2020   1.479   .     S
C33    C44     1.412   .     S
C33    C1111   1.407   .     D
C44    C55     1.419   .     S
C44    C77     1.419   .     D
C55    C66     1.417   .     D
C55    C1010   1.403   .     S
C66    C1919   1.488   .     S
C77    C88     1.412   .     S
C77    C1313   1.419   .     S
C88    C99     1.407   .     S
C88    C1616   1.413   .     D
C99    C1010   1.388   .     D
C99    H262    1.140   .     S
C1010  H363    1.140   .     S
C1111  C1212   1.388   .     S
C1111  H464    1.140   .     S
C1212  C1313   1.403   .     D
C1212  H565    1.140   .     S
C1313  C1414   1.417   .     S
C1414  C1515   1.399   .     D
C1414  C1818   1.488   .     S
C1515  C1616   1.399   .     S
C1515  H666    1.140   .     S
C1616  C1717   1.479   .     S
C1717  C2121   1.406   .     D
C1717  C2525   1.406   .     S
C1818  C2626   1.406   .     D
C1818  C3030   1.406   .     S
C1919  C3131   1.406   .     D
C1919  C3535   1.406   .     S
C2020  C3636   1.406   .     D
C2020  C4040   1.406   .     S
C2121  C2222   1.397   .     S
C2121  H767    1.140   .     S
C2222  C2323   1.412   .     D
C2222  H868    1.140   .     S
C2323  C2424   1.396   .     S
C2323  N157    1.428   .     S
C2424  C2525   1.387   .     D
C2424  H969    1.140   .     S
C2525  H1070   1.140   .     S
C2626  C2727   1.396   .     S
C2626  H1171   1.140   .     S
C2727  C2828   1.400   .     D
C2727  H1272   1.140   .     S
C2828  C2929   1.412   .     S
C2828  N258    1.439   .     S
C2929  C3030   1.399   .     D
C2929  H1373   1.140   .     S
C3030  H1474   1.140   .     S
C3131  C3232   1.396   .     S
C3131  H1575   1.140   .     S
C3232  C3333   1.400   .     D
C3232  H1676   1.140   .     S
C3333  C3434   1.412   .     S
C3333  N460    1.438   .     S
C3434  C3535   1.399   .     D
C3434  H1777   1.140   .     S
C3535  H1878   1.140   .     S
C3636  C3737   1.397   .     S
C3636  H1979   1.140   .     S
C3737  C3838   1.412   .     D
C3737  H2080   1.140   .     S
C3838  C3939   1.396   .     S
C3838  N359    1.428   .     S
C3939  C4040   1.387   .     D
C3939  H2181   1.140   .     S
C4040  H2282   1.140   .     S
C4141  C4747   1.478   .     S
C4141  N258    1.300   .     D
C4141  H2383   1.140   .     S
C4242  C4646   1.478   .     S
C4242  N460    1.300   .     D
C4242  H2484   1.140   .     S
C4343  C4545   1.467   .     S
C4343  N359    1.295   .     D
C4343  H2585   1.140   .     S
C4444  C4848   1.467   .     S
C4444  N157    1.295   .     D
C4444  H2686   1.140   .     S
C4545  C4949   1.400   .     D
C4545  C5050   1.411   .     S
C4646  C5151   1.409   .     S
C4646  C5252   1.403   .     D
C4747  C5555   1.409   .     D
C4747  C5656   1.403   .     S
C4848  C5353   1.399   .     S
C4848  C5454   1.411   .     D
C4949  H2787   1.140   .     S
C4949  C5454   1.393   1_565 S
C5050  H2888   1.140   .     S
C5050  C5353   1.393   1_565 D
C5151  H2989   1.140   .     S
C5151  C5656   1.398   1_655 D
C5252  H3090   1.140   .     S
C5252  C5555   1.398   1_655 S
C5353  H3191   1.140   .     S
C5353  C5050   1.393   1_545 D
C5454  H3292   1.140   .     S
C5454  C4949   1.393   1_545 S
C5555  H3393   1.140   .     S
C5555  C5252   1.398   1_455 S
C5656  H3494   1.140   .     S
C5656  C5151   1.398   1_455 D
