data_1176
_audit_creation_date              2023-09-08
_audit_creation_method            'Materials Studio'
_symmetry_space_group_name_H-M    'P1'
_symmetry_Int_Tables_number       1
_symmetry_cell_setting            triclinic
loop_
_symmetry_equiv_pos_as_xyz
  x,y,z
_cell_length_a                    23.8894
_cell_length_b                    23.8894
_cell_length_c                    13.5320
_cell_angle_alpha                 90.0000
_cell_angle_beta                  90.0000
_cell_angle_gamma                 90.0000
loop_
_atom_site_label
_atom_site_type_symbol
_atom_site_fract_x
_atom_site_fract_y
_atom_site_fract_z
_atom_site_U_iso_or_equiv
_atom_site_adp_type
_atom_site_occupancy
C1     C     0.45540   0.76210   0.55430   0.00000  Uiso   1.00
C2     C     0.49340   0.72010   0.52090   0.00000  Uiso   1.00
C3     C     0.48440   0.68890   0.41810   0.00000  Uiso   1.00
N4     N     0.53600   0.70790   0.58610   0.00000  Uiso   1.00
C5     C     0.52070   0.65310   0.36810   0.00000  Uiso   1.00
C6     C     0.51320   0.62130   0.26520   0.00000  Uiso   1.00
C7     C     0.56020   0.59540   0.21910   0.00000  Uiso   1.00
C8     C     0.55660   0.56200   0.12990   0.00000  Uiso   1.00
C9     C     0.50540   0.55150   0.07860   0.00000  Uiso   1.00
C10    C     0.45810   0.57810   0.12420   0.00000  Uiso   1.00
C11    C     0.46180   0.61230   0.21360   0.00000  Uiso   1.00
H12    H     0.56080   0.64680   0.40440   0.00000  Uiso   1.00
H13    H     0.60090   0.59980   0.25430   0.00000  Uiso   1.00
H14    H     0.59430   0.54160   0.10380   0.00000  Uiso   1.00
H15    H     0.41690   0.57020   0.09340   0.00000  Uiso   1.00
H16    H     0.42370   0.62970   0.24440   0.00000  Uiso   1.00
H17    H     0.44490   0.69720   0.38100   0.00000  Uiso   1.00
H18    H     0.42090   0.77270   0.50510   0.00000  Uiso   1.00
C19    C     0.21630   0.04490   0.88710   0.00000  Uiso   1.00
C20    C     0.21760   0.00360   0.96450   0.00000  Uiso   1.00
C21    C     0.17980   0.01150   0.05300   0.00000  Uiso   1.00
N22    N     0.25400   0.96140   0.95120   0.00000  Uiso   1.00
C23    C     0.16420   0.97120   0.14300   0.00000  Uiso   1.00
C24    C     0.12750   0.98540   0.24070   0.00000  Uiso   1.00
C25    C     0.11900   0.94300   0.31430   0.00000  Uiso   1.00
C26    C     0.08280   0.94900   0.39970   0.00000  Uiso   1.00
C27    C     0.05210   0.99850   0.42140   0.00000  Uiso   1.00
C28    C     0.06110   0.04310   0.35100   0.00000  Uiso   1.00
C29    C     0.09670   0.03830   0.26410   0.00000  Uiso   1.00
H30    H     0.14600   0.93280   0.10950   0.00000  Uiso   1.00
H31    H     0.13940   0.90300   0.30340   0.00000  Uiso   1.00
H32    H     0.07700   0.91260   0.44680   0.00000  Uiso   1.00
H33    H     0.03800   0.08160   0.36070   0.00000  Uiso   1.00
H34    H     0.10010   0.07340   0.21300   0.00000  Uiso   1.00
H35    H     0.15470   0.04930   0.05250   0.00000  Uiso   1.00
H36    H     0.18800   0.08010   0.89270   0.00000  Uiso   1.00
C37    C     0.28900   0.95790   0.86640   0.00000  Uiso   1.00
C38    C     0.28970   0.99840   0.78760   0.00000  Uiso   1.00
C39    C     0.33770   0.99920   0.70340   0.00000  Uiso   1.00
N40    N     0.25340   0.04170   0.80010   0.00000  Uiso   1.00
C41    C     0.32570   0.99870   0.58450   0.00000  Uiso   1.00
C42    C     0.37450   0.99900   0.50200   0.00000  Uiso   1.00
C43    C     0.38920   0.04780   0.44660   0.00000  Uiso   1.00
C44    C     0.42520   0.04770   0.35940   0.00000  Uiso   1.00
C45    C     0.44820   0.99840   0.31500   0.00000  Uiso   1.00
C46    C     0.43290   0.94600   0.37140   0.00000  Uiso   1.00
C47    C     0.39790   0.94620   0.45850   0.00000  Uiso   1.00
H48    H     0.29330   0.03020   0.56550   0.00000  Uiso   1.00
H49    H     0.37240   0.08760   0.47120   0.00000  Uiso   1.00
H50    H     0.43600   0.08780   0.32700   0.00000  Uiso   1.00
H51    H     0.44970   0.90640   0.34600   0.00000  Uiso   1.00
H52    H     0.38790   0.90680   0.49430   0.00000  Uiso   1.00
H53    H     0.36970   0.96690   0.72030   0.00000  Uiso   1.00
H54    H     0.31880   0.92390   0.85990   0.00000  Uiso   1.00
C55    C     0.54200   0.73390   0.67850   0.00000  Uiso   1.00
C56    C     0.50420   0.77610   0.71250   0.00000  Uiso   1.00
C57    C     0.50970   0.79820   0.82410   0.00000  Uiso   1.00
N58    N     0.46080   0.78890   0.64710   0.00000  Uiso   1.00
C59    C     0.49690   0.85170   0.87200   0.00000  Uiso   1.00
C60    C     0.50320   0.86350   0.98220   0.00000  Uiso   1.00
C61    C     0.45090   0.88410   0.03770   0.00000  Uiso   1.00
C62    C     0.45220   0.92170   0.12190   0.00000  Uiso   1.00
C63    C     0.50170   0.94800   0.15860   0.00000  Uiso   1.00
C64    C     0.55070   0.93690   0.10050   0.00000  Uiso   1.00
C65    C     0.55220   0.90050   0.01460   0.00000  Uiso   1.00
H66    H     0.48220   0.88570   0.82550   0.00000  Uiso   1.00
H67    H     0.41080   0.86690   0.01550   0.00000  Uiso   1.00
H68    H     0.41260   0.93240   0.15620   0.00000  Uiso   1.00
H69    H     0.58870   0.95930   0.11910   0.00000  Uiso   1.00
H70    H     0.58940   0.89610   0.97710   0.00000  Uiso   1.00
H71    H     0.52850   0.76800   0.87460   0.00000  Uiso   1.00
H72    H     0.57610   0.72120   0.72670   0.00000  Uiso   1.00
C73    C     0.41830   0.83010   0.67590   0.00000  Uiso   1.00
C74    C     0.25940   0.91960   0.02370   0.00000  Uiso   1.00
H75    H     0.40110   0.82010   0.75150   0.00000  Uiso   1.00
H76    H     0.43680   0.87260   0.67570   0.00000  Uiso   1.00
H77    H     0.38240   0.83030   0.62270   0.00000  Uiso   1.00
H78    H     0.26920   0.93830   0.09820   0.00000  Uiso   1.00
H79    H     0.22060   0.89420   0.02700   0.00000  Uiso   1.00
H80    H     0.29410   0.89000   0.00700   0.00000  Uiso   1.00
C81    C     0.54460   0.23790   0.55430   0.00000  Uiso   1.00
C82    C     0.50660   0.27990   0.52090   0.00000  Uiso   1.00
C83    C     0.51560   0.31110   0.41810   0.00000  Uiso   1.00
N84    N     0.46400   0.29210   0.58610   0.00000  Uiso   1.00
C85    C     0.47930   0.34690   0.36810   0.00000  Uiso   1.00
C86    C     0.48680   0.37870   0.26520   0.00000  Uiso   1.00
C87    C     0.43980   0.40460   0.21910   0.00000  Uiso   1.00
C88    C     0.44340   0.43800   0.12990   0.00000  Uiso   1.00
C89    C     0.49460   0.44850   0.07860   0.00000  Uiso   1.00
C90    C     0.54190   0.42190   0.12420   0.00000  Uiso   1.00
C91    C     0.53820   0.38770   0.21360   0.00000  Uiso   1.00
H92    H     0.43920   0.35320   0.40440   0.00000  Uiso   1.00
H93    H     0.39910   0.40020   0.25430   0.00000  Uiso   1.00
H94    H     0.40570   0.45840   0.10380   0.00000  Uiso   1.00
H95    H     0.58310   0.42980   0.09340   0.00000  Uiso   1.00
H96    H     0.57630   0.37030   0.24440   0.00000  Uiso   1.00
H97    H     0.55510   0.30280   0.38100   0.00000  Uiso   1.00
H98    H     0.57910   0.22730   0.50510   0.00000  Uiso   1.00
C99    C     0.78370   0.95510   0.88710   0.00000  Uiso   1.00
C100   C     0.78240   0.99640   0.96450   0.00000  Uiso   1.00
C101   C     0.82020   0.98850   0.05300   0.00000  Uiso   1.00
N102   N     0.74600   0.03860   0.95120   0.00000  Uiso   1.00
C103   C     0.83580   0.02880   0.14300   0.00000  Uiso   1.00
C104   C     0.87250   0.01460   0.24070   0.00000  Uiso   1.00
C105   C     0.88100   0.05700   0.31430   0.00000  Uiso   1.00
C106   C     0.91720   0.05100   0.39970   0.00000  Uiso   1.00
C107   C     0.94790   0.00150   0.42140   0.00000  Uiso   1.00
C108   C     0.93890   0.95690   0.35100   0.00000  Uiso   1.00
C109   C     0.90330   0.96170   0.26410   0.00000  Uiso   1.00
H110   H     0.85400   0.06720   0.10950   0.00000  Uiso   1.00
H111   H     0.86060   0.09700   0.30340   0.00000  Uiso   1.00
H112   H     0.92300   0.08740   0.44680   0.00000  Uiso   1.00
H113   H     0.96200   0.91840   0.36070   0.00000  Uiso   1.00
H114   H     0.89990   0.92660   0.21300   0.00000  Uiso   1.00
H115   H     0.84530   0.95070   0.05250   0.00000  Uiso   1.00
H116   H     0.81200   0.91990   0.89270   0.00000  Uiso   1.00
C117   C     0.71100   0.04210   0.86640   0.00000  Uiso   1.00
C118   C     0.71030   0.00160   0.78760   0.00000  Uiso   1.00
C119   C     0.66230   0.00080   0.70340   0.00000  Uiso   1.00
N120   N     0.74660   0.95830   0.80010   0.00000  Uiso   1.00
C121   C     0.67430   0.00130   0.58450   0.00000  Uiso   1.00
C122   C     0.62550   0.00100   0.50200   0.00000  Uiso   1.00
C123   C     0.61080   0.95220   0.44660   0.00000  Uiso   1.00
C124   C     0.57480   0.95230   0.35940   0.00000  Uiso   1.00
C125   C     0.55180   0.00160   0.31500   0.00000  Uiso   1.00
C126   C     0.56710   0.05400   0.37140   0.00000  Uiso   1.00
C127   C     0.60210   0.05380   0.45850   0.00000  Uiso   1.00
H128   H     0.70670   0.96980   0.56550   0.00000  Uiso   1.00
H129   H     0.62760   0.91240   0.47120   0.00000  Uiso   1.00
H130   H     0.56400   0.91220   0.32700   0.00000  Uiso   1.00
H131   H     0.55030   0.09360   0.34600   0.00000  Uiso   1.00
H132   H     0.61210   0.09320   0.49430   0.00000  Uiso   1.00
H133   H     0.63030   0.03310   0.72030   0.00000  Uiso   1.00
H134   H     0.68120   0.07610   0.85990   0.00000  Uiso   1.00
C135   C     0.45800   0.26610   0.67850   0.00000  Uiso   1.00
C136   C     0.49580   0.22390   0.71250   0.00000  Uiso   1.00
C137   C     0.49030   0.20180   0.82410   0.00000  Uiso   1.00
N138   N     0.53920   0.21110   0.64710   0.00000  Uiso   1.00
C139   C     0.50310   0.14830   0.87200   0.00000  Uiso   1.00
C140   C     0.49680   0.13650   0.98220   0.00000  Uiso   1.00
C141   C     0.54910   0.11590   0.03770   0.00000  Uiso   1.00
C142   C     0.54780   0.07830   0.12190   0.00000  Uiso   1.00
C143   C     0.49830   0.05200   0.15860   0.00000  Uiso   1.00
C144   C     0.44930   0.06310   0.10050   0.00000  Uiso   1.00
C145   C     0.44780   0.09950   0.01460   0.00000  Uiso   1.00
H146   H     0.51780   0.11430   0.82550   0.00000  Uiso   1.00
H147   H     0.58920   0.13310   0.01550   0.00000  Uiso   1.00
H148   H     0.58740   0.06760   0.15620   0.00000  Uiso   1.00
H149   H     0.41130   0.04070   0.11910   0.00000  Uiso   1.00
H150   H     0.41060   0.10390   0.97710   0.00000  Uiso   1.00
H151   H     0.47150   0.23200   0.87460   0.00000  Uiso   1.00
H152   H     0.42390   0.27880   0.72670   0.00000  Uiso   1.00
C153   C     0.58170   0.16990   0.67590   0.00000  Uiso   1.00
C154   C     0.74060   0.08040   0.02370   0.00000  Uiso   1.00
H155   H     0.59890   0.17990   0.75150   0.00000  Uiso   1.00
H156   H     0.56320   0.12740   0.67570   0.00000  Uiso   1.00
H157   H     0.61760   0.16970   0.62270   0.00000  Uiso   1.00
H158   H     0.73080   0.06170   0.09820   0.00000  Uiso   1.00
H159   H     0.77940   0.10580   0.02700   0.00000  Uiso   1.00
H160   H     0.70590   0.11000   0.00700   0.00000  Uiso   1.00
C161   C     0.76210   0.54460   0.44570   0.00000  Uiso   1.00
C162   C     0.72010   0.50660   0.47910   0.00000  Uiso   1.00
C163   C     0.68890   0.51560   0.58190   0.00000  Uiso   1.00
N164   N     0.70790   0.46400   0.41390   0.00000  Uiso   1.00
C165   C     0.65310   0.47930   0.63190   0.00000  Uiso   1.00
C166   C     0.62130   0.48680   0.73480   0.00000  Uiso   1.00
C167   C     0.59540   0.43980   0.78090   0.00000  Uiso   1.00
C168   C     0.56200   0.44340   0.87010   0.00000  Uiso   1.00
C169   C     0.55150   0.49460   0.92140   0.00000  Uiso   1.00
C170   C     0.57810   0.54190   0.87580   0.00000  Uiso   1.00
C171   C     0.61230   0.53820   0.78640   0.00000  Uiso   1.00
H172   H     0.64680   0.43920   0.59560   0.00000  Uiso   1.00
H173   H     0.59980   0.39910   0.74570   0.00000  Uiso   1.00
H174   H     0.54160   0.40570   0.89620   0.00000  Uiso   1.00
H175   H     0.57020   0.58310   0.90660   0.00000  Uiso   1.00
H176   H     0.62970   0.57630   0.75560   0.00000  Uiso   1.00
H177   H     0.69720   0.55510   0.61900   0.00000  Uiso   1.00
H178   H     0.77270   0.57910   0.49490   0.00000  Uiso   1.00
C179   C     0.04490   0.78370   0.11290   0.00000  Uiso   1.00
C180   C     0.00360   0.78240   0.03550   0.00000  Uiso   1.00
C181   C     0.01150   0.82020   0.94700   0.00000  Uiso   1.00
N182   N     0.96140   0.74600   0.04880   0.00000  Uiso   1.00
C183   C     0.97120   0.83580   0.85700   0.00000  Uiso   1.00
C184   C     0.98540   0.87250   0.75930   0.00000  Uiso   1.00
C185   C     0.94300   0.88100   0.68570   0.00000  Uiso   1.00
C186   C     0.94900   0.91720   0.60030   0.00000  Uiso   1.00
C187   C     0.99850   0.94790   0.57860   0.00000  Uiso   1.00
C188   C     0.04310   0.93890   0.64900   0.00000  Uiso   1.00
C189   C     0.03830   0.90330   0.73590   0.00000  Uiso   1.00
H190   H     0.93280   0.85400   0.89050   0.00000  Uiso   1.00
H191   H     0.90300   0.86060   0.69660   0.00000  Uiso   1.00
H192   H     0.91260   0.92300   0.55320   0.00000  Uiso   1.00
H193   H     0.08160   0.96200   0.63930   0.00000  Uiso   1.00
H194   H     0.07340   0.89990   0.78700   0.00000  Uiso   1.00
H195   H     0.04930   0.84530   0.94750   0.00000  Uiso   1.00
H196   H     0.08010   0.81200   0.10730   0.00000  Uiso   1.00
C197   C     0.95790   0.71100   0.13360   0.00000  Uiso   1.00
C198   C     0.99840   0.71030   0.21240   0.00000  Uiso   1.00
C199   C     0.99920   0.66230   0.29660   0.00000  Uiso   1.00
N200   N     0.04170   0.74660   0.19990   0.00000  Uiso   1.00
C201   C     0.99870   0.67430   0.41550   0.00000  Uiso   1.00
C202   C     0.99900   0.62550   0.49800   0.00000  Uiso   1.00
C203   C     0.04780   0.61080   0.55340   0.00000  Uiso   1.00
C204   C     0.04770   0.57480   0.64060   0.00000  Uiso   1.00
C205   C     0.99840   0.55180   0.68500   0.00000  Uiso   1.00
C206   C     0.94600   0.56710   0.62860   0.00000  Uiso   1.00
C207   C     0.94620   0.60210   0.54150   0.00000  Uiso   1.00
H208   H     0.03020   0.70670   0.43450   0.00000  Uiso   1.00
H209   H     0.08760   0.62760   0.52880   0.00000  Uiso   1.00
H210   H     0.08780   0.56400   0.67300   0.00000  Uiso   1.00
H211   H     0.90640   0.55030   0.65400   0.00000  Uiso   1.00
H212   H     0.90680   0.61210   0.50570   0.00000  Uiso   1.00
H213   H     0.96690   0.63030   0.27970   0.00000  Uiso   1.00
H214   H     0.92390   0.68120   0.14010   0.00000  Uiso   1.00
C215   C     0.73390   0.45800   0.32150   0.00000  Uiso   1.00
C216   C     0.77610   0.49580   0.28750   0.00000  Uiso   1.00
C217   C     0.79820   0.49030   0.17590   0.00000  Uiso   1.00
N218   N     0.78890   0.53920   0.35290   0.00000  Uiso   1.00
C219   C     0.85170   0.50310   0.12800   0.00000  Uiso   1.00
C220   C     0.86350   0.49680   0.01780   0.00000  Uiso   1.00
C221   C     0.88410   0.54910   0.96230   0.00000  Uiso   1.00
C222   C     0.92170   0.54780   0.87810   0.00000  Uiso   1.00
C223   C     0.94800   0.49830   0.84140   0.00000  Uiso   1.00
C224   C     0.93690   0.44930   0.89950   0.00000  Uiso   1.00
C225   C     0.90050   0.44780   0.98540   0.00000  Uiso   1.00
H226   H     0.88570   0.51780   0.17450   0.00000  Uiso   1.00
H227   H     0.86690   0.58920   0.98450   0.00000  Uiso   1.00
H228   H     0.93240   0.58740   0.84380   0.00000  Uiso   1.00
H229   H     0.95930   0.41130   0.88090   0.00000  Uiso   1.00
H230   H     0.89610   0.41060   0.02290   0.00000  Uiso   1.00
H231   H     0.76800   0.47150   0.12540   0.00000  Uiso   1.00
H232   H     0.72120   0.42390   0.27330   0.00000  Uiso   1.00
C233   C     0.83010   0.58170   0.32410   0.00000  Uiso   1.00
C234   C     0.91960   0.74060   0.97630   0.00000  Uiso   1.00
H235   H     0.82010   0.59890   0.24850   0.00000  Uiso   1.00
H236   H     0.87260   0.56320   0.32430   0.00000  Uiso   1.00
H237   H     0.83030   0.61760   0.37730   0.00000  Uiso   1.00
H238   H     0.93830   0.73080   0.90180   0.00000  Uiso   1.00
H239   H     0.89420   0.77940   0.97300   0.00000  Uiso   1.00
H240   H     0.89000   0.70590   0.99300   0.00000  Uiso   1.00
C241   C     0.23790   0.45540   0.44570   0.00000  Uiso   1.00
C242   C     0.27990   0.49340   0.47910   0.00000  Uiso   1.00
C243   C     0.31110   0.48440   0.58190   0.00000  Uiso   1.00
N244   N     0.29210   0.53600   0.41390   0.00000  Uiso   1.00
C245   C     0.34690   0.52070   0.63190   0.00000  Uiso   1.00
C246   C     0.37870   0.51320   0.73480   0.00000  Uiso   1.00
C247   C     0.40460   0.56020   0.78090   0.00000  Uiso   1.00
C248   C     0.43800   0.55660   0.87010   0.00000  Uiso   1.00
C249   C     0.44850   0.50540   0.92140   0.00000  Uiso   1.00
C250   C     0.42190   0.45810   0.87580   0.00000  Uiso   1.00
C251   C     0.38770   0.46180   0.78640   0.00000  Uiso   1.00
H252   H     0.35320   0.56080   0.59560   0.00000  Uiso   1.00
H253   H     0.40020   0.60090   0.74570   0.00000  Uiso   1.00
H254   H     0.45840   0.59430   0.89620   0.00000  Uiso   1.00
H255   H     0.42980   0.41690   0.90660   0.00000  Uiso   1.00
H256   H     0.37030   0.42370   0.75560   0.00000  Uiso   1.00
H257   H     0.30280   0.44490   0.61900   0.00000  Uiso   1.00
H258   H     0.22730   0.42090   0.49490   0.00000  Uiso   1.00
C259   C     0.95510   0.21630   0.11290   0.00000  Uiso   1.00
C260   C     0.99640   0.21760   0.03550   0.00000  Uiso   1.00
C261   C     0.98850   0.17980   0.94700   0.00000  Uiso   1.00
N262   N     0.03860   0.25400   0.04880   0.00000  Uiso   1.00
C263   C     0.02880   0.16420   0.85700   0.00000  Uiso   1.00
C264   C     0.01460   0.12750   0.75930   0.00000  Uiso   1.00
C265   C     0.05700   0.11900   0.68570   0.00000  Uiso   1.00
C266   C     0.05100   0.08280   0.60030   0.00000  Uiso   1.00
C267   C     0.00150   0.05210   0.57860   0.00000  Uiso   1.00
C268   C     0.95690   0.06110   0.64900   0.00000  Uiso   1.00
C269   C     0.96170   0.09670   0.73590   0.00000  Uiso   1.00
H270   H     0.06720   0.14600   0.89050   0.00000  Uiso   1.00
H271   H     0.09700   0.13940   0.69660   0.00000  Uiso   1.00
H272   H     0.08740   0.07700   0.55320   0.00000  Uiso   1.00
H273   H     0.91840   0.03800   0.63930   0.00000  Uiso   1.00
H274   H     0.92660   0.10010   0.78700   0.00000  Uiso   1.00
H275   H     0.95070   0.15470   0.94750   0.00000  Uiso   1.00
H276   H     0.91990   0.18800   0.10730   0.00000  Uiso   1.00
C277   C     0.04210   0.28900   0.13360   0.00000  Uiso   1.00
C278   C     0.00160   0.28970   0.21240   0.00000  Uiso   1.00
C279   C     0.00080   0.33770   0.29660   0.00000  Uiso   1.00
N280   N     0.95830   0.25340   0.19990   0.00000  Uiso   1.00
C281   C     0.00130   0.32570   0.41550   0.00000  Uiso   1.00
C282   C     0.00100   0.37450   0.49800   0.00000  Uiso   1.00
C283   C     0.95220   0.38920   0.55340   0.00000  Uiso   1.00
C284   C     0.95230   0.42520   0.64060   0.00000  Uiso   1.00
C285   C     0.00160   0.44820   0.68500   0.00000  Uiso   1.00
C286   C     0.05400   0.43290   0.62860   0.00000  Uiso   1.00
C287   C     0.05380   0.39790   0.54150   0.00000  Uiso   1.00
H288   H     0.96980   0.29330   0.43450   0.00000  Uiso   1.00
H289   H     0.91240   0.37240   0.52880   0.00000  Uiso   1.00
H290   H     0.91220   0.43600   0.67300   0.00000  Uiso   1.00
H291   H     0.09360   0.44970   0.65400   0.00000  Uiso   1.00
H292   H     0.09320   0.38790   0.50570   0.00000  Uiso   1.00
H293   H     0.03310   0.36970   0.27970   0.00000  Uiso   1.00
H294   H     0.07610   0.31880   0.14010   0.00000  Uiso   1.00
C295   C     0.26610   0.54200   0.32150   0.00000  Uiso   1.00
C296   C     0.22390   0.50420   0.28750   0.00000  Uiso   1.00
C297   C     0.20180   0.50970   0.17590   0.00000  Uiso   1.00
N298   N     0.21110   0.46080   0.35290   0.00000  Uiso   1.00
C299   C     0.14830   0.49690   0.12800   0.00000  Uiso   1.00
C300   C     0.13650   0.50320   0.01780   0.00000  Uiso   1.00
C301   C     0.11590   0.45090   0.96230   0.00000  Uiso   1.00
C302   C     0.07830   0.45220   0.87810   0.00000  Uiso   1.00
C303   C     0.05200   0.50170   0.84140   0.00000  Uiso   1.00
C304   C     0.06310   0.55070   0.89950   0.00000  Uiso   1.00
C305   C     0.09950   0.55220   0.98540   0.00000  Uiso   1.00
H306   H     0.11430   0.48220   0.17450   0.00000  Uiso   1.00
H307   H     0.13310   0.41080   0.98450   0.00000  Uiso   1.00
H308   H     0.06760   0.41260   0.84380   0.00000  Uiso   1.00
H309   H     0.04070   0.58870   0.88090   0.00000  Uiso   1.00
H310   H     0.10390   0.58940   0.02290   0.00000  Uiso   1.00
H311   H     0.23200   0.52850   0.12540   0.00000  Uiso   1.00
H312   H     0.27880   0.57610   0.27330   0.00000  Uiso   1.00
C313   C     0.16990   0.41830   0.32410   0.00000  Uiso   1.00
C314   C     0.08040   0.25940   0.97630   0.00000  Uiso   1.00
H315   H     0.17990   0.40110   0.24850   0.00000  Uiso   1.00
H316   H     0.12740   0.43680   0.32430   0.00000  Uiso   1.00
H317   H     0.16970   0.38240   0.37730   0.00000  Uiso   1.00
H318   H     0.06170   0.26920   0.90180   0.00000  Uiso   1.00
H319   H     0.10580   0.22060   0.97300   0.00000  Uiso   1.00
H320   H     0.11000   0.29410   0.99300   0.00000  Uiso   1.00
C321   C     0.50000   0.00000   0.23690   0.00000  Uiso   1.00
C322   C     0.00000   0.50000   0.76310   0.00000  Uiso   1.00
C323   C     0.50000   0.50000   0.00000   0.00000  Uiso   1.00
C324   C     0.00000   0.00000   0.50000   0.00000  Uiso   1.00
loop_
_geom_bond_atom_site_label_1
_geom_bond_atom_site_label_2
_geom_bond_distance
_geom_bond_site_symmetry_2
_ccdc_geom_bond_type
C1     C2      1.427   .     D
C1     H18     1.089   .     S
C1     N58     1.415   .     S
C2     C3      1.593   .     S
C2     N4      1.378   .     S
C3     C5      1.393   .     D
C3     H17     1.087   .     S
N4     C55     1.403   .     D
C5     C6      1.596   .     S
C5     H12     1.087   .     S
C6     C7      1.426   .     D
C6     C11     1.429   .     S
C7     C8      1.449   .     S
C7     H13     1.088   .     S
C8     C9      1.429   .     D
C8     H14     1.083   .     S
C9     C10     1.436   .     S
C9     C323    1.631   .     S
C10    C11     1.462   .     D
C10    H15     1.085   .     S
C11    H16     1.084   .     S
C19    C20     1.439   .     S
C19    H36     1.082   .     S
C19    N40     1.476   .     D
C20    C21     1.512   1_556 S
C20    N22     1.343   1_545 D
C21    H35     1.084   .     S
C21    C20     1.512   1_554 S
C21    C23     1.597   1_545 D
N22    C37     1.422   .     S
N22    C20     1.343   1_565 D
N22    C74     1.406   1_556 S
C23    C24     1.622   .     S
C23    H30     1.112   .     S
C23    C21     1.597   1_565 D
C24    C25     1.435   .     S
C24    C29     1.496   1_565 D
C25    C26     1.450   .     D
C25    H31     1.083   .     S
C26    C27     1.422   .     S
C26    H32     1.087   .     S
C27    C28     1.445   1_565 D
C27    C324    1.638   1_565 S
C28    C29     1.456   .     S
C28    H33     1.081   .     S
C28    C27     1.445   1_545 D
C29    H34     1.090   .     S
C29    C24     1.496   1_545 D
C37    C38     1.440   .     D
C37    H54     1.084   .     S
C38    C39     1.617   .     S
C38    N40     1.360   1_565 S
C39    C41     1.634   .     D
C39    H53     1.110   .     S
N40    C38     1.360   1_545 S
C41    C42     1.614   .     S
C41    H48     1.110   1_565 S
C42    C47     1.500   .     D
C42    C43     1.430   1_565 S
C43    C44     1.460   .     D
C43    H49     1.084   .     S
C43    C42     1.430   1_545 S
C44    H50     1.085   .     S
C44    C45     1.432   1_545 S
C45    C46     1.511   .     D
C45    C44     1.432   1_565 S
C45    C321    1.628   1_565 S
C46    C47     1.445   .     S
C46    H51     1.084   .     S
C47    H52     1.085   .     S
H48    C41     1.110   1_545 S
C55    C56     1.429   .     S
C55    H72     1.087   .     S
C56    C57     1.605   .     S
C56    N58     1.397   .     D
C57    C59     1.465   .     D
C57    H71     1.091   .     S
N58    C73     1.467   .     S
C59    C60     1.525   .     S
C59    H66     1.086   .     S
C60    C61     1.539   1_556 D
C60    C65     1.531   1_556 S
C61    C62     1.451   .     S
C61    H67     1.085   .     S
C61    C60     1.539   1_554 D
C62    C63     1.428   .     D
C62    H68     1.084   .     S
C63    C64     1.435   .     S
C63    C321    1.633   1_565 S
C64    C65     1.452   .     D
C64    H69     1.083   .     S
C65    C60     1.531   1_554 S
C65    H70     1.029   1_554 S
H70    C65     1.029   1_556 S
C73    H75     1.128   .     S
C73    H76     1.107   .     S
C73    H77     1.120   .     S
C74    H78     1.127   .     S
C74    H79     1.109   .     S
C74    H80     1.113   .     S
C74    N22     1.406   1_554 S
C81    C82     1.427   .     D
C81    H98     1.089   .     S
C81    N138    1.415   .     S
C82    C83     1.593   .     S
C82    N84     1.378   .     S
C83    C85     1.393   .     D
C83    H97     1.087   .     S
N84    C135    1.403   .     D
C85    C86     1.596   .     S
C85    H92     1.087   .     S
C86    C87     1.426   .     D
C86    C91     1.429   .     S
C87    C88     1.449   .     S
C87    H93     1.088   .     S
C88    C89     1.429   .     D
C88    H94     1.083   .     S
C89    C90     1.436   .     S
C89    C323    1.631   .     S
C90    C91     1.462   .     D
C90    H95     1.085   .     S
C91    H96     1.084   .     S
C99    C100    1.439   .     S
C99    H116    1.082   .     S
C99    N120    1.476   .     D
C100   C101    1.512   1_556 S
C100   N102    1.343   1_565 D
C101   H115    1.084   .     S
C101   C100    1.512   1_554 S
C101   C103    1.597   1_565 D
N102   C117    1.422   .     S
N102   C100    1.343   1_545 D
N102   C154    1.406   1_556 S
C103   C104    1.622   .     S
C103   H110    1.112   .     S
C103   C101    1.597   1_545 D
C104   C105    1.435   .     S
C104   C109    1.496   1_545 D
C105   C106    1.450   .     D
C105   H111    1.083   .     S
C106   C107    1.422   .     S
C106   H112    1.087   .     S
C107   C108    1.445   1_545 D
C107   C324    1.638   1_655 S
C108   C109    1.456   .     S
C108   H113    1.081   .     S
C108   C107    1.445   1_565 D
C109   H114    1.090   .     S
C109   C104    1.496   1_565 D
C117   C118    1.440   .     D
C117   H134    1.084   .     S
C118   C119    1.617   .     S
C118   N120    1.360   1_545 S
C119   C121    1.634   .     D
C119   H133    1.110   .     S
N120   C118    1.360   1_565 S
C121   C122    1.614   .     S
C121   H128    1.110   1_545 S
C122   C127    1.500   .     D
C122   C123    1.430   1_545 S
C123   C124    1.460   .     D
C123   H129    1.084   .     S
C123   C122    1.430   1_565 S
C124   H130    1.085   .     S
C124   C125    1.432   1_565 S
C125   C126    1.511   .     D
C125   C321    1.628   .     S
C125   C124    1.432   1_545 S
C126   C127    1.445   .     S
C126   H131    1.084   .     S
C127   H132    1.085   .     S
H128   C121    1.110   1_565 S
C135   C136    1.429   .     S
C135   H152    1.087   .     S
C136   C137    1.605   .     S
C136   N138    1.397   .     D
C137   C139    1.465   .     D
C137   H151    1.091   .     S
N138   C153    1.467   .     S
C139   C140    1.525   .     S
C139   H146    1.086   .     S
C140   C141    1.539   1_556 D
C140   C145    1.531   1_556 S
C141   C142    1.451   .     S
C141   H147    1.085   .     S
C141   C140    1.539   1_554 D
C142   C143    1.428   .     D
C142   H148    1.084   .     S
C143   C144    1.435   .     S
C143   C321    1.633   .     S
C144   C145    1.452   .     D
C144   H149    1.083   .     S
C145   C140    1.531   1_554 S
C145   H150    1.029   1_554 S
H150   C145    1.029   1_556 S
C153   H155    1.128   .     S
C153   H156    1.107   .     S
C153   H157    1.120   .     S
C154   H158    1.127   .     S
C154   H159    1.109   .     S
C154   H160    1.113   .     S
C154   N102    1.406   1_554 S
C161   C162    1.427   .     D
C161   H178    1.089   .     S
C161   N218    1.415   .     S
C162   C163    1.593   .     S
C162   N164    1.378   .     S
C163   C165    1.393   .     D
C163   H177    1.087   .     S
N164   C215    1.403   .     D
C165   C166    1.596   .     S
C165   H172    1.087   .     S
C166   C167    1.426   .     D
C166   C171    1.429   .     S
C167   C168    1.449   .     S
C167   H173    1.088   .     S
C168   C169    1.429   .     D
C168   H174    1.083   .     S
C169   C170    1.436   .     S
C169   C323    1.631   1_556 S
C170   C171    1.462   .     D
C170   H175    1.085   .     S
C171   H176    1.084   .     S
C179   C180    1.439   .     S
C179   H196    1.082   .     S
C179   N200    1.476   .     D
C180   C181    1.512   1_554 S
C180   N182    1.343   1_455 D
C181   H195    1.084   .     S
C181   C180    1.512   1_556 S
C181   C183    1.597   1_455 D
N182   C197    1.422   .     S
N182   C180    1.343   1_655 D
N182   C234    1.406   1_554 S
C183   C184    1.622   .     S
C183   H190    1.112   .     S
C183   C181    1.597   1_655 D
C184   C185    1.435   .     S
C184   C189    1.496   1_655 D
C185   C186    1.450   .     D
C185   H191    1.083   .     S
C186   C187    1.422   .     S
C186   H192    1.087   .     S
C187   C188    1.445   1_655 D
C187   C324    1.638   1_665 S
C188   C189    1.456   .     S
C188   H193    1.081   .     S
C188   C187    1.445   1_455 D
C189   H194    1.090   .     S
C189   C184    1.496   1_455 D
C197   C198    1.440   .     D
C197   H214    1.084   .     S
C198   C199    1.617   .     S
C198   N200    1.360   1_655 S
C199   C201    1.634   .     D
C199   H213    1.110   .     S
N200   C198    1.360   1_455 S
C201   C202    1.614   .     S
C201   H208    1.110   1_655 S
C202   C207    1.500   .     D
C202   C203    1.430   1_655 S
C203   C204    1.460   .     D
C203   H209    1.084   .     S
C203   C202    1.430   1_455 S
C204   H210    1.085   .     S
C204   C205    1.432   1_455 S
C205   C206    1.511   .     D
C205   C204    1.432   1_655 S
C205   C322    1.628   1_655 S
C206   C207    1.445   .     S
C206   H211    1.084   .     S
C207   H212    1.085   .     S
H208   C201    1.110   1_455 S
C215   C216    1.429   .     S
C215   H232    1.087   .     S
C216   C217    1.605   .     S
C216   N218    1.397   .     D
C217   C219    1.465   .     D
C217   H231    1.091   .     S
N218   C233    1.467   .     S
C219   C220    1.525   .     S
C219   H226    1.086   .     S
C220   C221    1.539   1_554 D
C220   C225    1.531   1_554 S
C221   C222    1.451   .     S
C221   H227    1.085   .     S
C221   C220    1.539   1_556 D
C222   C223    1.428   .     D
C222   H228    1.084   .     S
C223   C224    1.435   .     S
C223   C322    1.633   1_655 S
C224   C225    1.452   .     D
C224   H229    1.083   .     S
C225   C220    1.531   1_556 S
C225   H230    1.029   1_556 S
H230   C225    1.029   1_554 S
C233   H235    1.128   .     S
C233   H236    1.107   .     S
C233   H237    1.120   .     S
C234   H238    1.127   .     S
C234   H239    1.109   .     S
C234   H240    1.113   .     S
C234   N182    1.406   1_556 S
C241   C242    1.427   .     D
C241   H258    1.089   .     S
C241   N298    1.415   .     S
C242   C243    1.593   .     S
C242   N244    1.378   .     S
C243   C245    1.393   .     D
C243   H257    1.087   .     S
N244   C295    1.403   .     D
C245   C246    1.596   .     S
C245   H252    1.087   .     S
C246   C247    1.426   .     D
C246   C251    1.429   .     S
C247   C248    1.449   .     S
C247   H253    1.088   .     S
C248   C249    1.429   .     D
C248   H254    1.083   .     S
C249   C250    1.436   .     S
C249   C323    1.631   1_556 S
C250   C251    1.462   .     D
C250   H255    1.085   .     S
C251   H256    1.084   .     S
C259   C260    1.439   .     S
C259   H276    1.082   .     S
C259   N280    1.476   .     D
C260   C261    1.512   1_554 S
C260   N262    1.343   1_655 D
C261   H275    1.084   .     S
C261   C260    1.512   1_556 S
C261   C263    1.597   1_655 D
N262   C277    1.422   .     S
N262   C260    1.343   1_455 D
N262   C314    1.406   1_554 S
C263   C264    1.622   .     S
C263   H270    1.112   .     S
C263   C261    1.597   1_455 D
C264   C265    1.435   .     S
C264   C269    1.496   1_455 D
C265   C266    1.450   .     D
C265   H271    1.083   .     S
C266   C267    1.422   .     S
C266   H272    1.087   .     S
C267   C324    1.638   .     S
C267   C268    1.445   1_455 D
C268   C269    1.456   .     S
C268   H273    1.081   .     S
C268   C267    1.445   1_655 D
C269   H274    1.090   .     S
C269   C264    1.496   1_655 D
C277   C278    1.440   .     D
C277   H294    1.084   .     S
C278   C279    1.617   .     S
C278   N280    1.360   1_455 S
C279   C281    1.634   .     D
C279   H293    1.110   .     S
N280   C278    1.360   1_655 S
C281   C282    1.614   .     S
C281   H288    1.110   1_455 S
C282   C287    1.500   .     D
C282   C283    1.430   1_455 S
C283   C284    1.460   .     D
C283   H289    1.084   .     S
C283   C282    1.430   1_655 S
C284   H290    1.085   .     S
C284   C285    1.432   1_655 S
C285   C286    1.511   .     D
C285   C322    1.628   .     S
C285   C284    1.432   1_455 S
C286   C287    1.445   .     S
C286   H291    1.084   .     S
C287   H292    1.085   .     S
H288   C281    1.110   1_655 S
C295   C296    1.429   .     S
C295   H312    1.087   .     S
C296   C297    1.605   .     S
C296   N298    1.397   .     D
C297   C299    1.465   .     D
C297   H311    1.091   .     S
N298   C313    1.467   .     S
C299   C300    1.525   .     S
C299   H306    1.086   .     S
C300   C301    1.539   1_554 D
C300   C305    1.531   1_554 S
C301   C302    1.451   .     S
C301   H307    1.085   .     S
C301   C300    1.539   1_556 D
C302   C303    1.428   .     D
C302   H308    1.084   .     S
C303   C304    1.435   .     S
C303   C322    1.633   .     S
C304   C305    1.452   .     D
C304   H309    1.083   .     S
C305   C300    1.531   1_556 S
C305   H310    1.029   1_556 S
H310   C305    1.029   1_554 S
C313   H315    1.128   .     S
C313   H316    1.107   .     S
C313   H317    1.120   .     S
C314   H318    1.127   .     S
C314   H319    1.109   .     S
C314   H320    1.113   .     S
C314   N262    1.406   1_556 S
C321   C45     1.628   1_545 S
C321   C63     1.633   1_545 S
C322   C205    1.628   1_455 S
C322   C223    1.633   1_455 S
C323   C169    1.631   1_554 S
C323   C249    1.631   1_554 S
C324   C27     1.638   1_545 S
C324   C107    1.638   1_455 S
C324   C187    1.638   1_445 S
