data_1177
_audit_creation_date              2023-09-08
_audit_creation_method            'Materials Studio'
_symmetry_space_group_name_H-M    'P1'
_symmetry_Int_Tables_number       1
_symmetry_cell_setting            triclinic
loop_
_symmetry_equiv_pos_as_xyz
  x,y,z
_cell_length_a                    12.1845
_cell_length_b                    31.1574
_cell_length_c                    33.7854
_cell_angle_alpha                 89.4980
_cell_angle_beta                  80.2770
_cell_angle_gamma                 98.7710
loop_
_atom_site_label
_atom_site_type_symbol
_atom_site_fract_x
_atom_site_fract_y
_atom_site_fract_z
_atom_site_U_iso_or_equiv
_atom_site_adp_type
_atom_site_occupancy
C1     C     0.98664   0.99955   0.99995   0.00000  Uiso   1.00
C2     C     0.77219   0.49171   0.51887   0.00000  Uiso   1.00
C3     C     0.67428   0.46527   0.54885   0.00000  Uiso   1.00
C4     C     0.56027   0.46265   0.54498   0.00000  Uiso   1.00
C5     C     0.47454   0.43750   0.57199   0.00000  Uiso   1.00
C6     C     0.50081   0.41381   0.60403   0.00000  Uiso   1.00
C7     C     0.31961   0.39317   0.64357   0.00000  Uiso   1.00
C8     C     0.23816   0.36030   0.66826   0.00000  Uiso   1.00
C9     C     0.25569   0.31859   0.67933   0.00000  Uiso   1.00
C10    C     0.16060   0.29395   0.70293   0.00000  Uiso   1.00
C11    C     0.06660   0.31603   0.71067   0.00000  Uiso   1.00
C12    C     0.95911   0.29713   0.73415   0.00000  Uiso   1.00
C13    C     0.93246   0.25509   0.75254   0.00000  Uiso   1.00
C14    C     0.81801   0.24851   0.77301   0.00000  Uiso   1.00
C15    C     0.77225   0.28839   0.76681   0.00000  Uiso   1.00
C16    C     0.84678   0.35945   0.73096   0.00000  Uiso   1.00
C17    C     0.79160   0.20657   0.79164   0.00000  Uiso   1.00
C18    C     0.68456   0.18781   0.81547   0.00000  Uiso   1.00
C19    C     0.58979   0.20950   0.82271   0.00000  Uiso   1.00
C20    C     0.49553   0.18507   0.84699   0.00000  Uiso   1.00
C21    C     0.51469   0.14401   0.85921   0.00000  Uiso   1.00
C22    C     0.43494   0.11149   0.88492   0.00000  Uiso   1.00
C23    C     0.90411   0.14429   0.79485   0.00000  Uiso   1.00
C24    C     0.97831   0.21526   0.75882   0.00000  Uiso   1.00
C25    C     0.61499   0.41637   0.60827   0.00000  Uiso   1.00
C26    C     0.69946   0.44213   0.58152   0.00000  Uiso   1.00
C27    C     0.25392   0.08934   0.92373   0.00000  Uiso   1.00
C28    C     0.23399   0.04464   0.91567   0.00000  Uiso   1.00
C29    C     0.18363   0.10507   0.95608   0.00000  Uiso   1.00
C30    C     0.14808   0.01681   0.94009   0.00000  Uiso   1.00
C31    C     0.09948   0.07673   0.98075   0.00000  Uiso   1.00
C32    C     0.08029   0.03199   0.97358   0.00000  Uiso   1.00
C33    C     0.83485   0.46083   0.49076   0.00000  Uiso   1.00
C34    C     0.91268   0.47815   0.45642   0.00000  Uiso   1.00
C35    C     0.97317   0.45169   0.43092   0.00000  Uiso   1.00
C36    C     0.95783   0.40641   0.43922   0.00000  Uiso   1.00
C37    C     0.04762   0.37994   0.37833   0.00000  Uiso   1.00
C38    C     0.11924   0.35029   0.35835   0.00000  Uiso   1.00
C39    C     0.17089   0.32039   0.37729   0.00000  Uiso   1.00
C40    C     0.23406   0.29570   0.35025   0.00000  Uiso   1.00
C41    C     0.23281   0.30587   0.30953   0.00000  Uiso   1.00
C42    C     0.29059   0.28425   0.27635   0.00000  Uiso   1.00
C43    C     0.35510   0.25073   0.27944   0.00000  Uiso   1.00
C44    C     0.39709   0.23747   0.24003   0.00000  Uiso   1.00
C45    C     0.35665   0.26423   0.21141   0.00000  Uiso   1.00
C46    C     0.23956   0.32321   0.21686   0.00000  Uiso   1.00
C47    C     0.46085   0.20371   0.24313   0.00000  Uiso   1.00
C48    C     0.51630   0.18133   0.21001   0.00000  Uiso   1.00
C49    C     0.51272   0.19073   0.16931   0.00000  Uiso   1.00
C50    C     0.57184   0.16473   0.14236   0.00000  Uiso   1.00
C51    C     0.62275   0.13461   0.16133   0.00000  Uiso   1.00
C52    C     0.68962   0.10340   0.14148   0.00000  Uiso   1.00
C53    C     0.51202   0.16481   0.30264   0.00000  Uiso   1.00
C54    C     0.39530   0.22390   0.30807   0.00000  Uiso   1.00
C55    C     0.87971   0.38881   0.47327   0.00000  Uiso   1.00
C56    C     0.81822   0.41553   0.49807   0.00000  Uiso   1.00
C57    C     0.76893   0.07343   0.08075   0.00000  Uiso   1.00
C58    C     0.87745   0.06865   0.08798   0.00000  Uiso   1.00
C59    C     0.72992   0.05277   0.04764   0.00000  Uiso   1.00
C60    C     0.94457   0.04453   0.06223   0.00000  Uiso   1.00
C61    C     0.79712   0.02811   0.02256   0.00000  Uiso   1.00
C62    C     0.90679   0.02427   0.02866   0.00000  Uiso   1.00
C63    C     0.72718   0.52290   0.49177   0.00000  Uiso   1.00
C64    C     0.67250   0.50595   0.46027   0.00000  Uiso   1.00
C65    C     0.62913   0.53265   0.43541   0.00000  Uiso   1.00
C66    C     0.63869   0.57778   0.44154   0.00000  Uiso   1.00
C67    C     0.59601   0.60479   0.38105   0.00000  Uiso   1.00
C68    C     0.53912   0.63395   0.36059   0.00000  Uiso   1.00
C69    C     0.46922   0.66281   0.37874   0.00000  Uiso   1.00
C70    C     0.42728   0.68709   0.35106   0.00000  Uiso   1.00
C71    C     0.46408   0.67765   0.31061   0.00000  Uiso   1.00
C72    C     0.43339   0.69907   0.27681   0.00000  Uiso   1.00
C73    C     0.36365   0.73157   0.27891   0.00000  Uiso   1.00
C74    C     0.35534   0.74514   0.23908   0.00000  Uiso   1.00
C75    C     0.42281   0.71961   0.21123   0.00000  Uiso   1.00
C76    C     0.53936   0.66217   0.21843   0.00000  Uiso   1.00
C77    C     0.28676   0.77802   0.24118   0.00000  Uiso   1.00
C78    C     0.25972   0.80067   0.20735   0.00000  Uiso   1.00
C79    C     0.30017   0.79247   0.16687   0.00000  Uiso   1.00
C80    C     0.26462   0.81891   0.13915   0.00000  Uiso   1.00
C81    C     0.19572   0.84809   0.15732   0.00000  Uiso   1.00
C82    C     0.14691   0.87998   0.13684   0.00000  Uiso   1.00
C83    C     0.18058   0.81483   0.29955   0.00000  Uiso   1.00
C84    C     0.29656   0.75721   0.30676   0.00000  Uiso   1.00
C85    C     0.69300   0.59499   0.47293   0.00000  Uiso   1.00
C86    C     0.73796   0.56804   0.49705   0.00000  Uiso   1.00
C87    C     0.12514   0.91417   0.07633   0.00000  Uiso   1.00
C88    C     0.00904   0.91735   0.08319   0.00000  Uiso   1.00
C89    C     0.19662   0.93911   0.04439   0.00000  Uiso   1.00
C90    C     0.96695   0.94471   0.05854   0.00000  Uiso   1.00
C91    C     0.15375   0.96701   0.02049   0.00000  Uiso   1.00
C92    C     0.03796   0.96995   0.02655   0.00000  Uiso   1.00
C93    C     0.85255   0.51735   0.54447   0.00000  Uiso   1.00
C94    C     0.80712   0.54024   0.57768   0.00000  Uiso   1.00
C95    C     0.87586   0.56393   0.60155   0.00000  Uiso   1.00
C96    C     0.99393   0.56501   0.59318   0.00000  Uiso   1.00
C97    C     0.05687   0.62401   0.63164   0.00000  Uiso   1.00
C98    C     0.13411   0.64383   0.65729   0.00000  Uiso   1.00
C99    C     0.22315   0.62607   0.66935   0.00000  Uiso   1.00
C100   C     0.28346   0.65333   0.69389   0.00000  Uiso   1.00
C101   C     0.24226   0.69297   0.70153   0.00000  Uiso   1.00
C102   C     0.29094   0.72633   0.72582   0.00000  Uiso   1.00
C103   C     0.38545   0.72488   0.74465   0.00000  Uiso   1.00
C104   C     0.40769   0.76409   0.76569   0.00000  Uiso   1.00
C105   C     0.32256   0.79080   0.75955   0.00000  Uiso   1.00
C106   C     0.16058   0.78271   0.72302   0.00000  Uiso   1.00
C107   C     0.50264   0.76277   0.78430   0.00000  Uiso   1.00
C108   C     0.55173   0.79631   0.80833   0.00000  Uiso   1.00
C109   C     0.50878   0.83551   0.81659   0.00000  Uiso   1.00
C110   C     0.56989   0.86315   0.84061   0.00000  Uiso   1.00
C111   C     0.66165   0.84625   0.85149   0.00000  Uiso   1.00
C112   C     0.74026   0.86685   0.87630   0.00000  Uiso   1.00
C113   C     0.63314   0.70647   0.78707   0.00000  Uiso   1.00
C114   C     0.47074   0.69821   0.75071   0.00000  Uiso   1.00
C115   C     0.03957   0.54093   0.56102   0.00000  Uiso   1.00
C116   C     0.97006   0.51803   0.53692   0.00000  Uiso   1.00
C117   C     0.79758   0.92566   0.91614   0.00000  Uiso   1.00
C118   C     0.83098   0.90374   0.94779   0.00000  Uiso   1.00
C119   C     0.82701   0.97133   0.91205   0.00000  Uiso   1.00
C120   C     0.89156   0.92697   0.97446   0.00000  Uiso   1.00
C121   C     0.88902   0.99401   0.93844   0.00000  Uiso   1.00
C122   C     0.92124   0.97245   0.97064   0.00000  Uiso   1.00
N123   N     0.41974   0.38517   0.62991   0.00000  Uiso   1.00
N124   N     0.86253   0.31659   0.74294   0.00000  Uiso   1.00
N125   N     0.88823   0.18713   0.78285   0.00000  Uiso   1.00
N126   N     0.33532   0.11943   0.89942   0.00000  Uiso   1.00
N127   N     0.02269   0.37853   0.41703   0.00000  Uiso   1.00
N128   N     0.29258   0.29201   0.23552   0.00000  Uiso   1.00
N129   N     0.45915   0.19605   0.28396   0.00000  Uiso   1.00
N130   N     0.70196   0.10063   0.10294   0.00000  Uiso   1.00
N131   N     0.58969   0.60573   0.41954   0.00000  Uiso   1.00
N132   N     0.46771   0.69219   0.23618   0.00000  Uiso   1.00
N133   N     0.25199   0.78475   0.28181   0.00000  Uiso   1.00
N134   N     0.17117   0.88511   0.09824   0.00000  Uiso   1.00
N135   N     0.06721   0.58635   0.61711   0.00000  Uiso   1.00
N136   N     0.25435   0.76591   0.73503   0.00000  Uiso   1.00
N137   N     0.53931   0.72321   0.77507   0.00000  Uiso   1.00
N138   N     0.72937   0.90464   0.89041   0.00000  Uiso   1.00
S139   S     0.10208   0.36768   0.68776   0.00000  Uiso   1.00
S140   S     0.65098   0.13685   0.83977   0.00000  Uiso   1.00
S141   S     0.15150   0.34681   0.30679   0.00000  Uiso   1.00
S142   S     0.59528   0.13966   0.21281   0.00000  Uiso   1.00
S143   S     0.55054   0.63787   0.30896   0.00000  Uiso   1.00
S144   S     0.17677   0.84163   0.20900   0.00000  Uiso   1.00
S145   S     0.12781   0.69447   0.67720   0.00000  Uiso   1.00
S146   S     0.66910   0.79578   0.83130   0.00000  Uiso   1.00
O147   O     0.67852   0.29875   0.77815   0.00000  Uiso   1.00
O148   O     0.07195   0.20485   0.74737   0.00000  Uiso   1.00
O149   O     0.36980   0.26529   0.17437   0.00000  Uiso   1.00
O150   O     0.38213   0.22283   0.34510   0.00000  Uiso   1.00
O151   O     0.44225   0.71923   0.17421   0.00000  Uiso   1.00
O152   O     0.27717   0.75762   0.34379   0.00000  Uiso   1.00
O153   O     0.30570   0.82695   0.77143   0.00000  Uiso   1.00
O154   O     0.48737   0.66201   0.73894   0.00000  Uiso   1.00
H155   H     0.53617   0.48129   0.51939   0.00000  Uiso   1.00
H156   H     0.38283   0.43603   0.56822   0.00000  Uiso   1.00
H157   H     0.29485   0.42583   0.63637   0.00000  Uiso   1.00
H158   H     0.34102   0.30783   0.66911   0.00000  Uiso   1.00
H159   H     0.16456   0.25958   0.71383   0.00000  Uiso   1.00
H160   H     0.92067   0.38728   0.72685   0.00000  Uiso   1.00
H161   H     0.59492   0.24357   0.80923   0.00000  Uiso   1.00
H162   H     0.41385   0.19915   0.85489   0.00000  Uiso   1.00
H163   H     0.46050   0.07902   0.89224   0.00000  Uiso   1.00
H164   H     0.99045   0.13830   0.80027   0.00000  Uiso   1.00
H165   H     0.63849   0.39729   0.63370   0.00000  Uiso   1.00
H166   H     0.79044   0.44433   0.58640   0.00000  Uiso   1.00
H167   H     0.28814   0.03129   0.88919   0.00000  Uiso   1.00
H168   H     0.19527   0.14124   0.96228   0.00000  Uiso   1.00
H169   H     0.92728   0.51455   0.44899   0.00000  Uiso   1.00
H170   H     0.03505   0.46658   0.40336   0.00000  Uiso   1.00
H171   H     0.01413   0.40412   0.35976   0.00000  Uiso   1.00
H172   H     0.15920   0.31805   0.41148   0.00000  Uiso   1.00
H173   H     0.27998   0.27037   0.36205   0.00000  Uiso   1.00
H174   H     0.24835   0.35826   0.22678   0.00000  Uiso   1.00
H175   H     0.46487   0.21732   0.16115   0.00000  Uiso   1.00
H176   H     0.57494   0.16929   0.10865   0.00000  Uiso   1.00
H177   H     0.73055   0.08167   0.16000   0.00000  Uiso   1.00
H178   H     0.56280   0.17517   0.32731   0.00000  Uiso   1.00
H179   H     0.86634   0.35243   0.48074   0.00000  Uiso   1.00
H180   H     0.75350   0.40003   0.52467   0.00000  Uiso   1.00
H181   H     0.66295   0.46965   0.45467   0.00000  Uiso   1.00
H182   H     0.58593   0.51806   0.41012   0.00000  Uiso   1.00
H183   H     0.64597   0.58121   0.36304   0.00000  Uiso   1.00
H184   H     0.45165   0.66473   0.41285   0.00000  Uiso   1.00
H185   H     0.36940   0.71156   0.36220   0.00000  Uiso   1.00
H186   H     0.63314   0.66808   0.22005   0.00000  Uiso   1.00
H187   H     0.35603   0.76641   0.15946   0.00000  Uiso   1.00
H188   H     0.29210   0.81536   0.10553   0.00000  Uiso   1.00
H189   H     0.08739   0.90035   0.15493   0.00000  Uiso   1.00
H190   H     0.21790   0.84448   0.31516   0.00000  Uiso   1.00
H191   H     0.70048   0.63121   0.47879   0.00000  Uiso   1.00
H192   H     0.78413   0.58324   0.52140   0.00000  Uiso   1.00
H193   H     0.94965   0.89756   0.10888   0.00000  Uiso   1.00
H194   H     0.29028   0.93659   0.03790   0.00000  Uiso   1.00
H195   H     0.71213   0.53963   0.58552   0.00000  Uiso   1.00
H196   H     0.83683   0.58246   0.62786   0.00000  Uiso   1.00
H197   H     0.98714   0.64176   0.62437   0.00000  Uiso   1.00
H198   H     0.24023   0.59258   0.65913   0.00000  Uiso   1.00
H199   H     0.35778   0.64250   0.70552   0.00000  Uiso   1.00
H200   H     0.12907   0.81204   0.73837   0.00000  Uiso   1.00
H201   H     0.43155   0.84209   0.80403   0.00000  Uiso   1.00
H202   H     0.54310   0.89575   0.84936   0.00000  Uiso   1.00
H203   H     0.81124   0.84960   0.88322   0.00000  Uiso   1.00
H204   H     0.67571   0.72254   0.81192   0.00000  Uiso   1.00
H205   H     0.13408   0.54004   0.55450   0.00000  Uiso   1.00
H206   H     0.01015   0.49964   0.51070   0.00000  Uiso   1.00
H207   H     0.80000   0.98986   0.88703   0.00000  Uiso   1.00
H208   H     0.91027   0.08450   0.11487   0.00000  Uiso   1.00
H209   H     0.64273   0.05613   0.04116   0.00000  Uiso   1.00
H210   H     0.80855   0.86689   0.95170   0.00000  Uiso   1.00
H211   H     0.13117  -0.01912   0.93324   0.00000  Uiso   1.00
H212   H     0.04471   0.08969   1.00731   0.00000  Uiso   1.00
H213   H     1.03217   0.04081   0.06805   0.00000  Uiso   1.00
H214   H     0.76349   0.01060  -0.00345   0.00000  Uiso   1.00
H215   H     0.87319   0.94709   0.06399   0.00000  Uiso   1.00
H216   H     0.21282   0.98798  -0.00451   0.00000  Uiso   1.00
H217   H     0.91802   0.90908   1.00000   0.00000  Uiso   1.00
H218   H     0.91486   1.03072   0.93432   0.00000  Uiso   1.00
loop_
_geom_bond_atom_site_label_1
_geom_bond_atom_site_label_2
_geom_bond_distance
_geom_bond_site_symmetry_2
_ccdc_geom_bond_type
C1     C122    1.551   .     S
C1     C32     1.551   1_665 S
C1     C62     1.550   1_566 S
C1     C92     1.549   1_656 S
C2     C3      1.551   .     S
C2     C33     1.551   .     S
C2     C63     1.549   .     S
C2     C93     1.551   .     S
C3     C4      1.407   .     D
C3     C26     1.414   .     S
C4     C5      1.398   .     S
C4     H155    1.140   .     S
C5     C6      1.412   .     D
C5     H156    1.140   .     S
C6     C25     1.413   .     S
C6     N123    1.401   .     S
C7     C8      1.458   .     S
C7     N123    1.292   .     D
C7     H157    1.140   .     S
C8     C9      1.406   .     D
C8     S139    1.728   .     S
C9     C10     1.405   .     S
C9     H158    1.140   .     S
C10    C11     1.413   .     D
C10    H159    1.140   .     S
C11    S139    1.740   .     S
C11    C12     1.448   1_455 S
C12    C13     1.412   .     D
C12    N124    1.394   .     S
C12    C11     1.448   1_655 S
C13    C14     1.432   .     S
C13    C24     1.464   .     S
C14    C15     1.465   .     S
C14    C17     1.413   .     D
C15    N124    1.423   .     S
C15    O147    1.234   .     D
C16    N124    1.442   .     D
C16    H160    1.140   .     S
C17    C18     1.448   .     S
C17    N125    1.394   .     S
C18    C19     1.413   .     D
C18    S140    1.740   .     S
C19    C20     1.406   .     S
C19    H161    1.140   .     S
C20    C21     1.406   .     D
C20    H162    1.140   .     S
C21    C22     1.458   .     S
C21    S140    1.728   .     S
C22    N126    1.291   .     D
C22    H163    1.140   .     S
C23    N125    1.442   .     D
C23    H164    1.140   .     S
C24    N125    1.423   .     S
C24    O148    1.234   1_655 D
C25    C26     1.393   .     D
C25    H165    1.140   .     S
C26    H166    1.140   .     S
C27    C28     1.414   .     S
C27    C29     1.410   .     D
C27    N126    1.402   .     S
C28    C30     1.395   .     D
C28    H167    1.140   .     S
C29    C31     1.396   .     S
C29    H168    1.140   .     S
C30    C32     1.414   .     S
C30    H211    1.140   .     S
C31    C32     1.408   .     D
C31    H212    1.140   .     S
C32    C1      1.551   1_445 S
C33    C34     1.413   .     D
C33    C56     1.409   .     S
C34    C35     1.396   .     S
C34    H169    1.140   .     S
C35    C36     1.414   .     D
C35    H170    1.140   1_655 S
C36    C55     1.411   .     S
C36    N127    1.401   1_655 S
C37    C38     1.459   .     S
C37    N127    1.290   .     D
C37    H171    1.140   .     S
C38    C39     1.406   .     D
C38    S141    1.728   .     S
C39    C40     1.405   .     S
C39    H172    1.140   .     S
C40    C41     1.412   .     D
C40    H173    1.140   .     S
C41    C42     1.448   .     S
C41    S141    1.741   .     S
C42    C43     1.413   .     D
C42    N128    1.394   .     S
C43    C44     1.432   .     S
C43    C54     1.465   .     S
C44    C45     1.465   .     S
C44    C47     1.413   .     D
C45    N128    1.423   .     S
C45    O149    1.234   .     D
C46    N128    1.442   .     D
C46    H174    1.140   .     S
C47    C48     1.448   .     S
C47    N129    1.394   .     S
C48    C49     1.413   .     D
C48    S142    1.741   .     S
C49    C50     1.405   .     S
C49    H175    1.140   .     S
C50    C51     1.406   .     D
C50    H176    1.140   .     S
C51    C52     1.459   .     S
C51    S142    1.728   .     S
C52    N130    1.290   .     D
C52    H177    1.140   .     S
C53    N129    1.442   .     D
C53    H178    1.140   .     S
C54    N129    1.423   .     S
C54    O150    1.234   .     D
C55    C56     1.395   .     D
C55    H179    1.140   .     S
C56    H180    1.140   .     S
C57    C58     1.414   .     D
C57    C59     1.411   .     S
C57    N130    1.401   .     S
C58    C60     1.396   .     S
C58    H208    1.140   .     S
C59    C61     1.396   .     D
C59    H209    1.140   .     S
C60    C62     1.413   .     D
C60    H213    1.140   .     S
C61    C62     1.408   .     S
C61    H214    1.140   .     S
C62    C1      1.550   1_544 S
C63    C64     1.413   .     D
C63    C86     1.408   .     S
C64    C65     1.396   .     S
C64    H181    1.140   .     S
C65    C66     1.413   .     D
C65    H182    1.140   .     S
C66    C85     1.410   .     S
C66    N131    1.402   .     S
C67    C68     1.458   .     S
C67    N131    1.290   .     D
C67    H183    1.140   .     S
C68    C69     1.406   .     D
C68    S143    1.728   .     S
C69    C70     1.405   .     S
C69    H184    1.140   .     S
C70    C71     1.413   .     D
C70    H185    1.140   .     S
C71    C72     1.448   .     S
C71    S143    1.740   .     S
C72    C73     1.413   .     D
C72    N132    1.394   .     S
C73    C74     1.431   .     S
C73    C84     1.464   .     S
C74    C75     1.465   .     S
C74    C77     1.412   .     D
C75    N132    1.423   .     S
C75    O151    1.234   .     D
C76    N132    1.442   .     D
C76    H186    1.140   .     S
C77    C78     1.448   .     S
C77    N133    1.394   .     S
C78    C79     1.413   .     D
C78    S144    1.740   .     S
C79    C80     1.406   .     S
C79    H187    1.140   .     S
C80    C81     1.406   .     D
C80    H188    1.140   .     S
C81    C82     1.458   .     S
C81    S144    1.728   .     S
C82    N134    1.290   .     D
C82    H189    1.140   .     S
C83    N133    1.441   .     D
C83    H190    1.140   .     S
C84    N133    1.423   .     S
C84    O152    1.234   .     D
C85    C86     1.396   .     D
C85    H191    1.140   .     S
C86    H192    1.140   .     S
C87    C88     1.413   .     S
C87    C89     1.410   .     D
C87    N134    1.402   .     S
C88    C90     1.396   1_455 D
C88    H193    1.140   1_455 S
C89    C91     1.396   .     S
C89    H194    1.140   .     S
C90    H215    1.140   .     S
C90    C88     1.396   1_655 D
C90    C92     1.413   1_655 S
C91    C92     1.408   .     D
C91    H216    1.140   .     S
C92    C1      1.549   1_454 S
C92    C90     1.413   1_455 S
C93    C94     1.414   .     D
C93    C116    1.408   .     S
C94    C95     1.395   .     S
C94    H195    1.140   .     S
C95    C96     1.414   .     D
C95    H196    1.140   .     S
C96    C115    1.411   1_655 S
C96    N135    1.402   1_655 S
C97    C98     1.458   .     S
C97    N135    1.292   .     D
C97    H197    1.140   1_455 S
C98    C99     1.406   .     D
C98    S145    1.728   .     S
C99    C100    1.406   .     S
C99    H198    1.140   .     S
C100   C101    1.412   .     D
C100   H199    1.140   .     S
C101   C102    1.448   .     S
C101   S145    1.740   .     S
C102   C103    1.413   .     D
C102   N136    1.394   .     S
C103   C104    1.432   .     S
C103   C114    1.464   .     S
C104   C105    1.464   .     S
C104   C107    1.413   .     D
C105   N136    1.423   .     S
C105   O153    1.234   .     D
C106   N136    1.442   .     D
C106   H200    1.140   .     S
C107   C108    1.448   .     S
C107   N137    1.394   .     S
C108   C109    1.412   .     D
C108   S146    1.741   .     S
C109   C110    1.406   .     S
C109   H201    1.140   .     S
C110   C111    1.406   .     D
C110   H202    1.140   .     S
C111   C112    1.458   .     S
C111   S146    1.729   .     S
C112   N138    1.291   .     D
C112   H203    1.140   .     S
C113   N137    1.442   .     D
C113   H204    1.140   .     S
C114   N137    1.424   .     S
C114   O154    1.234   .     D
C115   H205    1.140   .     S
C115   C96     1.411   1_455 S
C115   C116    1.396   1_455 D
C116   C115    1.396   1_655 D
C116   H206    1.140   1_655 S
C117   C118    1.412   .     D
C117   C119    1.413   .     S
C117   N138    1.401   .     S
C118   C120    1.398   .     S
C118   H210    1.140   .     S
C119   C121    1.393   .     D
C119   H207    1.140   .     S
C120   C122    1.407   .     D
C120   H217    1.140   .     S
C121   C122    1.414   .     S
C121   H218    1.140   .     S
N127   C36     1.401   1_455 S
N135   C96     1.402   1_455 S
O148   C24     1.234   1_455 D
H170   C35     1.140   1_455 S
H193   C88     1.140   1_655 S
H197   C97     1.140   1_655 S
H206   C116    1.140   1_455 S
