data_1178
_audit_creation_date              2023-09-08
_audit_creation_method            'Materials Studio'
_symmetry_space_group_name_H-M    'P1'
_symmetry_Int_Tables_number       1
_symmetry_cell_setting            triclinic
loop_
_symmetry_equiv_pos_as_xyz
  x,y,z
_cell_length_a                    16.8300
_cell_length_b                    29.1100
_cell_length_c                    7.6400
_cell_angle_alpha                 90.0000
_cell_angle_beta                  90.0000
_cell_angle_gamma                 90.0000
loop_
_atom_site_label
_atom_site_type_symbol
_atom_site_fract_x
_atom_site_fract_y
_atom_site_fract_z
_atom_site_U_iso_or_equiv
_atom_site_adp_type
_atom_site_occupancy
C1     C     0.41730   0.56260   0.35580   0.00000  Uiso   1.00
C2     C     0.54120   0.59040   0.14530   0.00000  Uiso   1.00
C3     C     0.40710   0.59820   0.23770   0.00000  Uiso   1.00
C4     C     0.46860   0.61210   0.13140   0.00000  Uiso   1.00
C5     C     0.98660   0.83940   0.37060   0.00000  Uiso   1.00
C6     C     0.96240   0.80880   0.24230   0.00000  Uiso   1.00
C7     C     0.99330   0.81450   0.07560   0.00000  Uiso   1.00
C8     C     0.93590   0.76590   0.28870   0.00000  Uiso   1.00
C9     C     0.98940   0.77990   0.95140   0.00000  Uiso   1.00
C10    C     0.93340   0.73100   0.16610   0.00000  Uiso   1.00
C11    C     0.57360   0.50290   0.61780   0.00000  Uiso   1.00
C12    C     0.95460   0.73850   0.99340   0.00000  Uiso   1.00
C13    C     0.94450   0.70510   0.87720   0.00000  Uiso   1.00
C14    C     0.87050   0.70750   0.79160   0.00000  Uiso   1.00
C15    C     0.81300   0.73830   0.84910   0.00000  Uiso   1.00
C16    C     0.74070   0.74250   0.76430   0.00000  Uiso   1.00
C17    C     0.72100   0.71170   0.63660   0.00000  Uiso   1.00
C18    C     0.67260   0.77040   0.01740   0.00000  Uiso   1.00
C19    C     0.63620   0.70670   0.38860   0.00000  Uiso   1.00
C20    C     0.77710   0.68090   0.57760   0.00000  Uiso   1.00
C21    C     0.85210   0.67910   0.65340   0.00000  Uiso   1.00
C22    C     0.59310   0.46750   0.72960   0.00000  Uiso   1.00
C23    C     0.90690   0.64750   0.59490   0.00000  Uiso   1.00
C24    C     0.98370   0.64700   0.66630   0.00000  Uiso   1.00
C25    C     0.00350   0.67630   0.80580   0.00000  Uiso   1.00
C26    C     0.04070   0.61720   0.60110   0.00000  Uiso   1.00
C27    C     0.07840   0.67300   0.88120   0.00000  Uiso   1.00
C28    C     0.11710   0.61720   0.66800   0.00000  Uiso   1.00
C29    C     0.13520   0.64430   0.81020   0.00000  Uiso   1.00
C30    C     0.22060   0.66040   0.04960   0.00000  Uiso   1.00
C31    C     0.20820   0.56010   0.76230   0.00000  Uiso   1.00
C32    C     0.88530   0.62130   0.45370   0.00000  Uiso   1.00
C33    C     0.61220   0.54460   0.63480   0.00000  Uiso   1.00
C34    C     0.93100   0.62250   0.30340   0.00000  Uiso   1.00
C35    C     0.91380   0.59400   0.16300   0.00000  Uiso   1.00
C36    C     0.82350   0.59010   0.46500   0.00000  Uiso   1.00
C37    C     0.80650   0.56170   0.32480   0.00000  Uiso   1.00
C38    C     0.85090   0.56380   0.17230   0.00000  Uiso   1.00
C39    C     0.82920   0.53650   0.03100   0.00000  Uiso   1.00
C40    C     0.66830   0.55140   0.76450   0.00000  Uiso   1.00
C41    C     0.65050   0.47400   0.85680   0.00000  Uiso   1.00
C42    C     0.68670   0.51640   0.87930   0.00000  Uiso   1.00
C43    C     0.48940   0.54020   0.36910   0.00000  Uiso   1.00
C44    C     0.55150   0.55470   0.26350   0.00000  Uiso   1.00
H45    H     0.36550   0.55180   0.44250   0.00000  Uiso   1.00
H46    H     0.59290   0.60170   0.05940   0.00000  Uiso   1.00
H47    H     0.34730   0.61640   0.22770   0.00000  Uiso   1.00
H48    H     0.46140   0.36050   0.81860   0.00000  Uiso   1.00
H49    H     0.47750   0.34870   0.54180   0.00000  Uiso   1.00
H50    H     0.58410   0.25900   0.92870   0.00000  Uiso   1.00
H51    H     0.48530   0.28570   0.31480   0.00000  Uiso   1.00
H52    H     0.58670   0.19540   0.70990   0.00000  Uiso   1.00
H53    H     0.32490   0.73920   0.46850   0.00000  Uiso   1.00
H54    H     0.85550   0.23690   0.56310   0.00000  Uiso   1.00
H55    H     0.86740   0.30040   0.55490   0.00000  Uiso   1.00
H56    H     0.76690   0.27480   0.58250   0.00000  Uiso   1.00
H57    H     0.33980   0.32800   0.34490   0.00000  Uiso   1.00
H58    H     0.32970   0.26470   0.31960   0.00000  Uiso   1.00
H59    H     0.42950   0.29070   0.35380   0.00000  Uiso   1.00
H60    H     0.26150   0.84320   0.96520   0.00000  Uiso   1.00
H61    H     0.56200   0.43290   0.71740   0.00000  Uiso   1.00
H62    H     0.52480   0.90770   0.99130   0.00000  Uiso   1.00
H63    H     0.59330   0.80590   0.50260   0.00000  Uiso   1.00
H64    H     0.74150   0.30740   0.03380   0.00000  Uiso   1.00
H65    H     0.74740   0.36500   0.13880   0.00000  Uiso   1.00
H66    H     0.83900   0.33000   0.10990   0.00000  Uiso   1.00
H67    H     0.72520   0.43810   0.73690   0.00000  Uiso   1.00
H68    H     0.80610   0.42180   0.89080   0.00000  Uiso   1.00
H69    H     0.81110   0.47740   0.77080   0.00000  Uiso   1.00
H70    H     0.59800   0.57390   0.54110   0.00000  Uiso   1.00
H71    H     0.98350   0.64710   0.29400   0.00000  Uiso   1.00
H72    H     0.95190   0.59550   0.03970   0.00000  Uiso   1.00
H73    H     0.78650   0.58790   0.58980   0.00000  Uiso   1.00
H74    H     0.75540   0.53610   0.33400   0.00000  Uiso   1.00
H75    H     0.88290   0.52870   0.94520   0.00000  Uiso   1.00
H76    H     0.69930   0.58610   0.77650   0.00000  Uiso   1.00
H77    H     0.66780   0.44390   0.94400   0.00000  Uiso   1.00
H78    H     0.61190   0.53720   0.27320   0.00000  Uiso   1.00
N79    N     0.24550   0.48100   0.98620   0.00000  Uiso   1.00
N80    N     0.46010   0.65350   0.02830   0.00000  Uiso   1.00
O81    O     0.68210   0.76940   0.83570   0.00000  Uiso   1.00
O82    O     0.64550   0.71120   0.56910   0.00000  Uiso   1.00
O83    O     0.16830   0.58130   0.62760   0.00000  Uiso   1.00
O84    O     0.20850   0.64070   0.88870   0.00000  Uiso   1.00
C85    C     0.58270   0.43740   0.35580   0.00000  Uiso   1.00
C86    C     0.45880   0.40960   0.14530   0.00000  Uiso   1.00
C87    C     0.59290   0.40180   0.23770   0.00000  Uiso   1.00
C88    C     0.53140   0.38790   0.13140   0.00000  Uiso   1.00
C89    C     0.01340   0.16060   0.37060   0.00000  Uiso   1.00
C90    C     0.03760   0.19120   0.24230   0.00000  Uiso   1.00
C91    C     0.00670   0.18550   0.07560   0.00000  Uiso   1.00
C92    C     0.06410   0.23410   0.28870   0.00000  Uiso   1.00
C93    C     0.01060   0.22010   0.95140   0.00000  Uiso   1.00
C94    C     0.06660   0.26900   0.16610   0.00000  Uiso   1.00
C95    C     0.42640   0.49710   0.61780   0.00000  Uiso   1.00
C96    C     0.04540   0.26150   0.99340   0.00000  Uiso   1.00
C97    C     0.05550   0.29490   0.87720   0.00000  Uiso   1.00
C98    C     0.12950   0.29250   0.79160   0.00000  Uiso   1.00
C99    C     0.18700   0.26170   0.84910   0.00000  Uiso   1.00
C100   C     0.25930   0.25750   0.76430   0.00000  Uiso   1.00
C101   C     0.27900   0.28830   0.63660   0.00000  Uiso   1.00
C102   C     0.32740   0.22960   0.01740   0.00000  Uiso   1.00
C103   C     0.36380   0.29330   0.38860   0.00000  Uiso   1.00
C104   C     0.22290   0.31910   0.57760   0.00000  Uiso   1.00
C105   C     0.14790   0.32090   0.65340   0.00000  Uiso   1.00
C106   C     0.40690   0.53250   0.72960   0.00000  Uiso   1.00
C107   C     0.09310   0.35250   0.59490   0.00000  Uiso   1.00
C108   C     0.01630   0.35300   0.66630   0.00000  Uiso   1.00
C109   C     0.99650   0.32370   0.80580   0.00000  Uiso   1.00
C110   C     0.95930   0.38280   0.60110   0.00000  Uiso   1.00
C111   C     0.92160   0.32700   0.88120   0.00000  Uiso   1.00
C112   C     0.88290   0.38280   0.66800   0.00000  Uiso   1.00
C113   C     0.86480   0.35570   0.81020   0.00000  Uiso   1.00
C114   C     0.77940   0.33960   0.04960   0.00000  Uiso   1.00
C115   C     0.79180   0.43990   0.76230   0.00000  Uiso   1.00
C116   C     0.11470   0.37870   0.45370   0.00000  Uiso   1.00
C117   C     0.38780   0.45540   0.63480   0.00000  Uiso   1.00
C118   C     0.06900   0.37750   0.30340   0.00000  Uiso   1.00
C119   C     0.08620   0.40600   0.16300   0.00000  Uiso   1.00
C120   C     0.17650   0.40990   0.46500   0.00000  Uiso   1.00
C121   C     0.19350   0.43830   0.32480   0.00000  Uiso   1.00
C122   C     0.14910   0.43620   0.17230   0.00000  Uiso   1.00
C123   C     0.17080   0.46350   0.03100   0.00000  Uiso   1.00
C124   C     0.33170   0.44860   0.76450   0.00000  Uiso   1.00
C125   C     0.34950   0.52600   0.85680   0.00000  Uiso   1.00
C126   C     0.31330   0.48360   0.87930   0.00000  Uiso   1.00
C127   C     0.51060   0.45980   0.36910   0.00000  Uiso   1.00
C128   C     0.44850   0.44530   0.26350   0.00000  Uiso   1.00
H129   H     0.63450   0.44820   0.44250   0.00000  Uiso   1.00
H130   H     0.40710   0.39830   0.05940   0.00000  Uiso   1.00
H131   H     0.65270   0.38360   0.22770   0.00000  Uiso   1.00
H132   H     0.53860   0.63950   0.81860   0.00000  Uiso   1.00
H133   H     0.52250   0.65130   0.54180   0.00000  Uiso   1.00
H134   H     0.41590   0.74100   0.92870   0.00000  Uiso   1.00
H135   H     0.51470   0.71430   0.31480   0.00000  Uiso   1.00
H136   H     0.41330   0.80460   0.70990   0.00000  Uiso   1.00
H137   H     0.67510   0.26080   0.46850   0.00000  Uiso   1.00
H138   H     0.14450   0.76310   0.56310   0.00000  Uiso   1.00
H139   H     0.13260   0.69960   0.55490   0.00000  Uiso   1.00
H140   H     0.23310   0.72520   0.58250   0.00000  Uiso   1.00
H141   H     0.66020   0.67200   0.34490   0.00000  Uiso   1.00
H142   H     0.67030   0.73530   0.31960   0.00000  Uiso   1.00
H143   H     0.57050   0.70930   0.35380   0.00000  Uiso   1.00
H144   H     0.73850   0.15680   0.96520   0.00000  Uiso   1.00
H145   H     0.43800   0.56710   0.71740   0.00000  Uiso   1.00
H146   H     0.47520   0.09230   0.99130   0.00000  Uiso   1.00
H147   H     0.40670   0.19410   0.50260   0.00000  Uiso   1.00
H148   H     0.25850   0.69260   0.03380   0.00000  Uiso   1.00
H149   H     0.25260   0.63500   0.13880   0.00000  Uiso   1.00
H150   H     0.16100   0.67000   0.10990   0.00000  Uiso   1.00
H151   H     0.27480   0.56190   0.73690   0.00000  Uiso   1.00
H152   H     0.19390   0.57820   0.89080   0.00000  Uiso   1.00
H153   H     0.18890   0.52260   0.77080   0.00000  Uiso   1.00
H154   H     0.40200   0.42610   0.54110   0.00000  Uiso   1.00
H155   H     0.01650   0.35290   0.29400   0.00000  Uiso   1.00
H156   H     0.04810   0.40450   0.03970   0.00000  Uiso   1.00
H157   H     0.21350   0.41210   0.58980   0.00000  Uiso   1.00
H158   H     0.24460   0.46390   0.33400   0.00000  Uiso   1.00
H159   H     0.11710   0.47130   0.94520   0.00000  Uiso   1.00
H160   H     0.30070   0.41390   0.77650   0.00000  Uiso   1.00
H161   H     0.33220   0.55610   0.94400   0.00000  Uiso   1.00
H162   H     0.38810   0.46280   0.27320   0.00000  Uiso   1.00
N163   N     0.75450   0.51900   0.98620   0.00000  Uiso   1.00
N164   N     0.53990   0.34650   0.02830   0.00000  Uiso   1.00
O165   O     0.31790   0.23060   0.83570   0.00000  Uiso   1.00
O166   O     0.35450   0.28880   0.56910   0.00000  Uiso   1.00
O167   O     0.83170   0.41870   0.62760   0.00000  Uiso   1.00
O168   O     0.79150   0.35930   0.88870   0.00000  Uiso   1.00
C169   C     0.91730   0.93740   0.85580   0.00000  Uiso   1.00
C170   C     0.04120   0.90960   0.64530   0.00000  Uiso   1.00
C171   C     0.90710   0.90180   0.73770   0.00000  Uiso   1.00
C172   C     0.96860   0.88790   0.63140   0.00000  Uiso   1.00
C173   C     0.48660   0.66060   0.87060   0.00000  Uiso   1.00
C174   C     0.46240   0.69120   0.74230   0.00000  Uiso   1.00
C175   C     0.49330   0.68550   0.57560   0.00000  Uiso   1.00
C176   C     0.43590   0.73410   0.78870   0.00000  Uiso   1.00
C177   C     0.48940   0.72010   0.45140   0.00000  Uiso   1.00
C178   C     0.43340   0.76900   0.66610   0.00000  Uiso   1.00
C179   C     0.07360   0.99710   0.11780   0.00000  Uiso   1.00
C180   C     0.45460   0.76150   0.49340   0.00000  Uiso   1.00
C181   C     0.44450   0.79490   0.37720   0.00000  Uiso   1.00
C182   C     0.37050   0.79250   0.29160   0.00000  Uiso   1.00
C183   C     0.31300   0.76170   0.34910   0.00000  Uiso   1.00
C184   C     0.24070   0.75750   0.26430   0.00000  Uiso   1.00
C185   C     0.22100   0.78830   0.13660   0.00000  Uiso   1.00
C186   C     0.17260   0.72960   0.51740   0.00000  Uiso   1.00
C187   C     0.13620   0.79330   0.88860   0.00000  Uiso   1.00
C188   C     0.27710   0.81910   0.07760   0.00000  Uiso   1.00
C189   C     0.35210   0.82090   0.15340   0.00000  Uiso   1.00
C190   C     0.09310   0.03250   0.22960   0.00000  Uiso   1.00
C191   C     0.40690   0.85250   0.09490   0.00000  Uiso   1.00
C192   C     0.48370   0.85300   0.16630   0.00000  Uiso   1.00
C193   C     0.50350   0.82370   0.30580   0.00000  Uiso   1.00
C194   C     0.54070   0.88280   0.10110   0.00000  Uiso   1.00
C195   C     0.57840   0.82700   0.38120   0.00000  Uiso   1.00
C196   C     0.61710   0.88280   0.16800   0.00000  Uiso   1.00
C197   C     0.63520   0.85570   0.31020   0.00000  Uiso   1.00
C198   C     0.72060   0.83960   0.54960   0.00000  Uiso   1.00
C199   C     0.70820   0.93990   0.26230   0.00000  Uiso   1.00
C200   C     0.38530   0.87870   0.95370   0.00000  Uiso   1.00
C201   C     0.11220   0.95540   0.13480   0.00000  Uiso   1.00
C202   C     0.43100   0.87750   0.80340   0.00000  Uiso   1.00
C203   C     0.41380   0.90600   0.66300   0.00000  Uiso   1.00
C204   C     0.32350   0.90990   0.96500   0.00000  Uiso   1.00
C205   C     0.30650   0.93830   0.82480   0.00000  Uiso   1.00
C206   C     0.35090   0.93620   0.67230   0.00000  Uiso   1.00
C207   C     0.32920   0.96350   0.53100   0.00000  Uiso   1.00
C208   C     0.16830   0.94860   0.26450   0.00000  Uiso   1.00
C209   C     0.15050   0.02600   0.35680   0.00000  Uiso   1.00
C210   C     0.18670   0.98360   0.37930   0.00000  Uiso   1.00
C211   C     0.98940   0.95980   0.86910   0.00000  Uiso   1.00
C212   C     0.05150   0.94530   0.76350   0.00000  Uiso   1.00
H213   H     0.86550   0.94820   0.94250   0.00000  Uiso   1.00
H214   H     0.09290   0.89830   0.55940   0.00000  Uiso   1.00
H215   H     0.84730   0.88360   0.72770   0.00000  Uiso   1.00
H216   H     0.96140   0.13950   0.31860   0.00000  Uiso   1.00
H217   H     0.97750   0.15130   0.04180   0.00000  Uiso   1.00
H218   H     0.08410   0.24100   0.42870   0.00000  Uiso   1.00
H219   H     0.98530   0.21430   0.81480   0.00000  Uiso   1.00
H220   H     0.08670   0.30460   0.20990   0.00000  Uiso   1.00
H221   H     0.82490   0.76080   0.96850   0.00000  Uiso   1.00
H222   H     0.35550   0.26310   0.06310   0.00000  Uiso   1.00
H223   H     0.36740   0.19960   0.05490   0.00000  Uiso   1.00
H224   H     0.26690   0.22520   0.08250   0.00000  Uiso   1.00
H225   H     0.83980   0.17200   0.84490   0.00000  Uiso   1.00
H226   H     0.82970   0.23530   0.81960   0.00000  Uiso   1.00
H227   H     0.92950   0.20930   0.85380   0.00000  Uiso   1.00
H228   H     0.76150   0.65680   0.46520   0.00000  Uiso   1.00
H229   H     0.06200   0.06710   0.21740   0.00000  Uiso   1.00
H230   H     0.02480   0.59230   0.49130   0.00000  Uiso   1.00
H231   H     0.09330   0.69410   0.00260   0.00000  Uiso   1.00
H232   H     0.24150   0.19260   0.53380   0.00000  Uiso   1.00
H233   H     0.24740   0.13500   0.63880   0.00000  Uiso   1.00
H234   H     0.33900   0.17000   0.60990   0.00000  Uiso   1.00
H235   H     0.22520   0.06190   0.23690   0.00000  Uiso   1.00
H236   H     0.30610   0.07820   0.39080   0.00000  Uiso   1.00
H237   H     0.31110   0.02260   0.27080   0.00000  Uiso   1.00
H238   H     0.09800   0.92610   0.04110   0.00000  Uiso   1.00
H239   H     0.48350   0.85290   0.79400   0.00000  Uiso   1.00
H240   H     0.45190   0.90450   0.53970   0.00000  Uiso   1.00
H241   H     0.28650   0.91210   0.08980   0.00000  Uiso   1.00
H242   H     0.25540   0.96390   0.83400   0.00000  Uiso   1.00
H243   H     0.38290   0.97130   0.44520   0.00000  Uiso   1.00
H244   H     0.19930   0.91390   0.27650   0.00000  Uiso   1.00
H245   H     0.16780   0.05610   0.44400   0.00000  Uiso   1.00
H246   H     0.11190   0.96280   0.77320   0.00000  Uiso   1.00
N247   N     0.74550   0.01900   0.48620   0.00000  Uiso   1.00
N248   N     0.96010   0.84650   0.52830   0.00000  Uiso   1.00
O249   O     0.18210   0.73060   0.33570   0.00000  Uiso   1.00
O250   O     0.14550   0.78880   0.06910   0.00000  Uiso   1.00
O251   O     0.66830   0.91870   0.12760   0.00000  Uiso   1.00
O252   O     0.70850   0.85930   0.38870   0.00000  Uiso   1.00
C253   C     0.08270   0.06260   0.85580   0.00000  Uiso   1.00
C254   C     0.95880   0.09040   0.64530   0.00000  Uiso   1.00
C255   C     0.09290   0.09820   0.73770   0.00000  Uiso   1.00
C256   C     0.03140   0.11210   0.63140   0.00000  Uiso   1.00
C257   C     0.51340   0.33940   0.87060   0.00000  Uiso   1.00
C258   C     0.53760   0.30880   0.74230   0.00000  Uiso   1.00
C259   C     0.50670   0.31450   0.57560   0.00000  Uiso   1.00
C260   C     0.56410   0.26590   0.78870   0.00000  Uiso   1.00
C261   C     0.51060   0.27990   0.45140   0.00000  Uiso   1.00
C262   C     0.56660   0.23100   0.66610   0.00000  Uiso   1.00
C263   C     0.92640   0.00290   0.11780   0.00000  Uiso   1.00
C264   C     0.54540   0.23850   0.49340   0.00000  Uiso   1.00
C265   C     0.55550   0.20510   0.37720   0.00000  Uiso   1.00
C266   C     0.62950   0.20750   0.29160   0.00000  Uiso   1.00
C267   C     0.68700   0.23830   0.34910   0.00000  Uiso   1.00
C268   C     0.75930   0.24250   0.26430   0.00000  Uiso   1.00
C269   C     0.77900   0.21170   0.13660   0.00000  Uiso   1.00
C270   C     0.82740   0.27040   0.51740   0.00000  Uiso   1.00
C271   C     0.86380   0.20670   0.88860   0.00000  Uiso   1.00
C272   C     0.72290   0.18090   0.07760   0.00000  Uiso   1.00
C273   C     0.64790   0.17910   0.15340   0.00000  Uiso   1.00
C274   C     0.90690   0.96750   0.22960   0.00000  Uiso   1.00
C275   C     0.59310   0.14750   0.09490   0.00000  Uiso   1.00
C276   C     0.51630   0.14700   0.16630   0.00000  Uiso   1.00
C277   C     0.49650   0.17630   0.30580   0.00000  Uiso   1.00
C278   C     0.45930   0.11720   0.10110   0.00000  Uiso   1.00
C279   C     0.42160   0.17300   0.38120   0.00000  Uiso   1.00
C280   C     0.38290   0.11720   0.16800   0.00000  Uiso   1.00
C281   C     0.36480   0.14430   0.31020   0.00000  Uiso   1.00
C282   C     0.27940   0.16040   0.54960   0.00000  Uiso   1.00
C283   C     0.29180   0.06010   0.26230   0.00000  Uiso   1.00
C284   C     0.61470   0.12130   0.95370   0.00000  Uiso   1.00
C285   C     0.88780   0.04460   0.13480   0.00000  Uiso   1.00
C286   C     0.56900   0.12250   0.80340   0.00000  Uiso   1.00
C287   C     0.58620   0.09400   0.66300   0.00000  Uiso   1.00
C288   C     0.67650   0.09010   0.96500   0.00000  Uiso   1.00
C289   C     0.69350   0.06170   0.82480   0.00000  Uiso   1.00
C290   C     0.64910   0.06380   0.67230   0.00000  Uiso   1.00
C291   C     0.67080   0.03650   0.53100   0.00000  Uiso   1.00
C292   C     0.83170   0.05140   0.26450   0.00000  Uiso   1.00
C293   C     0.84950   0.97400   0.35680   0.00000  Uiso   1.00
C294   C     0.81330   0.01640   0.37930   0.00000  Uiso   1.00
C295   C     0.01060   0.04020   0.86910   0.00000  Uiso   1.00
C296   C     0.94850   0.05470   0.76350   0.00000  Uiso   1.00
H297   H     0.13450   0.05180   0.94250   0.00000  Uiso   1.00
H298   H     0.90710   0.10170   0.55940   0.00000  Uiso   1.00
H299   H     0.15270   0.11640   0.72770   0.00000  Uiso   1.00
H300   H     0.03860   0.86050   0.31860   0.00000  Uiso   1.00
H301   H     0.02250   0.84870   0.04180   0.00000  Uiso   1.00
H302   H     0.91590   0.75900   0.42870   0.00000  Uiso   1.00
H303   H     0.01470   0.78570   0.81480   0.00000  Uiso   1.00
H304   H     0.91330   0.69540   0.20990   0.00000  Uiso   1.00
H305   H     0.17510   0.23920   0.96850   0.00000  Uiso   1.00
H306   H     0.64450   0.73690   0.06310   0.00000  Uiso   1.00
H307   H     0.63260   0.80040   0.05490   0.00000  Uiso   1.00
H308   H     0.73310   0.77480   0.08250   0.00000  Uiso   1.00
H309   H     0.16020   0.82800   0.84490   0.00000  Uiso   1.00
H310   H     0.17030   0.76470   0.81960   0.00000  Uiso   1.00
H311   H     0.07050   0.79070   0.85380   0.00000  Uiso   1.00
H312   H     0.23850   0.34320   0.46520   0.00000  Uiso   1.00
H313   H     0.93800   0.93290   0.21740   0.00000  Uiso   1.00
H314   H     0.97520   0.40770   0.49130   0.00000  Uiso   1.00
H315   H     0.90670   0.30590   0.00260   0.00000  Uiso   1.00
H316   H     0.75850   0.80740   0.53380   0.00000  Uiso   1.00
H317   H     0.75260   0.86500   0.63880   0.00000  Uiso   1.00
H318   H     0.66100   0.83000   0.60990   0.00000  Uiso   1.00
H319   H     0.77480   0.93810   0.23690   0.00000  Uiso   1.00
H320   H     0.69390   0.92180   0.39080   0.00000  Uiso   1.00
H321   H     0.68890   0.97740   0.27080   0.00000  Uiso   1.00
H322   H     0.90200   0.07390   0.04110   0.00000  Uiso   1.00
H323   H     0.51650   0.14710   0.79400   0.00000  Uiso   1.00
H324   H     0.54810   0.09550   0.53970   0.00000  Uiso   1.00
H325   H     0.71350   0.08790   0.08980   0.00000  Uiso   1.00
H326   H     0.74460   0.03610   0.83400   0.00000  Uiso   1.00
H327   H     0.61710   0.02870   0.44520   0.00000  Uiso   1.00
H328   H     0.80070   0.08610   0.27650   0.00000  Uiso   1.00
H329   H     0.83220   0.94390   0.44400   0.00000  Uiso   1.00
H330   H     0.88810   0.03720   0.77320   0.00000  Uiso   1.00
N331   N     0.25450   0.98100   0.48620   0.00000  Uiso   1.00
N332   N     0.03990   0.15350   0.52830   0.00000  Uiso   1.00
O333   O     0.81790   0.26940   0.33570   0.00000  Uiso   1.00
O334   O     0.85450   0.21120   0.06910   0.00000  Uiso   1.00
O335   O     0.33170   0.08130   0.12760   0.00000  Uiso   1.00
O336   O     0.29150   0.14070   0.38870   0.00000  Uiso   1.00
C337   C     0.00000   0.00000   0.00000   0.00000  Uiso   1.00
C338   C     0.50000   0.50000   0.50000   0.00000  Uiso   1.00
loop_
_geom_bond_atom_site_label_1
_geom_bond_atom_site_label_2
_geom_bond_distance
_geom_bond_site_symmetry_2
_ccdc_geom_bond_type
C1     C3      1.385   .     D
C1     C43     1.381   .     S
C1     H45     1.139   .     S
C2     C4      1.380   .     D
C2     C44     1.388   .     S
C2     H46     1.138   .     S
C3     C4      1.376   .     S
C3     H47     1.140   .     S
C4     N80     1.447   .     S
C5     C6      1.386   .     S
C5     N248    1.301   .     D
C5     H300    1.141   1_655 S
C6     C7      1.386   .     D
C6     C8      1.373   .     S
C7     C9      1.385   1_554 S
C7     H301    1.140   1_655 S
C8     C10     1.382   .     D
C8     H302    1.139   .     S
C9     C12     1.378   .     D
C9     C7      1.385   1_556 S
C9     H303    1.140   1_655 S
C10    H304    1.140   .     S
C10    C12     1.384   1_554 S
C11    C22     1.378   .     S
C11    C33     1.383   .     D
C11    C338    1.533   .     S
C12    C13     1.328   .     S
C12    C10     1.384   1_556 S
C13    C14     1.408   .     D
C13    C25     1.409   1_655 S
C14    C15     1.390   .     S
C14    C21     1.376   .     S
C15    C16     1.384   .     D
C15    H221    1.141   .     S
C16    C17     1.366   .     S
C16    O81     1.372   .     S
C17    C20     1.378   .     D
C17    O82     1.371   .     S
C18    H307    1.139   .     S
C18    H308    1.140   .     S
C18    H306    1.139   .     S
C18    O81     1.398   1_554 S
C19    O82     1.394   .     S
C19    H141    1.138   .     S
C19    H142    1.140   .     S
C19    H143    1.140   .     S
C20    C21     1.390   .     S
C20    H228    1.140   .     S
C21    C23     1.377   .     D
C22    C41     1.383   .     D
C22    H61     1.139   .     S
C23    C24     1.403   .     S
C23    C32     1.370   .     S
C24    C25     1.405   1_655 S
C24    C26     1.386   1_655 D
C25    C27     1.389   .     D
C25    C13     1.409   1_455 S
C25    C24     1.405   1_455 S
C26    C28     1.384   .     S
C26    H230    1.140   .     S
C26    C24     1.386   1_455 D
C27    C29     1.381   .     S
C27    H231    1.140   1_556 S
C28    C29     1.377   .     D
C28    O83     1.389   .     S
C29    O84     1.376   .     S
C30    H148    1.140   .     S
C30    H150    1.139   .     S
C30    H149    1.141   .     S
C30    O84     1.372   1_554 S
C31    O83     1.375   .     S
C31    H151    1.139   .     S
C31    H152    1.140   .     S
C31    H153    1.141   .     S
C32    C34     1.383   .     D
C32    C36     1.384   .     S
C33    C40     1.383   .     S
C33    H70     1.139   .     S
C34    C35     1.387   .     S
C34    H71     1.140   .     S
C35    C38     1.378   .     D
C35    H72     1.140   .     S
C36    C37     1.383   .     D
C36    H73     1.141   .     S
C37    C38     1.385   .     S
C37    H74     1.140   .     S
C38    C39     1.389   .     S
C39    H75     1.139   1_554 S
C39    N163    1.399   1_554 D
C40    C42     1.380   .     D
C40    H76     1.141   .     S
C41    C42     1.387   .     S
C41    H77     1.139   .     S
C42    N163    1.405   .     S
C43    C44     1.386   .     D
C43    C338    1.550   .     S
C44    H78     1.139   .     S
H48    C257    1.141   .     S
H49    C259    1.140   .     S
H50    C260    1.139   .     S
H51    C261    1.140   .     S
H52    C262    1.140   .     S
H53    C183    1.141   .     S
H54    C270    1.139   .     S
H55    C270    1.139   .     S
H56    C270    1.140   .     S
H57    C103    1.138   .     S
H58    C103    1.140   .     S
H59    C103    1.140   .     S
H60    C188    1.140   1_556 S
H62    C194    1.140   1_556 S
H63    C195    1.140   .     S
H64    C114    1.140   .     S
H65    C114    1.141   .     S
H66    C114    1.139   .     S
H67    C115    1.139   .     S
H68    C115    1.140   .     S
H69    C115    1.141   .     S
H75    C39     1.139   1_556 S
N79    C126    1.405   .     S
N79    C123    1.399   1_556 D
N80    C173    1.301   1_554 D
O81    C18     1.398   1_556 S
O84    C30     1.372   1_556 S
C85    C87     1.385   .     D
C85    C127    1.381   .     S
C85    H129    1.139   .     S
C86    C88     1.380   .     D
C86    C128    1.388   .     S
C86    H130    1.138   .     S
C87    C88     1.376   .     S
C87    H131    1.140   .     S
C88    N164    1.447   .     S
C89    C90     1.386   .     S
C89    N332    1.301   .     D
C89    H216    1.141   1_455 S
C90    C91     1.386   .     D
C90    C92     1.373   .     S
C91    C93     1.385   1_554 S
C91    H217    1.140   1_455 S
C92    C94     1.382   .     D
C92    H218    1.139   .     S
C93    C96     1.378   .     D
C93    C91     1.385   1_556 S
C93    H219    1.140   1_455 S
C94    H220    1.140   .     S
C94    C96     1.384   1_554 S
C95    C106    1.378   .     S
C95    C117    1.383   .     D
C95    C338    1.533   .     S
C96    C97     1.328   .     S
C96    C94     1.384   1_556 S
C97    C98     1.408   .     D
C97    C109    1.409   1_455 S
C98    C99     1.390   .     S
C98    C105    1.376   .     S
C99    C100    1.384   .     D
C99    H305    1.141   .     S
C100   C101    1.366   .     S
C100   O165    1.372   .     S
C101   C104    1.378   .     D
C101   O166    1.371   .     S
C102   H223    1.139   .     S
C102   H224    1.140   .     S
C102   H222    1.139   .     S
C102   O165    1.398   1_554 S
C103   O166    1.394   .     S
C104   C105    1.390   .     S
C104   H312    1.140   .     S
C105   C107    1.377   .     D
C106   C125    1.383   .     D
C106   H145    1.139   .     S
C107   C108    1.403   .     S
C107   C116    1.370   .     S
C108   C109    1.405   1_455 S
C108   C110    1.386   1_455 D
C109   C111    1.389   .     D
C109   C97     1.409   1_655 S
C109   C108    1.405   1_655 S
C110   C112    1.384   .     S
C110   H314    1.140   .     S
C110   C108    1.386   1_655 D
C111   C113    1.381   .     S
C111   H315    1.140   1_556 S
C112   C113    1.377   .     D
C112   O167    1.389   .     S
C113   O168    1.376   .     S
C114   O168    1.372   1_554 S
C115   O167    1.375   .     S
C116   C118    1.383   .     D
C116   C120    1.384   .     S
C117   C124    1.383   .     S
C117   H154    1.139   .     S
C118   C119    1.387   .     S
C118   H155    1.140   .     S
C119   C122    1.378   .     D
C119   H156    1.140   .     S
C120   C121    1.383   .     D
C120   H157    1.141   .     S
C121   C122    1.385   .     S
C121   H158    1.140   .     S
C122   C123    1.389   .     S
C123   N79     1.399   1_554 D
C123   H159    1.139   1_554 S
C124   C126    1.380   .     D
C124   H160    1.141   .     S
C125   C126    1.387   .     S
C125   H161    1.139   .     S
C127   C128    1.386   .     D
C127   C338    1.550   .     S
C128   H162    1.139   .     S
H132   C173    1.141   .     S
H133   C175    1.140   .     S
H134   C176    1.139   .     S
H135   C177    1.140   .     S
H136   C178    1.140   .     S
H137   C267    1.141   .     S
H138   C186    1.139   .     S
H139   C186    1.139   .     S
H140   C186    1.140   .     S
H144   C272    1.140   1_556 S
H146   C278    1.140   1_556 S
H147   C279    1.140   .     S
H159   C123    1.139   1_556 S
N163   C39     1.399   1_556 D
N164   C257    1.301   1_554 D
O165   C102    1.398   1_556 S
O168   C114    1.372   1_556 S
C169   C171    1.385   .     S
C169   C211    1.381   .     D
C169   H213    1.139   .     S
C170   C212    1.388   .     D
C170   H214    1.138   .     S
C170   C172    1.380   1_455 S
C171   C172    1.376   .     D
C171   H215    1.140   .     S
C172   N248    1.447   .     S
C172   C170    1.380   1_655 S
C173   C174    1.386   .     S
C173   N80     1.301   1_556 D
C174   C175    1.386   .     D
C174   C176    1.373   .     S
C175   C177    1.385   .     S
C176   C178    1.382   .     D
C177   C180    1.378   .     D
C178   C180    1.384   .     S
C179   C201    1.383   .     D
C179   C190    1.378   1_565 S
C179   C337    1.533   1_565 S
C180   C181    1.328   .     S
C181   C182    1.408   .     D
C181   C193    1.409   .     S
C182   C183    1.390   .     S
C182   C189    1.376   .     S
C183   C184    1.384   .     D
C184   C185    1.366   .     S
C184   O249    1.372   .     S
C185   C188    1.378   .     D
C185   O250    1.371   .     S
C186   O249    1.398   .     S
C187   H309    1.138   .     S
C187   H310    1.140   .     S
C187   H311    1.140   .     S
C187   O250    1.394   1_556 S
C188   C189    1.390   .     S
C188   H60     1.140   1_554 S
C189   C191    1.377   .     D
C190   C209    1.383   .     D
C190   H229    1.139   .     S
C190   C179    1.378   1_545 S
C191   C192    1.403   .     S
C191   C200    1.370   1_554 S
C192   C193    1.405   .     D
C192   C194    1.386   .     S
C193   C195    1.389   .     S
C194   C196    1.384   .     D
C194   H62     1.140   1_554 S
C195   C197    1.381   .     D
C196   C197    1.377   .     S
C196   O251    1.389   .     S
C197   O252    1.376   .     S
C198   O252    1.372   .     S
C198   H316    1.140   .     S
C198   H318    1.139   .     S
C198   H317    1.141   .     S
C199   O251    1.375   .     S
C199   H319    1.139   .     S
C199   H320    1.140   .     S
C199   H321    1.141   .     S
C200   C202    1.383   .     D
C200   C204    1.384   .     S
C200   C191    1.370   1_556 S
C201   C208    1.383   .     S
C201   H238    1.139   .     S
C202   C203    1.387   .     S
C202   H239    1.140   .     S
C203   C206    1.378   .     D
C203   H240    1.140   .     S
C204   C205    1.383   .     D
C204   H241    1.141   1_556 S
C205   C206    1.385   .     S
C205   H242    1.140   .     S
C206   C207    1.389   .     S
C207   H243    1.139   .     S
C207   N331    1.399   .     D
C208   C210    1.380   .     D
C208   H244    1.141   .     S
C209   H245    1.139   .     S
C209   C210    1.387   1_545 S
C210   N331    1.405   .     S
C210   C209    1.387   1_565 S
C211   C212    1.386   1_655 S
C211   C337    1.550   1_666 S
C212   H246    1.139   .     S
C212   C211    1.386   1_455 S
H216   C89     1.141   1_655 S
H217   C91     1.140   1_655 S
H219   C93     1.140   1_655 S
H225   C271    1.138   .     S
H226   C271    1.140   .     S
H227   C271    1.140   .     S
H231   C27     1.140   1_554 S
H232   C282    1.140   .     S
H233   C282    1.141   .     S
H234   C282    1.139   .     S
H235   C283    1.139   .     S
H236   C283    1.140   .     S
H237   C283    1.141   .     S
H241   C204    1.141   1_554 S
N247   C291    1.399   .     D
N247   C294    1.405   .     S
O250   C187    1.394   1_554 S
C253   C255    1.385   .     S
C253   C295    1.381   .     D
C253   H297    1.139   .     S
C254   C296    1.388   .     D
C254   H298    1.138   .     S
C254   C256    1.380   1_655 S
C255   C256    1.376   .     D
C255   H299    1.140   .     S
C256   N332    1.447   .     S
C256   C254    1.380   1_455 S
C257   C258    1.386   .     S
C257   N164    1.301   1_556 D
C258   C259    1.386   .     D
C258   C260    1.373   .     S
C259   C261    1.385   .     S
C260   C262    1.382   .     D
C261   C264    1.378   .     D
C262   C264    1.384   .     S
C263   C285    1.383   .     D
C263   C274    1.378   1_545 S
C263   C337    1.533   1_655 S
C264   C265    1.328   .     S
C265   C266    1.408   .     D
C265   C277    1.409   .     S
C266   C267    1.390   .     S
C266   C273    1.376   .     S
C267   C268    1.384   .     D
C268   C269    1.366   .     S
C268   O333    1.372   .     S
C269   C272    1.378   .     D
C269   O334    1.371   .     S
C270   O333    1.398   .     S
C271   O334    1.394   1_556 S
C272   C273    1.390   .     S
C272   H144    1.140   1_554 S
C273   C275    1.377   .     D
C274   C293    1.383   .     D
C274   H313    1.139   .     S
C274   C263    1.378   1_565 S
C275   C276    1.403   .     S
C275   C284    1.370   1_554 S
C276   C277    1.405   .     D
C276   C278    1.386   .     S
C277   C279    1.389   .     S
C278   C280    1.384   .     D
C278   H146    1.140   1_554 S
C279   C281    1.381   .     D
C280   C281    1.377   .     S
C280   O335    1.389   .     S
C281   O336    1.376   .     S
C282   O336    1.372   .     S
C283   O335    1.375   .     S
C284   C286    1.383   .     D
C284   C288    1.384   .     S
C284   C275    1.370   1_556 S
C285   C292    1.383   .     S
C285   H322    1.139   .     S
C286   C287    1.387   .     S
C286   H323    1.140   .     S
C287   C290    1.378   .     D
C287   H324    1.140   .     S
C288   C289    1.383   .     D
C288   H325    1.141   1_556 S
C289   C290    1.385   .     S
C289   H326    1.140   .     S
C290   C291    1.389   .     S
C291   H327    1.139   .     S
C292   C294    1.380   .     D
C292   H328    1.141   .     S
C293   H329    1.139   .     S
C293   C294    1.387   1_565 S
C294   C293    1.387   1_545 S
C295   C296    1.386   1_455 S
C295   C337    1.550   1_556 S
C296   H330    1.139   .     S
C296   C295    1.386   1_655 S
H300   C5      1.141   1_455 S
H301   C7      1.140   1_455 S
H303   C9      1.140   1_455 S
H315   C111    1.140   1_554 S
H325   C288    1.141   1_554 S
O334   C271    1.394   1_554 S
C337   C179    1.533   1_545 S
C337   C211    1.550   1_444 S
C337   C263    1.533   1_455 S
C337   C295    1.550   1_554 S
