data_118
_audit_creation_date              2023-09-08
_audit_creation_method            'Materials Studio'
_symmetry_space_group_name_H-M    'P1'
_symmetry_Int_Tables_number       1
_symmetry_cell_setting            triclinic
loop_
_symmetry_equiv_pos_as_xyz
  x,y,z
_cell_length_a                    37.4000
_cell_length_b                    37.4000
_cell_length_c                    3.4000
_cell_angle_alpha                 90.0000
_cell_angle_beta                  90.0000
_cell_angle_gamma                 120.0000
loop_
_atom_site_label
_atom_site_type_symbol
_atom_site_fract_x
_atom_site_fract_y
_atom_site_fract_z
_atom_site_U_iso_or_equiv
_atom_site_adp_type
_atom_site_occupancy
C1     C     0.55103   0.10915   0.50000   0.00000  Uiso   1.00
C2     C     0.89085   0.44188   0.50000   0.00000  Uiso   1.00
C3     C     0.55812   0.44897   0.50000   0.00000  Uiso   1.00
C4     C     0.44897   0.89085   0.50000   0.00000  Uiso   1.00
C5     C     0.10915   0.55812   0.50000   0.00000  Uiso   1.00
C6     C     0.44188   0.55103   0.50000   0.00000  Uiso   1.00
O7     O     0.35533   0.77097   0.50000   0.00000  Uiso   1.00
O8     O     0.22904   0.58437   0.50000   0.00000  Uiso   1.00
O9     O     0.41563   0.64467   0.50000   0.00000  Uiso   1.00
O10    O     0.64467   0.22904   0.50000   0.00000  Uiso   1.00
O11    O     0.77097   0.41563   0.50000   0.00000  Uiso   1.00
O12    O     0.58437   0.35533   0.50000   0.00000  Uiso   1.00
C13    C     0.17854   0.62342   0.50000   0.00000  Uiso   1.00
C14    C     0.37658   0.55512   0.50000   0.00000  Uiso   1.00
C15    C     0.44488   0.82146   0.50000   0.00000  Uiso   1.00
C16    C     0.82146   0.37658   0.50000   0.00000  Uiso   1.00
C17    C     0.62342   0.44488   0.50000   0.00000  Uiso   1.00
C18    C     0.55512   0.17854   0.50000   0.00000  Uiso   1.00
C19    C     0.21946   0.64220   0.50000   0.00000  Uiso   1.00
C20    C     0.35780   0.57726   0.50000   0.00000  Uiso   1.00
C21    C     0.42274   0.78054   0.50000   0.00000  Uiso   1.00
C22    C     0.78054   0.35780   0.50000   0.00000  Uiso   1.00
C23    C     0.64220   0.42274   0.50000   0.00000  Uiso   1.00
C24    C     0.57726   0.21946   0.50000   0.00000  Uiso   1.00
H25    H     0.16532   0.64330   0.50000   0.00000  Uiso   1.00
H26    H     0.35670   0.52203   0.50000   0.00000  Uiso   1.00
H27    H     0.47798   0.83468   0.50000   0.00000  Uiso   1.00
H28    H     0.83468   0.35671   0.50000   0.00000  Uiso   1.00
H29    H     0.64330   0.47798   0.50000   0.00000  Uiso   1.00
H30    H     0.52203   0.16532   0.50000   0.00000  Uiso   1.00
H31    H     0.23412   0.67528   0.50000   0.00000  Uiso   1.00
H32    H     0.32472   0.55884   0.50000   0.00000  Uiso   1.00
H33    H     0.44116   0.76588   0.50000   0.00000  Uiso   1.00
H34    H     0.76588   0.32472   0.50000   0.00000  Uiso   1.00
H35    H     0.67528   0.44116   0.50000   0.00000  Uiso   1.00
H36    H     0.55884   0.23412   0.50000   0.00000  Uiso   1.00
C37    C     0.29013   0.64548   0.50000   0.00000  Uiso   1.00
C38    C     0.35452   0.64465   0.50000   0.00000  Uiso   1.00
C39    C     0.35535   0.70987   0.50000   0.00000  Uiso   1.00
C40    C     0.70987   0.35452   0.50000   0.00000  Uiso   1.00
C41    C     0.64548   0.35535   0.50000   0.00000  Uiso   1.00
C42    C     0.64465   0.29013   0.50000   0.00000  Uiso   1.00
N43    N     0.15274   0.57956   0.50000   0.00000  Uiso   1.00
N44    N     0.42044   0.57318   0.50000   0.00000  Uiso   1.00
N45    N     0.42682   0.84726   0.50000   0.00000  Uiso   1.00
N46    N     0.84726   0.42044   0.50000   0.00000  Uiso   1.00
N47    N     0.57956   0.42682   0.50000   0.00000  Uiso   1.00
N48    N     0.57318   0.15274   0.50000   0.00000  Uiso   1.00
C49    C     0.24486   0.62178   0.50000   0.00000  Uiso   1.00
C50    C     0.37822   0.62308   0.50000   0.00000  Uiso   1.00
C51    C     0.37692   0.75515   0.50000   0.00000  Uiso   1.00
C52    C     0.75515   0.37822   0.50000   0.00000  Uiso   1.00
C53    C     0.62178   0.37692   0.50000   0.00000  Uiso   1.00
C54    C     0.62308   0.24486   0.50000   0.00000  Uiso   1.00
C55    C     0.31157   0.62388   0.50000   0.00000  Uiso   1.00
C56    C     0.37612   0.68768   0.50000   0.00000  Uiso   1.00
C57    C     0.31232   0.68844   0.50000   0.00000  Uiso   1.00
C58    C     0.68844   0.37612   0.50000   0.00000  Uiso   1.00
C59    C     0.62388   0.31232   0.50000   0.00000  Uiso   1.00
C60    C     0.68768   0.31157   0.50000   0.00000  Uiso   1.00
H61    H     0.44001   0.60476   0.50000   0.00000  Uiso   1.00
H62    H     0.39524   0.83526   0.50000   0.00000  Uiso   1.00
H63    H     0.16475   0.55999   0.50000   0.00000  Uiso   1.00
H64    H     0.55999   0.39524   0.50000   0.00000  Uiso   1.00
H65    H     0.60476   0.16474   0.50000   0.00000  Uiso   1.00
H66    H     0.83526   0.44001   0.50000   0.00000  Uiso   1.00
H67    H     0.70624   0.40924   0.50000   0.00000  Uiso   1.00
H68    H     0.59076   0.29701   0.50000   0.00000  Uiso   1.00
H69    H     0.70300   0.29376   0.50000   0.00000  Uiso   1.00
H70    H     0.29376   0.59076   0.50000   0.00000  Uiso   1.00
H71    H     0.40924   0.70300   0.50000   0.00000  Uiso   1.00
H72    H     0.29701   0.70624   0.50000   0.00000  Uiso   1.00
C73    C     0.08644   0.57842   0.50000   0.00000  Uiso   1.00
C74    C     0.42158   0.50802   0.50000   0.00000  Uiso   1.00
C75    C     0.49198   0.91356   0.50000   0.00000  Uiso   1.00
C76    C     0.91356   0.42158   0.50000   0.00000  Uiso   1.00
C77    C     0.57842   0.49198   0.50000   0.00000  Uiso   1.00
C78    C     0.50802   0.08644   0.50000   0.00000  Uiso   1.00
C79    C     0.91103   0.48481   0.50000   0.00000  Uiso   1.00
C80    C     0.51519   0.42623   0.50000   0.00000  Uiso   1.00
C81    C     0.57377   0.08897   0.50000   0.00000  Uiso   1.00
C82    C     0.08897   0.51519   0.50000   0.00000  Uiso   1.00
C83    C     0.48481   0.57377   0.50000   0.00000  Uiso   1.00
C84    C     0.42623   0.91104   0.50000   0.00000  Uiso   1.00
H85    H     0.10072   0.61152   0.50000   0.00000  Uiso   1.00
H86    H     0.38848   0.48920   0.50000   0.00000  Uiso   1.00
H87    H     0.51080   0.89929   0.50000   0.00000  Uiso   1.00
H88    H     0.89929   0.38848   0.50000   0.00000  Uiso   1.00
H89    H     0.61152   0.51080   0.50000   0.00000  Uiso   1.00
H90    H     0.48920   0.10072   0.50000   0.00000  Uiso   1.00
H91    H     0.89368   0.50088   0.50000   0.00000  Uiso   1.00
H92    H     0.49912   0.39281   0.50000   0.00000  Uiso   1.00
H93    H     0.60720   0.10632   0.50000   0.00000  Uiso   1.00
H94    H     0.10632   0.49912   0.50000   0.00000  Uiso   1.00
H95    H     0.50088   0.60720   0.50000   0.00000  Uiso   1.00
H96    H     0.39281   0.89368   0.50000   0.00000  Uiso   1.00
C97    C     0.95345   0.50756   0.50000   0.00000  Uiso   1.00
C98    C     0.49245   0.44589   0.50000   0.00000  Uiso   1.00
C99    C     0.55411   0.04655   0.50000   0.00000  Uiso   1.00
C100   C     0.04655   0.49245   0.50000   0.00000  Uiso   1.00
C101   C     0.50755   0.55411   0.50000   0.00000  Uiso   1.00
C102   C     0.44589   0.95345   0.50000   0.00000  Uiso   1.00
C103   C     0.97713   0.48778   0.50000   0.00000  Uiso   1.00
C104   C     0.51222   0.48934   0.50000   0.00000  Uiso   1.00
C105   C     0.51066   0.02287   0.50000   0.00000  Uiso   1.00
C106   C     0.02287   0.51222   0.50000   0.00000  Uiso   1.00
C107   C     0.48778   0.51066   0.50000   0.00000  Uiso   1.00
C108   C     0.48934   0.97713   0.50000   0.00000  Uiso   1.00
C109   C     0.95611   0.44418   0.50000   0.00000  Uiso   1.00
C110   C     0.55582   0.51194   0.50000   0.00000  Uiso   1.00
C111   C     0.48806   0.04389   0.50000   0.00000  Uiso   1.00
C112   C     0.04389   0.55582   0.50000   0.00000  Uiso   1.00
C113   C     0.44418   0.48806   0.50000   0.00000  Uiso   1.00
C114   C     0.51194   0.95611   0.50000   0.00000  Uiso   1.00
H115   H     0.96625   0.54041   0.50000   0.00000  Uiso   1.00
H116   H     0.45959   0.42584   0.50000   0.00000  Uiso   1.00
H117   H     0.57416   0.03375   0.50000   0.00000  Uiso   1.00
H118   H     0.03375   0.45959   0.50000   0.00000  Uiso   1.00
H119   H     0.54041   0.57416   0.50000   0.00000  Uiso   1.00
H120   H     0.42584   0.96625   0.50000   0.00000  Uiso   1.00
H121   H     0.97122   0.42620   0.50000   0.00000  Uiso   1.00
H122   H     0.57380   0.54502   0.50000   0.00000  Uiso   1.00
H123   H     0.45498   0.02878   0.50000   0.00000  Uiso   1.00
H124   H     0.02878   0.57380   0.50000   0.00000  Uiso   1.00
H125   H     0.42620   0.45498   0.50000   0.00000  Uiso   1.00
H126   H     0.54502   0.97122   0.50000   0.00000  Uiso   1.00
loop_
_geom_bond_atom_site_label_1
_geom_bond_atom_site_label_2
_geom_bond_distance
_geom_bond_site_symmetry_2
_ccdc_geom_bond_type
C1     N48     1.412   .     S
C1     C78     1.394   .     S
C1     C81     1.391   .     D
C2     N46     1.412   .     S
C2     C76     1.394   .     D
C2     C79     1.391   .     S
C3     N47     1.412   .     S
C3     C77     1.394   .     D
C3     C80     1.391   .     S
C4     N45     1.412   .     S
C4     C75     1.394   .     S
C4     C84     1.391   .     D
C5     N43     1.412   .     S
C5     C73     1.394   .     D
C5     C82     1.391   .     S
C6     N44     1.412   .     S
C6     C74     1.394   .     D
C6     C83     1.391   .     S
O7     C51     1.216   .     D
O8     C49     1.216   .     D
O9     C50     1.216   .     D
O10    C54     1.216   .     D
O11    C52     1.216   .     D
O12    C53     1.216   .     D
C13    C19     1.327   .     D
C13    H25     1.079   .     S
C13    N43     1.428   .     S
C14    C20     1.327   .     D
C14    H26     1.079   .     S
C14    N44     1.428   .     S
C15    C21     1.327   .     D
C15    H27     1.079   .     S
C15    N45     1.428   .     S
C16    C22     1.327   .     D
C16    H28     1.079   .     S
C16    N46     1.428   .     S
C17    C23     1.327   .     D
C17    H29     1.079   .     S
C17    N47     1.428   .     S
C18    C24     1.327   .     D
C18    H30     1.079   .     S
C18    N48     1.428   .     S
C19    H31     1.074   .     S
C19    C49     1.487   .     S
C20    H32     1.074   .     S
C20    C50     1.487   .     S
C21    H33     1.074   .     S
C21    C51     1.487   .     S
C22    H34     1.074   .     S
C22    C52     1.487   .     S
C23    H35     1.074   .     S
C23    C53     1.487   .     S
C24    H36     1.074   .     S
C24    C54     1.487   .     S
C37    C49     1.467   .     S
C37    C55     1.394   .     D
C37    C57     1.391   .     S
C38    C50     1.467   .     S
C38    C55     1.391   .     S
C38    C56     1.394   .     D
C39    C51     1.467   .     S
C39    C56     1.391   .     S
C39    C57     1.394   .     D
C40    C52     1.467   .     S
C40    C58     1.394   .     D
C40    C60     1.391   .     S
C41    C53     1.467   .     S
C41    C58     1.391   .     S
C41    C59     1.394   .     D
C42    C54     1.467   .     S
C42    C59     1.391   .     S
C42    C60     1.394   .     D
N43    H63     1.032   .     S
N44    H61     1.032   .     S
N45    H62     1.032   .     S
N46    H66     1.032   .     S
N47    H64     1.032   .     S
N48    H65     1.032   .     S
C55    H70     1.074   .     S
C56    H71     1.074   .     S
C57    H72     1.074   .     S
C58    H67     1.074   .     S
C59    H68     1.074   .     S
C60    H69     1.074   .     S
C73    H85     1.075   .     S
C73    C112    1.379   .     S
C74    H86     1.075   .     S
C74    C113    1.379   .     S
C75    H87     1.075   .     S
C75    C114    1.379   .     D
C76    H88     1.075   .     S
C76    C109    1.379   .     S
C77    H89     1.075   .     S
C77    C110    1.379   .     S
C78    H90     1.075   .     S
C78    C111    1.379   .     D
C79    H91     1.083   .     S
C79    C97     1.375   .     D
C80    H92     1.083   .     S
C80    C98     1.375   .     D
C81    H93     1.083   .     S
C81    C99     1.375   .     S
C82    H94     1.083   .     S
C82    C100    1.375   .     D
C83    H95     1.083   .     S
C83    C101    1.375   .     D
C84    H96     1.083   .     S
C84    C102    1.375   .     S
C97    C103    1.409   .     S
C97    H115    1.073   .     S
C98    C104    1.409   .     S
C98    H116    1.073   .     S
C99    C105    1.409   .     D
C99    H117    1.073   .     S
C100   C106    1.409   .     S
C100   H118    1.073   .     S
C101   C107    1.409   .     S
C101   H119    1.073   .     S
C102   C108    1.409   .     D
C102   H120    1.073   .     S
C103   C106    1.483   1_655 S
C103   C109    1.413   .     D
C104   C107    1.483   .     S
C104   C110    1.413   .     D
C105   C108    1.483   1_545 S
C105   C111    1.413   .     S
C106   C103    1.483   1_455 S
C106   C112    1.413   .     D
C107   C113    1.413   .     D
C108   C105    1.483   1_565 S
C108   C114    1.413   .     S
C109   H121    1.073   .     S
C110   H122    1.073   .     S
C111   H123    1.073   .     S
C112   H124    1.073   .     S
C113   H125    1.073   .     S
C114   H126    1.073   .     S
