data_1181
_audit_creation_date              2023-09-08
_audit_creation_method            'Materials Studio'
_symmetry_space_group_name_H-M    'P1'
_symmetry_Int_Tables_number       1
_symmetry_cell_setting            triclinic
loop_
_symmetry_equiv_pos_as_xyz
  x,y,z
_cell_length_a                    25.6328
_cell_length_b                    25.3789
_cell_length_c                    4.8489
_cell_angle_alpha                 90.0000
_cell_angle_beta                  90.0000
_cell_angle_gamma                 90.0000
loop_
_atom_site_label
_atom_site_type_symbol
_atom_site_fract_x
_atom_site_fract_y
_atom_site_fract_z
_atom_site_U_iso_or_equiv
_atom_site_adp_type
_atom_site_occupancy
C11    C     0.48881   1.68729   0.53083   0.00000  Uiso   1.00
C22    C     0.46114   1.71866   0.34174   0.00000  Uiso   1.00
C33    C     0.45765   1.77313   0.37785   0.00000  Uiso   1.00
C44    C     0.51423   1.76724   0.77528   0.00000  Uiso   1.00
C55    C     0.51497   1.71234   0.74969   0.00000  Uiso   1.00
C66    C     0.48487   1.79794   0.59085   0.00000  Uiso   1.00
H77    H     0.44154   1.70084   0.16731   0.00000  Uiso   1.00
H88    H     0.43497   1.79633   0.23376   0.00000  Uiso   1.00
H99    H     0.53505   1.78538   0.94467   0.00000  Uiso   1.00
H1010  H     0.53651   1.68928   0.89931   0.00000  Uiso   1.00
C1111  C     0.51527   0.19306   0.59012   0.00000  Uiso   1.00
C1212  C     0.48588   0.22364   0.77510   0.00000  Uiso   1.00
C1313  C     0.48512   0.27854   0.75058   0.00000  Uiso   1.00
C1414  C     0.53937   0.27257   0.34394   0.00000  Uiso   1.00
C1515  C     0.54270   0.21806   0.37825   0.00000  Uiso   1.00
C1616  C     0.51148   0.30372   0.53296   0.00000  Uiso   1.00
H1717  H     0.46500   0.20541   0.94392   0.00000  Uiso   1.00
H1818  H     0.46345   0.30151   0.90012   0.00000  Uiso   1.00
H1919  H     0.55928   0.29062   0.17105   0.00000  Uiso   1.00
H2020  H     0.56548   0.19499   0.23404   0.00000  Uiso   1.00
C2121  C     0.49192   0.62836   0.49639   0.00000  Uiso   1.00
C2222  C     0.44709   0.59836   0.47734   0.00000  Uiso   1.00
C2323  C     0.54006   0.60433   0.47313   0.00000  Uiso   1.00
C2424  C     0.58566   0.63333   0.46362   0.00000  Uiso   1.00
C2525  C     0.62486   0.59856   0.45867   0.00000  Uiso   1.00
C2626  C     0.60234   0.54910   0.44954   0.00000  Uiso   1.00
N2727  N     0.54906   0.55136   0.45923   0.00000  Uiso   1.00
C2828  C     0.39805   0.62099   0.47441   0.00000  Uiso   1.00
C2929  C     0.36416   0.58202   0.42607   0.00000  Uiso   1.00
C3030  C     0.39258   0.53575   0.42758   0.00000  Uiso   1.00
N3131  N     0.44493   0.54474   0.45177   0.00000  Uiso   1.00
C3232  C     0.50840   0.36262   0.49962   0.00000  Uiso   1.00
C3333  C     0.46042   0.38655   0.46988   0.00000  Uiso   1.00
C3434  C     0.55333   0.39258   0.48626   0.00000  Uiso   1.00
C3535  C     0.60234   0.36989   0.48881   0.00000  Uiso   1.00
C3636  C     0.63645   0.40887   0.44458   0.00000  Uiso   1.00
C3737  C     0.60804   0.45513   0.44236   0.00000  Uiso   1.00
N3838  N     0.55557   0.44617   0.46071   0.00000  Uiso   1.00
C3939  C     0.41489   0.35753   0.45470   0.00000  Uiso   1.00
C4040  C     0.37568   0.39223   0.44164   0.00000  Uiso   1.00
C4141  C     0.39821   0.44174   0.43587   0.00000  Uiso   1.00
N4242  N     0.45139   0.43954   0.45318   0.00000  Uiso   1.00
C4343  C     0.63209   0.50384   0.43696   0.00000  Uiso   1.00
C4444  C     0.36846   0.48701   0.42142   0.00000  Uiso   1.00
C4545  C     0.30978   0.48359   0.42609   0.00000  Uiso   1.00
C4646  C     0.69075   0.50751   0.43980   0.00000  Uiso   1.00
C4747  C     0.71964   0.48297   0.64970   0.00000  Uiso   1.00
C4848  C     0.77408   0.48483   0.65018   0.00000  Uiso   1.00
C4949  C     0.80098   0.51374   0.44722   0.00000  Uiso   1.00
C5050  C     0.77215   0.54009   0.24475   0.00000  Uiso   1.00
C5151  C     0.71773   0.53599   0.23660   0.00000  Uiso   1.00
C5252  C     0.28209   0.45530   0.22405   0.00000  Uiso   1.00
C5353  C     0.22754   0.45231   0.23310   0.00000  Uiso   1.00
C5454  C     0.19960   0.48027   0.43324   0.00000  Uiso   1.00
C5555  C     0.22708   0.50832   0.63605   0.00000  Uiso   1.00
C5656  C     0.28146   0.50874   0.63643   0.00000  Uiso   1.00
N5757  N     0.14369   0.47744   0.43701   0.00000  Uiso   1.00
N5858  N     0.48052   0.85403   0.61918   0.00000  Uiso   1.00
N5959  N     0.51951   0.13694   0.61680   0.00000  Uiso   1.00
C6060  C     0.51710   0.88466   0.71136   0.00000  Uiso   1.00
C6161  C     0.11401   0.51558   0.52372   0.00000  Uiso   1.00
H6262  H     0.59086   0.67558   0.45993   0.00000  Uiso   1.00
H6363  H     0.66558   0.60943   0.46491   0.00000  Uiso   1.00
H6464  H     0.38677   0.66160   0.50256   0.00000  Uiso   1.00
H6565  H     0.32269   0.58782   0.40011   0.00000  Uiso   1.00
Zn6666 Zn    0.50023   0.49546   0.45624   0.00000  Uiso   1.00
H6767  H     0.61343   0.32922   0.51699   0.00000  Uiso   1.00
H6868  H     0.67800   0.40305   0.42272   0.00000  Uiso   1.00
H6969  H     0.40981   0.31525   0.45245   0.00000  Uiso   1.00
H7070  H     0.33499   0.38126   0.44071   0.00000  Uiso   1.00
H7171  H     0.69992   0.46161   0.81264   0.00000  Uiso   1.00
H7272  H     0.79409   0.46450   0.81436   0.00000  Uiso   1.00
H7373  H     0.79204   0.56321   0.08929   0.00000  Uiso   1.00
H7474  H     0.69653   0.55567   0.07305   0.00000  Uiso   1.00
H7575  H     0.30281   0.43516   0.06035   0.00000  Uiso   1.00
H7676  H     0.20696   0.42956   0.07866   0.00000  Uiso   1.00
H7777  H     0.20661   0.52853   0.80007   0.00000  Uiso   1.00
H7878  H     0.30162   0.52966   0.79942   0.00000  Uiso   1.00
N7979  N     0.85697   1.51856   0.44198   0.00000  Uiso   1.00
C8080  C     0.88983   1.49520   0.60548   0.00000  Uiso   1.00
H8181  H     0.13063   0.55378   0.57094   0.00000  Uiso   1.00
C8282  C     0.48325   1.10632   0.71295   0.00000  Uiso   1.00
C8383  C     0.55055   0.97680   0.72789   0.00000  Uiso   1.00
C8484  C     0.50836   0.94179   0.72494   0.00000  Uiso   1.00
N8585  N     0.45897   0.96146   0.72689   0.00000  Uiso   1.00
C8686  C     0.44981   1.01419   0.73103   0.00000  Uiso   1.00
C8787  C     0.49199   1.04920   0.72532   0.00000  Uiso   1.00
N8888  N     0.54139   1.02952   0.72420   0.00000  Uiso   1.00
C8989  C     1.02555   1.55223   0.46889   0.00000  Uiso   1.00
C9090  C     1.05693   1.50926   0.54423   0.00000  Uiso   1.00
C9191  C     1.03299   1.46323   0.64803   0.00000  Uiso   1.00
C9292  C     0.97862   1.46019   0.65923   0.00000  Uiso   1.00
C9393  C     0.94691   1.50273   0.57929   0.00000  Uiso   1.00
C9494  C     0.97114   1.54996   0.48793   0.00000  Uiso   1.00
H9595  H     0.44529   1.12197   0.76730   0.00000  Uiso   1.00
H9696  H     0.55534   0.86903   0.76042   0.00000  Uiso   1.00
H9797  H     0.87657   1.46663   0.75493   0.00000  Uiso   1.00
H9898  H     0.59031   0.96243   0.72606   0.00000  Uiso   1.00
H9999  H     0.41005   1.02857   0.73173   0.00000  Uiso   1.00
H100100 H     1.04363   1.58836   0.39804   0.00000  Uiso   1.00
H101101 H     0.96095   1.42436   0.73668   0.00000  Uiso   1.00
O102102 O     0.06124   0.42066   0.75562   0.00000  Uiso   1.00
O103103 O     0.94372   0.59613   0.42383   0.00000  Uiso   1.00
H104104 H     0.09887   0.42846   0.80157   0.00000  Uiso   1.00
H105105 H     0.90602   0.59712   0.48099   0.00000  Uiso   1.00
loop_
_geom_bond_atom_site_label_1
_geom_bond_atom_site_label_2
_geom_bond_distance
_geom_bond_site_symmetry_2
_ccdc_geom_bond_type
C11    C22     1.406   .     D
C11    C55     1.407   .     S
C11    C2121   1.507   1_565 S
C22    C33     1.396   .     S
C22    H77     1.083   .     S
C33    C66     1.396   .     D
C33    H88     1.083   .     S
C44    C55     1.399   .     D
C44    C66     1.405   .     S
C44    H99     1.082   .     S
C55    H1010   1.083   .     S
C66    N5858   1.434   1_565 S
C1111  C1212   1.405   .     D
C1111  C1515   1.397   .     S
C1111  N5959   1.434   .     S
C1212  C1313   1.399   .     S
C1212  H1717   1.082   .     S
C1313  C1616   1.407   .     D
C1313  H1818   1.084   .     S
C1414  C1515   1.396   .     D
C1414  C1616   1.406   .     S
C1414  H1919   1.083   .     S
C1515  H2020   1.083   .     S
C1616  C3232   1.506   .     S
C2121  C2222   1.382   .     D
C2121  C2323   1.381   .     S
C2121  C11     1.507   1_545 S
C2222  C2828   1.382   .     S
C2222  N3131   1.368   .     S
C2323  C2424   1.382   .     S
C2323  N2727   1.366   .     D
C2424  C2525   1.337   .     D
C2424  H6262   1.081   .     S
C2525  C2626   1.382   .     S
C2525  H6363   1.080   .     S
C2626  N2727   1.368   .     S
C2626  C4343   1.380   .     D
N2727  Zn6666  1.892   .     S
C2828  C2929   1.337   .     D
C2828  H6464   1.079   .     S
C2929  C3030   1.382   .     S
C2929  H6565   1.080   .     S
C3030  N3131   1.366   .     D
C3030  C4444   1.383   .     S
N3131  Zn6666  1.890   .     S
C3232  C3333   1.379   .     S
C3232  C3434   1.382   .     D
C3333  C3939   1.382   .     S
C3333  N4242   1.367   .     D
C3434  C3535   1.382   .     S
C3434  N3838   1.367   .     S
C3535  C3636   1.338   .     D
C3535  H6767   1.079   .     S
C3636  C3737   1.382   .     S
C3636  H6868   1.080   .     S
C3737  N3838   1.367   .     D
C3737  C4343   1.382   .     S
N3838  Zn6666  1.891   .     S
C3939  C4040   1.338   .     D
C3939  H6969   1.081   .     S
C4040  C4141   1.383   .     S
C4040  H7070   1.080   .     S
C4141  N4242   1.367   .     S
C4141  C4444   1.381   .     D
N4242  Zn6666  1.893   .     S
C4343  C4646   1.507   .     S
C4444  C4545   1.507   .     S
C4545  C5252   1.407   .     D
C4545  C5656   1.405   .     S
C4646  C4747   1.404   .     D
C4646  C5151   1.404   .     S
C4747  C4848   1.396   .     S
C4747  H7171   1.083   .     S
C4848  C4949   1.408   .     D
C4848  H7272   1.078   .     S
C4949  C5050   1.399   .     S
C4949  N7979   1.441   1_545 S
C5050  C5151   1.399   .     D
C5050  H7373   1.083   .     S
C5151  H7474   1.083   .     S
C5252  C5353   1.401   .     S
C5252  H7575   1.083   .     S
C5353  C5454   1.399   .     D
C5353  H7676   1.083   .     S
C5454  C5555   1.404   .     S
C5454  N5757   1.435   .     S
C5555  C5656   1.394   .     D
C5555  H7777   1.082   .     S
C5656  H7878   1.083   .     S
N5757  C6161   1.301   .     D
N5858  C6060   1.297   .     D
N5858  C66     1.434   1_545 S
N5959  C8282   1.298   1_545 D
C6060  C8484   1.469   .     S
C6060  H9696   1.084   .     S
C6161  H8181   1.083   .     S
C6161  C9090   1.475   1_445 S
N7979  C8080   1.300   .     D
N7979  C4949   1.441   1_565 S
C8080  C9393   1.481   .     S
C8080  H9797   1.080   .     S
C8282  C8787   1.468   .     S
C8282  H9595   1.084   .     S
C8282  N5959   1.298   1_565 D
C8383  C8484   1.400   .     D
C8383  N8888   1.359   .     S
C8383  H9898   1.082   .     S
C8484  N8585   1.361   .     S
N8585  C8686   1.359   .     D
C8686  C8787   1.400   .     S
C8686  H9999   1.083   .     S
C8787  N8888   1.361   .     D
C8989  C9090   1.403   .     D
C8989  C9494   1.399   .     S
C8989  H100100  1.083   .     S
C9090  C9191   1.412   .     S
C9090  C6161   1.475   1_665 S
C9191  C9292   1.397   .     D
C9191  O102102  1.401   1_665 S
C9292  C9393   1.406   .     S
C9292  H101101  1.083   .     S
C9393  C9494   1.421   .     D
C9494  O103103  1.401   1_565 S
O102102 H104104  1.010   .     S
O102102 C9191   1.401   1_445 S
O103103 H105105  1.006   .     S
O103103 C9494   1.401   1_545 S
