data_1182
_audit_creation_date              2023-09-08
_audit_creation_method            'Materials Studio'
_symmetry_space_group_name_H-M    'P1'
_symmetry_Int_Tables_number       1
_symmetry_cell_setting            triclinic
loop_
_symmetry_equiv_pos_as_xyz
  x,y,z
_cell_length_a                    25.6492
_cell_length_b                    25.3858
_cell_length_c                    4.6832
_cell_angle_alpha                 90.0000
_cell_angle_beta                  90.0000
_cell_angle_gamma                 90.0000
loop_
_atom_site_label
_atom_site_type_symbol
_atom_site_fract_x
_atom_site_fract_y
_atom_site_fract_z
_atom_site_U_iso_or_equiv
_atom_site_adp_type
_atom_site_occupancy
C11    C     0.48667   1.68912   0.57883   0.00000  Uiso   1.00
C22    C     0.45747   1.72024   0.38854   0.00000  Uiso   1.00
C33    C     0.45404   1.77471   0.42485   0.00000  Uiso   1.00
C44    C     0.51372   1.76948   0.82296   0.00000  Uiso   1.00
C55    C     0.51422   1.71456   0.79907   0.00000  Uiso   1.00
C66    C     0.48299   1.79988   0.63726   0.00000  Uiso   1.00
H77    H     0.43623   1.70102   0.20182   0.00000  Uiso   1.00
H88    H     0.42748   1.79895   0.28054   0.00000  Uiso   1.00
H99    H     0.53831   1.78971   0.99353   0.00000  Uiso   1.00
H1010  H     0.53729   1.69037   0.96064   0.00000  Uiso   1.00
C1111  C     0.51720   0.19519   0.63778   0.00000  Uiso   1.00
C1212  C     0.48646   0.22560   0.82336   0.00000  Uiso   1.00
C1313  C     0.48596   0.28053   0.79948   0.00000  Uiso   1.00
C1414  C     0.54270   0.27482   0.38885   0.00000  Uiso   1.00
C1515  C     0.54613   0.22035   0.42531   0.00000  Uiso   1.00
C1616  C     0.51351   0.30596   0.57918   0.00000  Uiso   1.00
H1717  H     0.46180   0.20553   0.99418   0.00000  Uiso   1.00
H1818  H     0.46306   0.30521   0.95955   0.00000  Uiso   1.00
H1919  H     0.56370   0.29460   0.20304   0.00000  Uiso   1.00
H2020  H     0.57280   0.19639   0.28014   0.00000  Uiso   1.00
C2121  C     0.49035   0.63019   0.54202   0.00000  Uiso   1.00
C2222  C     0.44581   0.59967   0.52225   0.00000  Uiso   1.00
C2323  C     0.53867   0.60679   0.51104   0.00000  Uiso   1.00
C2424  C     0.58393   0.63624   0.49755   0.00000  Uiso   1.00
C2525  C     0.62343   0.60196   0.48269   0.00000  Uiso   1.00
C2626  C     0.60139   0.55231   0.46996   0.00000  Uiso   1.00
N2727  N     0.54823   0.55397   0.48929   0.00000  Uiso   1.00
C2828  C     0.39654   0.62169   0.51944   0.00000  Uiso   1.00
C2929  C     0.36332   0.58268   0.45866   0.00000  Uiso   1.00
C3030  C     0.39210   0.53668   0.45903   0.00000  Uiso   1.00
N3131  N     0.44426   0.54617   0.48998   0.00000  Uiso   1.00
C3232  C     0.50982   0.36490   0.54226   0.00000  Uiso   1.00
C3333  C     0.46148   0.38832   0.51171   0.00000  Uiso   1.00
C3434  C     0.55433   0.39541   0.52193   0.00000  Uiso   1.00
C3535  C     0.60359   0.37340   0.51893   0.00000  Uiso   1.00
C3636  C     0.63678   0.41240   0.45756   0.00000  Uiso   1.00
C3737  C     0.60801   0.45840   0.45797   0.00000  Uiso   1.00
N3838  N     0.55587   0.44892   0.48936   0.00000  Uiso   1.00
C3939  C     0.41624   0.35886   0.49841   0.00000  Uiso   1.00
C4040  C     0.37674   0.39313   0.48399   0.00000  Uiso   1.00
C4141  C     0.39876   0.44279   0.47122   0.00000  Uiso   1.00
N4242  N     0.45195   0.44114   0.49014   0.00000  Uiso   1.00
C4343  C     0.63156   0.50741   0.44633   0.00000  Uiso   1.00
C4444  C     0.36857   0.48767   0.44775   0.00000  Uiso   1.00
C4545  C     0.30998   0.48322   0.43561   0.00000  Uiso   1.00
C4646  C     0.69018   0.51183   0.43424   0.00000  Uiso   1.00
C4747  C     0.72144   0.48622   0.63807   0.00000  Uiso   1.00
C4848  C     0.77570   0.48844   0.62206   0.00000  Uiso   1.00
C4949  C     0.80011   0.51905   0.41125   0.00000  Uiso   1.00
C5050  C     0.76927   0.54756   0.21945   0.00000  Uiso   1.00
C5151  C     0.71493   0.54257   0.22416   0.00000  Uiso   1.00
C5252  C     0.28523   0.45250   0.22542   0.00000  Uiso   1.00
C5353  C     0.23090   0.44753   0.22051   0.00000  Uiso   1.00
C5454  C     0.20005   0.47602   0.41228   0.00000  Uiso   1.00
C5555  C     0.22443   0.50664   0.62322   0.00000  Uiso   1.00
C5656  C     0.27869   0.50883   0.63946   0.00000  Uiso   1.00
N5757  N     0.14430   0.47185   0.39458   0.00000  Uiso   1.00
N5858  N     0.47916   0.85604   0.66327   0.00000  Uiso   1.00
N5959  N     0.52102   0.13904   0.66381   0.00000  Uiso   1.00
C6060  C     0.51622   0.88665   0.75277   0.00000  Uiso   1.00
C6161  C     0.11219   0.50874   0.47230   0.00000  Uiso   1.00
H6262  H     0.58183   0.68109   0.50055   0.00000  Uiso   1.00
H6363  H     0.66538   0.61680   0.48257   0.00000  Uiso   1.00
H6464  H     0.39134   0.66550   0.56450   0.00000  Uiso   1.00
H6565  H     0.32040   0.59178   0.41912   0.00000  Uiso   1.00
Co66o66 Co    0.50007   0.49755   0.48971   0.00000  Uiso   1.00
H6767  H     0.60881   0.32960   0.56433   0.00000  Uiso   1.00
H6868  H     0.67969   0.40330   0.41759   0.00000  Uiso   1.00
H6969  H     0.41836   0.31400   0.50119   0.00000  Uiso   1.00
H7070  H     0.33479   0.37830   0.48417   0.00000  Uiso   1.00
H7171  H     0.70250   0.46323   0.81962   0.00000  Uiso   1.00
H7272  H     0.80046   0.46531   0.78067   0.00000  Uiso   1.00
H7373  H     0.78836   0.57506   0.05793   0.00000  Uiso   1.00
H7474  H     0.69069   0.56374   0.05544   0.00000  Uiso   1.00
H7575  H     0.30948   0.43134   0.05670   0.00000  Uiso   1.00
H7676  H     0.21152   0.42013   0.05950   0.00000  Uiso   1.00
H7777  H     0.19987   0.52987   0.78227   0.00000  Uiso   1.00
H7878  H     0.29762   0.53178   0.82120   0.00000  Uiso   1.00
N7979  N     0.85584   1.52329   0.39421   0.00000  Uiso   1.00
C8080  C     0.88792   1.48624   0.47025   0.00000  Uiso   1.00
H8181  H     0.12786   0.54797   0.55382   0.00000  Uiso   1.00
C8282  C     0.48382   1.10845   0.75203   0.00000  Uiso   1.00
C8383  C     0.55023   0.97854   0.76963   0.00000  Uiso   1.00
C8484  C     0.50785   0.94382   0.76444   0.00000  Uiso   1.00
N8585  N     0.45862   0.96380   0.76309   0.00000  Uiso   1.00
C8686  C     0.44977   1.01656   0.76639   0.00000  Uiso   1.00
C8787  C     0.49215   1.05128   0.76401   0.00000  Uiso   1.00
N8888  N     0.54139   1.03130   0.76584   0.00000  Uiso   1.00
C8989  C     1.02366   1.54692   0.46189   0.00000  Uiso   1.00
C9090  C     1.05493   1.50158   0.45868   0.00000  Uiso   1.00
C9191  C     1.03139   1.45136   0.45353   0.00000  Uiso   1.00
C9292  C     0.97643   1.44811   0.45525   0.00000  Uiso   1.00
C9393  C     0.94516   1.49344   0.45754   0.00000  Uiso   1.00
C9494  C     0.96870   1.54367   0.45957   0.00000  Uiso   1.00
H9595  H     0.44483   1.12599   0.81990   0.00000  Uiso   1.00
H9696  H     0.55514   0.86913   0.82206   0.00000  Uiso   1.00
H9797  H     0.87221   1.44685   0.54945   0.00000  Uiso   1.00
H9898  H     0.59171   0.96248   0.77698   0.00000  Uiso   1.00
H9999  H     0.40811   1.03219   0.77106   0.00000  Uiso   1.00
H100100 H     1.04253   1.58757   0.46648   0.00000  Uiso   1.00
H101101 H     0.95649   1.40798   0.45478   0.00000  Uiso   1.00
O102102 O     0.06366   0.40636   0.45848   0.00000  Uiso   1.00
C103103 C     0.03886   0.35654   0.42738   0.00000  Uiso   1.00
C104104 C     0.07927   0.31315   0.44055   0.00000  Uiso   1.00
O105105 O     0.05456   0.26453   0.41046   0.00000  Uiso   1.00
C106106 C     0.09379   0.22745   0.45670   0.00000  Uiso   1.00
C107107 C     0.07100   0.17256   0.43194   0.00000  Uiso   1.00
O108108 O     0.11001   0.13530   0.47946   0.00000  Uiso   1.00
C109109 C     0.08679   0.08726   0.41094   0.00000  Uiso   1.00
O110110 O     0.93637   0.58861   0.47021   0.00000  Uiso   1.00
C111111 C     0.96120   0.63866   0.45726   0.00000  Uiso   1.00
C112112 C     0.92057   0.68181   0.47326   0.00000  Uiso   1.00
O113113 O     0.94527   0.73070   0.46259   0.00000  Uiso   1.00
C114114 C     0.90496   0.76731   0.48534   0.00000  Uiso   1.00
C115115 C     0.92743   0.82247   0.47459   0.00000  Uiso   1.00
O116116 O     0.88725   0.85922   0.49754   0.00000  Uiso   1.00
C117117 C     0.91183   0.90789   0.46669   0.00000  Uiso   1.00
H118118 H     0.01790   0.35493   0.21291   0.00000  Uiso   1.00
H119119 H     0.00939   0.35085   0.60698   0.00000  Uiso   1.00
H120120 H     0.10025   0.31470   0.65496   0.00000  Uiso   1.00
H121121 H     0.10870   0.31870   0.26064   0.00000  Uiso   1.00
H122122 H     0.11084   0.23310   0.67938   0.00000  Uiso   1.00
H123123 H     0.12580   0.23278   0.29034   0.00000  Uiso   1.00
H124124 H     0.05410   0.16687   0.20892   0.00000  Uiso   1.00
H125125 H     0.03882   0.16738   0.59747   0.00000  Uiso   1.00
H126126 H     0.10678   0.05427   0.53463   0.00000  Uiso   1.00
H127127 H     0.09091   0.07970   0.17206   0.00000  Uiso   1.00
H128128 H     0.04369   0.08853   0.47014   0.00000  Uiso   1.00
H129129 H     0.98363   0.64220   0.24797   0.00000  Uiso   1.00
H130130 H     0.98939   0.64279   0.64415   0.00000  Uiso   1.00
H131131 H     0.89796   0.67817   0.68190   0.00000  Uiso   1.00
H132132 H     0.89257   0.67794   0.28540   0.00000  Uiso   1.00
H133133 H     0.88364   0.76137   0.69650   0.00000  Uiso   1.00
H134134 H     0.87650   0.76168   0.30087   0.00000  Uiso   1.00
H135135 H     0.94875   0.82839   0.26340   0.00000  Uiso   1.00
H136136 H     0.95594   0.82803   0.65892   0.00000  Uiso   1.00
H137137 H     0.91868   0.91615   0.23039   0.00000  Uiso   1.00
H138138 H     0.95082   0.90720   0.58348   0.00000  Uiso   1.00
H139139 H     0.88608   0.94009   0.56098   0.00000  Uiso   1.00
loop_
_geom_bond_atom_site_label_1
_geom_bond_atom_site_label_2
_geom_bond_distance
_geom_bond_site_symmetry_2
_ccdc_geom_bond_type
C11    C22     1.407   .     D
C11    C55     1.407   .     S
C11    C2121   1.509   1_565 S
C22    C33     1.396   .     S
C22    H77     1.140   .     S
C33    C66     1.396   .     D
C33    H88     1.140   .     S
C44    C55     1.399   .     D
C44    C66     1.405   .     S
C44    H99     1.140   .     S
C55    H1010   1.140   .     S
C66    N5858   1.434   1_565 S
C1111  C1212   1.405   .     D
C1111  C1515   1.396   .     S
C1111  N5959   1.434   .     S
C1212  C1313   1.399   .     S
C1212  H1717   1.140   .     S
C1313  C1616   1.407   .     D
C1313  H1818   1.140   .     S
C1414  C1515   1.396   .     D
C1414  C1616   1.407   .     S
C1414  H1919   1.140   .     S
C1515  H2020   1.140   .     S
C1616  C3232   1.509   .     S
C2121  C2222   1.383   .     D
C2121  C2323   1.382   .     S
C2121  C11     1.509   1_545 S
C2222  C2828   1.382   .     S
C2222  N3131   1.367   .     S
C2323  C2424   1.382   .     S
C2323  N2727   1.367   .     D
C2424  C2525   1.337   .     D
C2424  H6262   1.140   .     S
C2525  C2626   1.383   .     S
C2525  H6363   1.140   .     S
C2626  N2727   1.367   .     S
C2626  C4343   1.382   .     D
N2727  Co66o66  1.891   .     S
C2828  C2929   1.337   .     D
C2828  H6464   1.140   .     S
C2929  C3030   1.382   .     S
C2929  H6565   1.140   .     S
C3030  N3131   1.367   .     D
C3030  C4444   1.384   .     S
N3131  Co66o66  1.890   .     S
C3232  C3333   1.382   .     S
C3232  C3434   1.383   .     D
C3333  C3939   1.382   .     S
C3333  N4242   1.367   .     D
C3434  C3535   1.382   .     S
C3434  N3838   1.368   .     S
C3535  C3636   1.337   .     D
C3535  H6767   1.140   .     S
C3636  C3737   1.381   .     S
C3636  H6868   1.140   .     S
C3737  N3838   1.367   .     D
C3737  C4343   1.384   .     S
N3838  Co66o66  1.890   .     S
C3939  C4040   1.337   .     D
C3939  H6969   1.140   .     S
C4040  C4141   1.383   .     S
C4040  H7070   1.140   .     S
C4141  N4242   1.368   .     S
C4141  C4444   1.382   .     D
N4242  Co66o66  1.891   .     S
C4343  C4646   1.509   .     S
C4444  C4545   1.508   .     S
C4545  C5252   1.407   .     D
C4545  C5656   1.406   .     S
C4646  C4747   1.406   .     D
C4646  C5151   1.407   .     S
C4747  C4848   1.395   .     S
C4747  H7171   1.140   .     S
C4848  C4949   1.404   .     D
C4848  H7272   1.140   .     S
C4949  C5050   1.399   .     S
C4949  N7979   1.436   1_545 S
C5050  C5151   1.400   .     D
C5050  H7373   1.140   .     S
C5151  H7474   1.140   .     S
C5252  C5353   1.399   .     S
C5252  H7575   1.140   .     S
C5353  C5454   1.398   .     D
C5353  H7676   1.140   .     S
C5454  C5555   1.404   .     S
C5454  N5757   1.436   .     S
C5555  C5656   1.395   .     D
C5555  H7777   1.140   .     S
C5656  H7878   1.140   .     S
N5757  C6161   1.299   .     D
N5858  C6060   1.297   .     D
N5858  C66     1.434   1_545 S
N5959  C8282   1.298   1_545 D
C6060  C8484   1.468   .     S
C6060  H9696   1.140   .     S
C6161  H8181   1.140   .     S
C6161  C9090   1.481   1_445 S
N7979  C8080   1.299   .     D
N7979  C4949   1.436   1_565 S
C8080  C9393   1.481   .     S
C8080  H9797   1.140   .     S
C8282  C8787   1.468   .     S
C8282  H9595   1.140   .     S
C8282  N5959   1.298   1_565 D
C8383  C8484   1.400   .     D
C8383  N8888   1.359   .     S
C8383  H9898   1.140   .     S
C8484  N8585   1.361   .     S
N8585  C8686   1.359   .     D
C8686  C8787   1.399   .     S
C8686  H9999   1.140   .     S
C8787  N8888   1.361   .     D
C8989  C9090   1.403   .     D
C8989  C9494   1.412   .     S
C8989  H100100  1.140   .     S
C9090  C9191   1.411   .     S
C9090  C6161   1.481   1_665 S
C9191  C9292   1.412   .     D
C9191  O102102  1.411   1_665 S
C9292  C9393   1.403   .     S
C9292  H101101  1.140   .     S
C9393  C9494   1.411   .     D
C9494  O110110  1.411   1_565 S
O102102 C103103  1.423   .     S
O102102 C9191   1.411   1_445 S
C103103 C104104  1.514   .     S
C103103 H118118  1.140   .     S
C103103 H119119  1.140   .     S
C104104 O105105  1.395   .     S
C104104 H120120  1.140   .     S
C104104 H121121  1.140   .     S
O105105 C106106  1.395   .     S
C106106 C107107  1.516   .     S
C106106 H122122  1.140   .     S
C106106 H123123  1.140   .     S
C107107 O108108  1.395   .     S
C107107 H124124  1.140   .     S
C107107 H125125  1.140   .     S
O108108 C109109  1.395   .     S
C109109 H126126  1.140   .     S
C109109 H127127  1.140   .     S
C109109 H128128  1.140   .     S
O110110 C111111  1.423   .     S
O110110 C9494   1.411   1_545 S
C111111 C112112  1.514   .     S
C111111 H129129  1.140   .     S
C111111 H130130  1.140   .     S
C112112 O113113  1.394   .     S
C112112 H131131  1.140   .     S
C112112 H132132  1.140   .     S
O113113 C114114  1.394   .     S
C114114 C115115  1.515   .     S
C114114 H133133  1.140   .     S
C114114 H134134  1.140   .     S
C115115 O116116  1.394   .     S
C115115 H135135  1.140   .     S
C115115 H136136  1.140   .     S
O116116 C117117  1.395   .     S
C117117 H137137  1.140   .     S
C117117 H138138  1.140   .     S
C117117 H139139  1.140   .     S
