data_1183
_audit_creation_date              2023-09-08
_audit_creation_method            'Materials Studio'
_symmetry_space_group_name_H-M    'P1'
_symmetry_Int_Tables_number       1
_symmetry_cell_setting            triclinic
loop_
_symmetry_equiv_pos_as_xyz
  x,y,z
_cell_length_a                    43.8870
_cell_length_b                    43.8870
_cell_length_c                    8.4180
_cell_angle_alpha                 90.0000
_cell_angle_beta                  90.0000
_cell_angle_gamma                 120.0000
loop_
_atom_site_label
_atom_site_type_symbol
_atom_site_fract_x
_atom_site_fract_y
_atom_site_fract_z
_atom_site_U_iso_or_equiv
_atom_site_adp_type
_atom_site_occupancy
H1     H     0.62254   0.60618   0.66728   0.00000  Uiso   1.00
C2     C     0.55441   0.46335   0.82331   0.00000  Uiso   1.00
H3     H     0.61472   0.64131   0.60717   0.00000  Uiso   1.00
C4     C     0.49426   0.44647   0.71854   0.00000  Uiso   1.00
O5     O     0.54907   0.51516   0.59087   0.00000  Uiso   1.00
C6     C     0.55668   0.49465   0.48833   0.00000  Uiso   1.00
C7     C     0.57691   0.50927   0.34697   0.00000  Uiso   1.00
H8     H     0.62285   0.55757   0.24997   0.00000  Uiso   1.00
H9     H     0.59517   0.49735   0.12897   0.00000  Uiso   1.00
C10    C     0.57646   0.41142   0.07022   0.00000  Uiso   1.00
C11    C     0.58107   0.35896   0.02537   0.00000  Uiso   1.00
C12    C     0.59710   0.34260  -0.05246   0.00000  Uiso   1.00
C13    C     0.62137   0.38954  -0.24770   0.00000  Uiso   1.00
C14    C     0.61859   0.35839  -0.18618   0.00000  Uiso   1.00
H15    H     0.63755   0.40219  -0.35090   0.00000  Uiso   1.00
C16    C     0.67886   0.36948  -0.24380   0.00000  Uiso   1.00
C17    C     0.51612   0.40443   0.71407   0.00000  Uiso   1.00
H18    H     0.56624   0.49229   0.81047   0.00000  Uiso   1.00
H19    H     0.57584   0.45640   0.82243   0.00000  Uiso   1.00
H20    H     0.50113   0.47414   0.73733   0.00000  Uiso   1.00
H21    H     0.53998   0.40189   0.70319   0.00000  Uiso   1.00
H22    H     0.50680   0.39611   0.83721   0.00000  Uiso   1.00
C23    C     0.59864   0.54772   0.31693   0.00000  Uiso   1.00
N24    N     0.58991   0.56947   0.37532   0.00000  Uiso   1.00
C25    C     0.60674   0.61321   0.58793   0.00000  Uiso   1.00
C26    C     0.54392   0.45857   0.52692   0.00000  Uiso   1.00
C27    C     0.54793   0.43728   0.41231   0.00000  Uiso   1.00
C28    C     0.56524   0.45121   0.26920   0.00000  Uiso   1.00
C29    C     0.58035   0.48699   0.23842   0.00000  Uiso   1.00
H30    H     0.53864   0.40985   0.43444   0.00000  Uiso   1.00
C31    C     0.57054   0.42923   0.15947   0.00000  Uiso   1.00
C32    C     0.58602   0.39110  -0.02989   0.00000  Uiso   1.00
C33    C     0.60493   0.40574  -0.16987   0.00000  Uiso   1.00
H34    H     0.56662   0.34777   0.13442   0.00000  Uiso   1.00
H35    H     0.60810   0.43060  -0.21299   0.00000  Uiso   1.00
H36    H     0.59498   0.31906  -0.00026   0.00000  Uiso   1.00
C37    C     0.64251   0.34564  -0.23964   0.00000  Uiso   1.00
C38    C     0.52730   0.44341   0.69173   0.00000  Uiso   1.00
H39    H     0.68832   0.39739  -0.23126   0.00000  Uiso   1.00
H40    H     0.54142   0.45647   0.94143   0.00000  Uiso   1.00
H41    H     0.47654   0.43604   0.61443   0.00000  Uiso   1.00
H42    H     0.47991   0.43194   0.82661   0.00000  Uiso   1.00
H43    H     0.49551   0.38723   0.62869   0.00000  Uiso   1.00
H44    H     0.39382   0.01636   0.66728   0.00000  Uiso   1.00
C45    C     0.53665   0.09106   0.82331   0.00000  Uiso   1.00
H46    H     0.35869   0.97341   0.60717   0.00000  Uiso   1.00
C47    C     0.55353   0.04779   0.71854   0.00000  Uiso   1.00
O48    O     0.48484   0.03391   0.59087   0.00000  Uiso   1.00
C49    C     0.50535   0.06203   0.48833   0.00000  Uiso   1.00
C50    C     0.49073   0.06764   0.34697   0.00000  Uiso   1.00
H51    H     0.44243   0.06528   0.24997   0.00000  Uiso   1.00
H52    H     0.50265   0.09782   0.12897   0.00000  Uiso   1.00
C53    C     0.58858   0.16504   0.07022   0.00000  Uiso   1.00
C54    C     0.64104   0.22211   0.02537   0.00000  Uiso   1.00
C55    C     0.65740   0.25450  -0.05246   0.00000  Uiso   1.00
C56    C     0.61046   0.23183  -0.24770   0.00000  Uiso   1.00
C57    C     0.64161   0.26020  -0.18618   0.00000  Uiso   1.00
H58    H     0.59781   0.23536  -0.35090   0.00000  Uiso   1.00
C59    C     0.63052   0.30938  -0.24380   0.00000  Uiso   1.00
C60    C     0.59557   0.11169   0.71407   0.00000  Uiso   1.00
H61    H     0.50771   0.07395   0.81047   0.00000  Uiso   1.00
H62    H     0.54360   0.11944   0.82243   0.00000  Uiso   1.00
H63    H     0.52586   0.02699   0.73733   0.00000  Uiso   1.00
H64    H     0.59811   0.13809   0.70319   0.00000  Uiso   1.00
H65    H     0.60389   0.11069   0.83721   0.00000  Uiso   1.00
C66    C     0.45228   0.05092   0.31693   0.00000  Uiso   1.00
N67    N     0.43053   0.02044   0.37532   0.00000  Uiso   1.00
C68    C     0.38679   0.99353   0.58793   0.00000  Uiso   1.00
C69    C     0.54143   0.08535   0.52692   0.00000  Uiso   1.00
C70    C     0.56272   0.11065   0.41231   0.00000  Uiso   1.00
C71    C     0.54879   0.11403   0.26920   0.00000  Uiso   1.00
C72    C     0.51301   0.09336   0.23842   0.00000  Uiso   1.00
H73    H     0.59015   0.12879   0.43444   0.00000  Uiso   1.00
C74    C     0.57077   0.14131   0.15947   0.00000  Uiso   1.00
C75    C     0.60890   0.19492  -0.02989   0.00000  Uiso   1.00
C76    C     0.59426   0.19919  -0.16987   0.00000  Uiso   1.00
H77    H     0.65223   0.21885   0.13442   0.00000  Uiso   1.00
H78    H     0.56940   0.17750  -0.21299   0.00000  Uiso   1.00
H79    H     0.68094   0.27592  -0.00026   0.00000  Uiso   1.00
C80    C     0.65436   0.29687  -0.23964   0.00000  Uiso   1.00
C81    C     0.55659   0.08389   0.69173   0.00000  Uiso   1.00
H82    H     0.60261   0.29093  -0.23126   0.00000  Uiso   1.00
H83    H     0.54353   0.08495   0.94143   0.00000  Uiso   1.00
H84    H     0.56396   0.04050   0.61443   0.00000  Uiso   1.00
H85    H     0.56806   0.04797   0.82661   0.00000  Uiso   1.00
H86    H     0.61277   0.10828   0.62869   0.00000  Uiso   1.00
H87    H     0.98364   0.37746   0.66728   0.00000  Uiso   1.00
C88    C     0.90894   0.44559   0.82331   0.00000  Uiso   1.00
H89    H     0.02659   0.38528   0.60717   0.00000  Uiso   1.00
C90    C     0.95221   0.50574   0.71854   0.00000  Uiso   1.00
O91    O     0.96609   0.45093   0.59087   0.00000  Uiso   1.00
C92    C     0.93797   0.44332   0.48833   0.00000  Uiso   1.00
C93    C     0.93236   0.42309   0.34697   0.00000  Uiso   1.00
H94    H     0.93472   0.37715   0.24997   0.00000  Uiso   1.00
H95    H     0.90218   0.40483   0.12897   0.00000  Uiso   1.00
C96    C     0.83496   0.42354   0.07022   0.00000  Uiso   1.00
C97    C     0.77789   0.41893   0.02537   0.00000  Uiso   1.00
C98    C     0.74550   0.40290  -0.05246   0.00000  Uiso   1.00
C99    C     0.76817   0.37863  -0.24770   0.00000  Uiso   1.00
C100   C     0.73980   0.38141  -0.18618   0.00000  Uiso   1.00
H101   H     0.76464   0.36245  -0.35090   0.00000  Uiso   1.00
C102   C     0.69062   0.32114  -0.24380   0.00000  Uiso   1.00
C103   C     0.88831   0.48388   0.71407   0.00000  Uiso   1.00
H104   H     0.92605   0.43376   0.81047   0.00000  Uiso   1.00
H105   H     0.88056   0.42416   0.82243   0.00000  Uiso   1.00
H106   H     0.97301   0.49887   0.73733   0.00000  Uiso   1.00
H107   H     0.86191   0.46002   0.70319   0.00000  Uiso   1.00
H108   H     0.88931   0.49320   0.83721   0.00000  Uiso   1.00
C109   C     0.94908   0.40136   0.31693   0.00000  Uiso   1.00
N110   N     0.97956   0.41009   0.37532   0.00000  Uiso   1.00
C111   C     0.00647   0.39326   0.58793   0.00000  Uiso   1.00
C112   C     0.91465   0.45608   0.52692   0.00000  Uiso   1.00
C113   C     0.88935   0.45207   0.41231   0.00000  Uiso   1.00
C114   C     0.88597   0.43476   0.26920   0.00000  Uiso   1.00
C115   C     0.90664   0.41965   0.23842   0.00000  Uiso   1.00
H116   H     0.87121   0.46136   0.43444   0.00000  Uiso   1.00
C117   C     0.85869   0.42946   0.15947   0.00000  Uiso   1.00
C118   C     0.80508   0.41398  -0.02989   0.00000  Uiso   1.00
C119   C     0.80081   0.39507  -0.16987   0.00000  Uiso   1.00
H120   H     0.78115   0.43338   0.13442   0.00000  Uiso   1.00
H121   H     0.82250   0.39190  -0.21299   0.00000  Uiso   1.00
H122   H     0.72408   0.40502  -0.00026   0.00000  Uiso   1.00
C123   C     0.70313   0.35749  -0.23964   0.00000  Uiso   1.00
C124   C     0.91611   0.47270   0.69173   0.00000  Uiso   1.00
H125   H     0.70907   0.31168  -0.23126   0.00000  Uiso   1.00
H126   H     0.91505   0.45858   0.94143   0.00000  Uiso   1.00
H127   H     0.95950   0.52346   0.61443   0.00000  Uiso   1.00
H128   H     0.95203   0.52009   0.82661   0.00000  Uiso   1.00
H129   H     0.89172   0.50449   0.62869   0.00000  Uiso   1.00
H130   H     0.60618   0.62254   0.33272   0.00000  Uiso   1.00
C131   C     0.46335   0.55441   0.17669   0.00000  Uiso   1.00
H132   H     0.64131   0.61472   0.39283   0.00000  Uiso   1.00
C133   C     0.44647   0.49426   0.28146   0.00000  Uiso   1.00
O134   O     0.51516   0.54907   0.40913   0.00000  Uiso   1.00
C135   C     0.49465   0.55668   0.51167   0.00000  Uiso   1.00
C136   C     0.50927   0.57691   0.65303   0.00000  Uiso   1.00
H137   H     0.55757   0.62285   0.75003   0.00000  Uiso   1.00
H138   H     0.49735   0.59517   0.87103   0.00000  Uiso   1.00
C139   C     0.41142   0.57646   0.92978   0.00000  Uiso   1.00
C140   C     0.35896   0.58107   0.97463   0.00000  Uiso   1.00
C141   C     0.34260   0.59710   1.05246   0.00000  Uiso   1.00
C142   C     0.38954   0.62137   1.24770   0.00000  Uiso   1.00
C143   C     0.35839   0.61859   1.18618   0.00000  Uiso   1.00
H144   H     0.40219   0.63755   1.35090   0.00000  Uiso   1.00
C145   C     0.36948   0.67886   1.24380   0.00000  Uiso   1.00
C146   C     0.40443   0.51612   0.28593   0.00000  Uiso   1.00
H147   H     0.49229   0.56624   0.18953   0.00000  Uiso   1.00
H148   H     0.45640   0.57584   0.17757   0.00000  Uiso   1.00
H149   H     0.47414   0.50113   0.26267   0.00000  Uiso   1.00
H150   H     0.40189   0.53998   0.29681   0.00000  Uiso   1.00
H151   H     0.39611   0.50680   0.16279   0.00000  Uiso   1.00
C152   C     0.54772   0.59864   0.68307   0.00000  Uiso   1.00
N153   N     0.56947   0.58991   0.62468   0.00000  Uiso   1.00
C154   C     0.61321   0.60674   0.41207   0.00000  Uiso   1.00
C155   C     0.45857   0.54392   0.47308   0.00000  Uiso   1.00
C156   C     0.43728   0.54793   0.58769   0.00000  Uiso   1.00
C157   C     0.45121   0.56524   0.73080   0.00000  Uiso   1.00
C158   C     0.48699   0.58035   0.76158   0.00000  Uiso   1.00
H159   H     0.40985   0.53864   0.56556   0.00000  Uiso   1.00
C160   C     0.42923   0.57054   0.84053   0.00000  Uiso   1.00
C161   C     0.39110   0.58602   1.02989   0.00000  Uiso   1.00
C162   C     0.40574   0.60493   1.16987   0.00000  Uiso   1.00
H163   H     0.34777   0.56662   0.86558   0.00000  Uiso   1.00
H164   H     0.43060   0.60810   1.21299   0.00000  Uiso   1.00
H165   H     0.31906   0.59498   1.00026   0.00000  Uiso   1.00
C166   C     0.34564   0.64251   1.23964   0.00000  Uiso   1.00
C167   C     0.44341   0.52730   0.30827   0.00000  Uiso   1.00
H168   H     0.39739   0.68832   1.23126   0.00000  Uiso   1.00
H169   H     0.45647   0.54142   0.05857   0.00000  Uiso   1.00
H170   H     0.43604   0.47654   0.38557   0.00000  Uiso   1.00
H171   H     0.43194   0.47991   0.17339   0.00000  Uiso   1.00
H172   H     0.38723   0.49551   0.37131   0.00000  Uiso   1.00
H173   H     0.01636   0.39382   0.33272   0.00000  Uiso   1.00
C174   C     0.09106   0.53665   0.17669   0.00000  Uiso   1.00
H175   H     0.97341   0.35869   0.39283   0.00000  Uiso   1.00
C176   C     0.04779   0.55353   0.28146   0.00000  Uiso   1.00
O177   O     0.03391   0.48484   0.40913   0.00000  Uiso   1.00
C178   C     0.06203   0.50535   0.51167   0.00000  Uiso   1.00
C179   C     0.06764   0.49073   0.65303   0.00000  Uiso   1.00
H180   H     0.06528   0.44243   0.75003   0.00000  Uiso   1.00
H181   H     0.09782   0.50265   0.87103   0.00000  Uiso   1.00
C182   C     0.16504   0.58858   0.92978   0.00000  Uiso   1.00
C183   C     0.22211   0.64104   0.97463   0.00000  Uiso   1.00
C184   C     0.25450   0.65740   1.05246   0.00000  Uiso   1.00
C185   C     0.23183   0.61046   1.24770   0.00000  Uiso   1.00
C186   C     0.26020   0.64161   1.18618   0.00000  Uiso   1.00
H187   H     0.23536   0.59781   1.35090   0.00000  Uiso   1.00
C188   C     0.30938   0.63052   1.24380   0.00000  Uiso   1.00
C189   C     0.11169   0.59557   0.28593   0.00000  Uiso   1.00
H190   H     0.07395   0.50771   0.18953   0.00000  Uiso   1.00
H191   H     0.11944   0.54360   0.17757   0.00000  Uiso   1.00
H192   H     0.02699   0.52586   0.26267   0.00000  Uiso   1.00
H193   H     0.13809   0.59811   0.29681   0.00000  Uiso   1.00
H194   H     0.11069   0.60389   0.16279   0.00000  Uiso   1.00
C195   C     0.05092   0.45228   0.68307   0.00000  Uiso   1.00
N196   N     0.02044   0.43053   0.62468   0.00000  Uiso   1.00
C197   C     0.99353   0.38679   0.41207   0.00000  Uiso   1.00
C198   C     0.08535   0.54143   0.47308   0.00000  Uiso   1.00
C199   C     0.11065   0.56272   0.58769   0.00000  Uiso   1.00
C200   C     0.11403   0.54879   0.73080   0.00000  Uiso   1.00
C201   C     0.09336   0.51301   0.76158   0.00000  Uiso   1.00
H202   H     0.12879   0.59015   0.56556   0.00000  Uiso   1.00
C203   C     0.14131   0.57077   0.84053   0.00000  Uiso   1.00
C204   C     0.19492   0.60890   1.02989   0.00000  Uiso   1.00
C205   C     0.19919   0.59426   1.16987   0.00000  Uiso   1.00
H206   H     0.21885   0.65223   0.86558   0.00000  Uiso   1.00
H207   H     0.17750   0.56940   1.21299   0.00000  Uiso   1.00
H208   H     0.27592   0.68094   1.00026   0.00000  Uiso   1.00
C209   C     0.29687   0.65436   1.23964   0.00000  Uiso   1.00
C210   C     0.08389   0.55659   0.30827   0.00000  Uiso   1.00
H211   H     0.29093   0.60261   1.23126   0.00000  Uiso   1.00
H212   H     0.08495   0.54353   0.05857   0.00000  Uiso   1.00
H213   H     0.04050   0.56396   0.38557   0.00000  Uiso   1.00
H214   H     0.04797   0.56806   0.17339   0.00000  Uiso   1.00
H215   H     0.10828   0.61277   0.37131   0.00000  Uiso   1.00
H216   H     0.37746   0.98364   0.33272   0.00000  Uiso   1.00
C217   C     0.44559   0.90894   0.17669   0.00000  Uiso   1.00
H218   H     0.38528   0.02659   0.39283   0.00000  Uiso   1.00
C219   C     0.50574   0.95221   0.28146   0.00000  Uiso   1.00
O220   O     0.45093   0.96609   0.40913   0.00000  Uiso   1.00
C221   C     0.44332   0.93797   0.51167   0.00000  Uiso   1.00
C222   C     0.42309   0.93236   0.65303   0.00000  Uiso   1.00
H223   H     0.37715   0.93472   0.75003   0.00000  Uiso   1.00
H224   H     0.40483   0.90218   0.87103   0.00000  Uiso   1.00
C225   C     0.42354   0.83496   0.92978   0.00000  Uiso   1.00
C226   C     0.41893   0.77789   0.97463   0.00000  Uiso   1.00
C227   C     0.40290   0.74550   1.05246   0.00000  Uiso   1.00
C228   C     0.37863   0.76817   1.24770   0.00000  Uiso   1.00
C229   C     0.38141   0.73980   1.18618   0.00000  Uiso   1.00
H230   H     0.36245   0.76464   1.35090   0.00000  Uiso   1.00
C231   C     0.32114   0.69062   1.24380   0.00000  Uiso   1.00
C232   C     0.48388   0.88831   0.28593   0.00000  Uiso   1.00
H233   H     0.43376   0.92605   0.18953   0.00000  Uiso   1.00
H234   H     0.42416   0.88056   0.17757   0.00000  Uiso   1.00
H235   H     0.49887   0.97301   0.26267   0.00000  Uiso   1.00
H236   H     0.46002   0.86191   0.29681   0.00000  Uiso   1.00
H237   H     0.49320   0.88931   0.16279   0.00000  Uiso   1.00
C238   C     0.40136   0.94908   0.68307   0.00000  Uiso   1.00
N239   N     0.41009   0.97956   0.62468   0.00000  Uiso   1.00
C240   C     0.39326   0.00647   0.41207   0.00000  Uiso   1.00
C241   C     0.45608   0.91465   0.47308   0.00000  Uiso   1.00
C242   C     0.45207   0.88935   0.58769   0.00000  Uiso   1.00
C243   C     0.43476   0.88597   0.73080   0.00000  Uiso   1.00
C244   C     0.41965   0.90664   0.76158   0.00000  Uiso   1.00
H245   H     0.46136   0.87121   0.56556   0.00000  Uiso   1.00
C246   C     0.42946   0.85869   0.84053   0.00000  Uiso   1.00
C247   C     0.41398   0.80508   1.02989   0.00000  Uiso   1.00
C248   C     0.39507   0.80081   1.16987   0.00000  Uiso   1.00
H249   H     0.43338   0.78115   0.86558   0.00000  Uiso   1.00
H250   H     0.39190   0.82250   1.21299   0.00000  Uiso   1.00
H251   H     0.40502   0.72408   1.00026   0.00000  Uiso   1.00
C252   C     0.35749   0.70313   1.23964   0.00000  Uiso   1.00
C253   C     0.47270   0.91611   0.30827   0.00000  Uiso   1.00
H254   H     0.31168   0.70907   1.23126   0.00000  Uiso   1.00
H255   H     0.45858   0.91505   0.05857   0.00000  Uiso   1.00
H256   H     0.52346   0.95950   0.38557   0.00000  Uiso   1.00
H257   H     0.52009   0.95203   0.17339   0.00000  Uiso   1.00
H258   H     0.50449   0.89172   0.37131   0.00000  Uiso   1.00
Zn259  Zn    0.55356   0.55356   0.50000   0.00000  Uiso   1.00
Zn260  Zn    0.44644  -0.00000   0.50000   0.00000  Uiso   1.00
Zn261  Zn    0.00000   0.44644   0.50000   0.00000  Uiso   1.00
loop_
_geom_bond_atom_site_label_1
_geom_bond_atom_site_label_2
_geom_bond_distance
_geom_bond_site_symmetry_2
_ccdc_geom_bond_type
H1     C25     1.112   .     S
C2     H18     1.111   .     S
C2     H19     1.124   .     S
C2     C38     1.539   .     S
C2     H40     1.110   .     S
H3     C25     1.113   .     S
C4     H20     1.107   .     S
C4     C38     1.538   .     S
C4     H41     1.107   .     S
C4     H42     1.109   .     S
O5     C6      1.403   .     D
O5     Zn259   1.770   .     S
C6     C7      1.430   .     S
C6     C26     1.428   .     S
C7     C23     1.487   .     D
C7     C29     1.401   .     S
H8     C23     1.084   .     S
H9     C29     1.088   .     S
C10    C31     1.202   .     T
C10    C32     1.434   .     S
C11    C12     1.395   .     D
C11    C32     1.395   .     S
C11    H34     1.084   .     S
C12    C14     1.408   .     S
C12    H36     1.083   .     S
C13    C14     1.409   .     D
C13    H15     1.083   .     S
C13    C33     1.403   .     S
C14    C37     1.485   .     S
C16    C37     1.404   .     D
C16    H39     1.084   .     S
C16    C123    1.405   .     S
C17    H21     1.111   .     S
C17    H22     1.107   .     S
C17    C38     1.537   .     S
C17    H43     1.105   .     S
C23    N24     1.290   .     S
N24    Zn259   1.738   .     S
N24    C154    1.464   .     S
C25    N153    1.464   .     S
C25    C154    1.560   .     S
C26    C27     1.414   .     D
C26    C38     1.554   .     S
C27    C28     1.392   .     S
C27    H30     1.077   .     S
C28    C29     1.390   .     D
C28    C31     1.436   .     S
C32    C33     1.399   .     D
C33    H35     1.091   .     S
C37    C59     1.405   .     S
H44    C68     1.112   1_545 S
C45    H61     1.111   .     S
C45    H62     1.124   .     S
C45    C81     1.539   .     S
C45    H83     1.110   .     S
H46    C68     1.113   .     S
C47    H63     1.107   .     S
C47    C81     1.538   .     S
C47    H84     1.107   .     S
C47    H85     1.109   .     S
O48    C49     1.403   .     S
O48    Zn260   1.770   .     S
C49    C50     1.430   .     S
C49    C69     1.428   .     D
C50    C66     1.487   .     S
C50    C72     1.401   .     D
H51    C66     1.084   .     S
H52    C72     1.088   .     S
C53    C74     1.202   .     T
C53    C75     1.434   .     S
C54    C55     1.395   .     S
C54    C75     1.395   .     D
C54    H77     1.084   .     S
C55    C57     1.408   .     D
C55    H79     1.083   .     S
C56    C57     1.409   .     S
C56    H58     1.083   .     S
C56    C76     1.403   .     D
C57    C80     1.485   .     S
C59    C80     1.404   .     D
C59    H82     1.084   .     S
C60    H64     1.111   .     S
C60    H65     1.107   .     S
C60    C81     1.537   .     S
C60    H86     1.105   .     S
C66    N67     1.290   .     D
N67    Zn260   1.738   .     S
N67    C240    1.464   .     S
C68    N239    1.464   .     S
C68    H44     1.112   1_565 S
C68    C240    1.560   1_565 S
C69    C70     1.414   .     S
C69    C81     1.554   .     S
C70    C71     1.392   .     D
C70    H73     1.077   .     S
C71    C72     1.390   .     S
C71    C74     1.436   .     S
C75    C76     1.399   .     S
C76    H78     1.091   .     S
C80    C102    1.405   .     S
H87    C111    1.112   1_655 S
C88    H104    1.111   .     S
C88    H105    1.124   .     S
C88    C124    1.539   .     S
C88    H126    1.110   .     S
H89    C111    1.113   .     S
C90    H106    1.107   .     S
C90    C124    1.538   .     S
C90    H127    1.107   .     S
C90    H128    1.109   .     S
O91    C92     1.403   .     D
O91    Zn261   1.770   1_655 S
C92    C93     1.430   .     S
C92    C112    1.428   .     S
C93    C109    1.487   .     D
C93    C115    1.401   .     S
H94    C109    1.084   .     S
H95    C115    1.088   .     S
C96    C117    1.202   .     T
C96    C118    1.434   .     S
C97    C98     1.395   .     D
C97    C118    1.395   .     S
C97    H120    1.084   .     S
C98    C100    1.408   .     S
C98    H122    1.083   .     S
C99    C100    1.409   .     D
C99    H101    1.083   .     S
C99    C119    1.403   .     S
C100   C123    1.485   .     S
C102   C123    1.404   .     D
C102   H125    1.084   .     S
C103   H107    1.111   .     S
C103   H108    1.107   .     S
C103   C124    1.537   .     S
C103   H129    1.105   .     S
C109   N110    1.290   .     S
N110   C197    1.464   .     S
N110   Zn261   1.738   1_655 S
C111   N196    1.464   .     S
C111   H87     1.112   1_455 S
C111   C197    1.560   1_455 S
C112   C113    1.414   .     D
C112   C124    1.554   .     S
C113   C114    1.392   .     S
C113   H116    1.077   .     S
C114   C115    1.390   .     D
C114   C117    1.436   .     S
C118   C119    1.399   .     D
C119   H121    1.091   .     S
H130   C154    1.112   .     S
C131   H147    1.111   .     S
C131   H148    1.124   .     S
C131   C167    1.539   .     S
C131   H169    1.110   .     S
H132   C154    1.113   .     S
C133   H149    1.107   .     S
C133   C167    1.538   .     S
C133   H170    1.107   .     S
C133   H171    1.109   .     S
O134   C135    1.403   .     D
O134   Zn259   1.770   .     S
C135   C136    1.430   .     S
C135   C155    1.428   .     S
C136   C152    1.487   .     D
C136   C158    1.401   .     S
H137   C152    1.084   .     S
H138   C158    1.088   .     S
C139   C160    1.202   .     T
C139   C161    1.434   .     S
C140   C141    1.395   .     D
C140   C161    1.395   .     S
C140   H163    1.084   .     S
C141   C143    1.408   .     S
C141   H165    1.083   .     S
C142   C143    1.409   .     D
C142   H144    1.083   .     S
C142   C162    1.403   .     S
C143   C166    1.485   .     S
C145   C166    1.404   .     D
C145   H168    1.084   .     S
C145   C252    1.405   .     S
C146   H150    1.111   .     S
C146   H151    1.107   .     S
C146   C167    1.537   .     S
C146   H172    1.105   .     S
C152   N153    1.290   .     S
N153   Zn259   1.738   .     S
C155   C156    1.414   .     D
C155   C167    1.554   .     S
C156   C157    1.392   .     S
C156   H159    1.077   .     S
C157   C158    1.390   .     D
C157   C160    1.436   .     S
C161   C162    1.399   .     D
C162   H164    1.091   .     S
C166   C188    1.405   .     S
H173   C197    1.112   1_455 S
C174   H190    1.111   .     S
C174   H191    1.124   .     S
C174   C210    1.539   .     S
C174   H212    1.110   .     S
H175   C197    1.113   .     S
C176   H192    1.107   .     S
C176   C210    1.538   .     S
C176   H213    1.107   .     S
C176   H214    1.109   .     S
O177   C178    1.403   .     S
O177   Zn261   1.770   .     S
C178   C179    1.430   .     S
C178   C198    1.428   .     D
C179   C195    1.487   .     S
C179   C201    1.401   .     D
H180   C195    1.084   .     S
H181   C201    1.088   .     S
C182   C203    1.202   .     T
C182   C204    1.434   .     S
C183   C184    1.395   .     S
C183   C204    1.395   .     D
C183   H206    1.084   .     S
C184   C186    1.408   .     D
C184   H208    1.083   .     S
C185   C186    1.409   .     S
C185   H187    1.083   .     S
C185   C205    1.403   .     D
C186   C209    1.485   .     S
C188   C209    1.404   .     D
C188   H211    1.084   .     S
C189   H193    1.111   .     S
C189   H194    1.107   .     S
C189   C210    1.537   .     S
C189   H215    1.105   .     S
C195   N196    1.290   .     D
N196   Zn261   1.738   .     S
C197   C111    1.560   1_655 S
C197   H173    1.112   1_655 S
C198   C199    1.414   .     S
C198   C210    1.554   .     S
C199   C200    1.392   .     D
C199   H202    1.077   .     S
C200   C201    1.390   .     S
C200   C203    1.436   .     S
C204   C205    1.399   .     S
C205   H207    1.091   .     S
C209   C231    1.405   .     S
H216   C240    1.112   1_565 S
C217   H233    1.111   .     S
C217   H234    1.124   .     S
C217   C253    1.539   .     S
C217   H255    1.110   .     S
H218   C240    1.113   .     S
C219   H235    1.107   .     S
C219   C253    1.538   .     S
C219   H256    1.107   .     S
C219   H257    1.109   .     S
O220   C221    1.403   .     D
O220   Zn260   1.770   1_565 S
C221   C222    1.430   .     S
C221   C241    1.428   .     S
C222   C238    1.487   .     D
C222   C244    1.401   .     S
H223   C238    1.084   .     S
H224   C244    1.088   .     S
C225   C246    1.202   .     T
C225   C247    1.434   .     S
C226   C227    1.395   .     D
C226   C247    1.395   .     S
C226   H249    1.084   .     S
C227   C229    1.408   .     S
C227   H251    1.083   .     S
C228   C229    1.409   .     D
C228   H230    1.083   .     S
C228   C248    1.403   .     S
C229   C252    1.485   .     S
C231   C252    1.404   .     D
C231   H254    1.084   .     S
C232   H236    1.111   .     S
C232   H237    1.107   .     S
C232   C253    1.537   .     S
C232   H258    1.105   .     S
C238   N239    1.290   .     S
N239   Zn260   1.738   1_565 S
C240   C68     1.560   1_545 S
C240   H216    1.112   1_545 S
C241   C242    1.414   .     D
C241   C253    1.554   .     S
C242   C243    1.392   .     S
C242   H245    1.077   .     S
C243   C244    1.390   .     D
C243   C246    1.436   .     S
C247   C248    1.399   .     D
C248   H250    1.091   .     S
Zn260  O220    1.770   1_545 S
Zn260  N239    1.738   1_545 S
Zn261  O91     1.770   1_455 S
Zn261  N110    1.738   1_455 S
