data_1184
_audit_creation_date              2023-09-08
_audit_creation_method            'Materials Studio'
_symmetry_space_group_name_H-M    'P1'
_symmetry_Int_Tables_number       1
_symmetry_cell_setting            triclinic
loop_
_symmetry_equiv_pos_as_xyz
  x,y,z
_cell_length_a                    30.6081
_cell_length_b                    3.6028
_cell_length_c                    29.6434
_cell_angle_alpha                 90.0000
_cell_angle_beta                  120.0000
_cell_angle_gamma                 90.0000
loop_
_atom_site_label
_atom_site_type_symbol
_atom_site_fract_x
_atom_site_fract_y
_atom_site_fract_z
_atom_site_U_iso_or_equiv
_atom_site_adp_type
_atom_site_occupancy
C1     C     0.48197   0.50000   0.50989   0.00000  Uiso   1.00
C2     C     0.43109   0.50000   0.47703   0.00000  Uiso   1.00
C3     C     0.39728   0.50000   0.49569   0.00000  Uiso   1.00
C4     C     0.41395   0.50000   0.54779   0.00000  Uiso   1.00
C5     C     0.46450   0.50000   0.58077   0.00000  Uiso   1.00
C6     C     0.49809   0.50000   0.56188   0.00000  Uiso   1.00
C7     C     0.37786   0.50000   0.56676   0.00000  Uiso   1.00
C8     C     0.38995   0.50000   0.61298   0.00000  Uiso   1.00
C9     C     0.35569   0.50000   0.63514   0.00000  Uiso   1.00
C10    C     0.37668   0.50000   0.68900   0.00000  Uiso   1.00
C11    C     0.34662   0.50000   0.71245   0.00000  Uiso   1.00
N12    N     0.29645   0.50000   0.68166   0.00000  Uiso   1.00
C13    C     0.27412   0.50000   0.62910   0.00000  Uiso   1.00
C14    C     0.30384   0.50000   0.60500   0.00000  Uiso   1.00
C15    C     0.36714   0.50000   0.76960   0.00000  Uiso   1.00
C16    C     0.21876   0.50000   0.59733   0.00000  Uiso   1.00
C17    C     0.41335   0.50000   0.80429   0.00000  Uiso   1.00
C18    C     0.43648   0.50000   0.86101   0.00000  Uiso   1.00
C19    C     0.18901   0.50000   0.61710   0.00000  Uiso   1.00
C20    C     0.13370   0.50000   0.58314   0.00000  Uiso   1.00
C21    C     0.48752   0.50000   0.88977   0.00000  Uiso   1.00
C22    C     0.51208   0.50000   0.94405   0.00000  Uiso   1.00
C23    C     0.48645   0.50000   0.97093   0.00000  Uiso   1.00
C24    C     0.43497   0.50000   0.94168   0.00000  Uiso   1.00
C25    C     0.41010   0.50000   0.88718   0.00000  Uiso   1.00
C26    C     0.10156   0.50000   0.60227   0.00000  Uiso   1.00
C27    C     0.04913   0.50000   0.56983   0.00000  Uiso   1.00
C28    C     0.02781   0.50000   0.51765   0.00000  Uiso   1.00
C29    C     0.06011   0.50000   0.49921   0.00000  Uiso   1.00
C30    C     0.11240   0.50000   0.53159   0.00000  Uiso   1.00
C31    C     0.57222   0.50000   0.28124   0.00000  Uiso   1.00
C32    C     0.71861   0.50000   0.44948   0.00000  Uiso   1.00
N33    N     0.73684   0.50000   0.49308   0.00000  Uiso   1.00
N34    N     0.53139   0.50000   0.25765   0.00000  Uiso   1.00
H35    H     0.41755   0.50000   0.43716   0.00000  Uiso   1.00
H36    H     0.35832   0.50000   0.46990   0.00000  Uiso   1.00
H37    H     0.47768   0.50000   0.62081   0.00000  Uiso   1.00
H38    H     0.53646   0.50000   0.58781   0.00000  Uiso   1.00
H39    H     0.34076   0.50000   0.54148   0.00000  Uiso   1.00
H40    H     0.42765   0.50000   0.63716   0.00000  Uiso   1.00
H41    H     0.34297   0.50000   0.78298   0.00000  Uiso   1.00
H42    H     0.20151   0.50000   0.55573   0.00000  Uiso   1.00
H43    H     0.43689   0.50000   0.79109   0.00000  Uiso   1.00
H44    H     0.20515   0.50000   0.65895   0.00000  Uiso   1.00
H45    H     0.50830   0.50000   0.86995   0.00000  Uiso   1.00
H46    H     0.55114   0.50000   0.96486   0.00000  Uiso   1.00
H47    H     0.41424   0.50000   0.96084   0.00000  Uiso   1.00
H48    H     0.37101   0.50000   0.86565   0.00000  Uiso   1.00
H49    H     0.11704   0.50000   0.64181   0.00000  Uiso   1.00
H50    H     0.02527   0.50000   0.58506   0.00000  Uiso   1.00
H51    H     0.04489   0.50000   0.45985   0.00000  Uiso   1.00
H52    H     0.13603   0.50000   0.51627   0.00000  Uiso   1.00
C53    C     0.51803   0.50000   0.49011   0.00000  Uiso   1.00
C54    C     0.56891   0.50000   0.52297   0.00000  Uiso   1.00
C55    C     0.60272   0.50000   0.50431   0.00000  Uiso   1.00
C56    C     0.58605   0.50000   0.45221   0.00000  Uiso   1.00
C57    C     0.53550   0.50000   0.41923   0.00000  Uiso   1.00
C58    C     0.50191   0.50000   0.43812   0.00000  Uiso   1.00
C59    C     0.62214   0.50000   0.43324   0.00000  Uiso   1.00
C60    C     0.61005   0.50000   0.38702   0.00000  Uiso   1.00
C61    C     0.64431   0.50000   0.36486   0.00000  Uiso   1.00
C62    C     0.62332   0.50000   0.31100   0.00000  Uiso   1.00
C63    C     0.65338   0.50000   0.28755   0.00000  Uiso   1.00
N64    N     0.70355   0.50000   0.31834   0.00000  Uiso   1.00
C65    C     0.72588   0.50000   0.37090   0.00000  Uiso   1.00
C66    C     0.69616   0.50000   0.39500   0.00000  Uiso   1.00
C67    C     0.63286   0.50000   0.23040   0.00000  Uiso   1.00
C68    C     0.78124   0.50000   0.40267   0.00000  Uiso   1.00
C69    C     0.58665   0.50000   0.19571   0.00000  Uiso   1.00
C70    C     0.56352   0.50000   0.13899   0.00000  Uiso   1.00
C71    C     0.81099   0.50000   0.38290   0.00000  Uiso   1.00
C72    C     0.86630   0.50000   0.41686   0.00000  Uiso   1.00
C73    C     0.51248   0.50000   0.11023   0.00000  Uiso   1.00
C74    C     0.48792   0.50000   0.05595   0.00000  Uiso   1.00
C75    C     0.51355   0.50000   0.02907   0.00000  Uiso   1.00
C76    C     0.56503   0.50000   0.05832   0.00000  Uiso   1.00
C77    C     0.58990   0.50000   0.11282   0.00000  Uiso   1.00
C78    C     0.89844   0.50000   0.39773   0.00000  Uiso   1.00
C79    C     0.95087   0.50000   0.43017   0.00000  Uiso   1.00
C80    C     0.97219   0.50000   0.48235   0.00000  Uiso   1.00
C81    C     0.93989   0.50000   0.50079   0.00000  Uiso   1.00
C82    C     0.88760   0.50000   0.46841   0.00000  Uiso   1.00
C83    C     0.42778   0.50000   0.71876   0.00000  Uiso   1.00
C84    C     0.28139   0.50000   0.55052   0.00000  Uiso   1.00
N85    N     0.26316   0.50000   0.50692   0.00000  Uiso   1.00
N86    N     0.46861   0.50000   0.74235   0.00000  Uiso   1.00
H87    H     0.58245   0.50000   0.56284   0.00000  Uiso   1.00
H88    H     0.64168   0.50000   0.53010   0.00000  Uiso   1.00
H89    H     0.52232   0.50000   0.37919   0.00000  Uiso   1.00
H90    H     0.46354   0.50000   0.41219   0.00000  Uiso   1.00
H91    H     0.65924   0.50000   0.45852   0.00000  Uiso   1.00
H92    H     0.57235   0.50000   0.36284   0.00000  Uiso   1.00
H93    H     0.65703   0.50000   0.21702   0.00000  Uiso   1.00
H94    H     0.79849   0.50000   0.44427   0.00000  Uiso   1.00
H95    H     0.56311   0.50000   0.20891   0.00000  Uiso   1.00
H96    H     0.79485   0.50000   0.34105   0.00000  Uiso   1.00
H97    H     0.49170   0.50000   0.13005   0.00000  Uiso   1.00
H98    H     0.44886   0.50000   0.03514   0.00000  Uiso   1.00
H99    H     0.58576   0.50000   0.03916   0.00000  Uiso   1.00
H100   H     0.62899   0.50000   0.13435   0.00000  Uiso   1.00
H101   H     0.88296   0.50000   0.35819   0.00000  Uiso   1.00
H102   H     0.97473   0.50000   0.41494   0.00000  Uiso   1.00
H103   H     0.95511   0.50000   0.54015   0.00000  Uiso   1.00
H104   H     0.86397   0.50000   0.48373   0.00000  Uiso   1.00
loop_
_geom_bond_atom_site_label_1
_geom_bond_atom_site_label_2
_geom_bond_distance
_geom_bond_site_symmetry_2
_ccdc_geom_bond_type
C1     C2      1.363   .     D
C1     C6      1.363   .     S
C1     C53     1.486   .     S
C2     C3      1.396   .     S
C2     H35     1.039   .     S
C3     C4      1.363   .     D
C3     H36     1.046   .     S
C4     C5      1.355   .     S
C4     C7      1.469   .     S
C5     C6      1.395   .     D
C5     H37     1.045   .     S
C6     H38     1.033   .     S
C7     C8      1.228   .     D
C7     H39     1.000   .     S
C8     C9      1.490   .     S
C8     H40     1.009   .     S
C9     C10     1.391   .     S
C9     C14     1.378   .     D
C10    C11     1.403   .     D
C10    C83     1.358   .     S
C11    N12     1.338   .     S
C11    C15     1.483   .     S
N12    C13     1.353   .     D
C13    C14     1.410   .     S
C13    C16     1.470   .     S
C14    C84     1.404   .     S
C15    C17     1.266   .     D
C15    H41     0.999   .     S
C16    C19     1.306   .     D
C16    H42     1.072   .     S
C17    C18     1.462   .     S
C17    H43     0.977   .     S
C18    C21     1.355   .     D
C18    C25     1.371   .     S
C19    C20     1.475   .     S
C19    H44     1.082   .     S
C20    C26     1.359   .     D
C20    C30     1.328   .     S
C21    C22     1.394   .     S
C21    H45     1.060   .     S
C22    C23     1.369   .     D
C22    H46     1.036   .     S
C23    C24     1.367   .     S
C23    C75     1.493   1_556 S
C24    C25     1.400   .     D
C24    H47     1.042   .     S
C25    H48     1.037   .     S
C26    C27     1.399   .     S
C26    H49     1.021   .     S
C27    C28     1.345   .     D
C27    H50     1.033   .     S
C28    C29     1.348   .     S
C28    C80     1.487   1_455 S
C29    C30     1.395   .     D
C29    H51     1.017   .     S
C30    H52     1.029   .     S
C31    N34     1.085   .     T
C31    C62     1.358   .     S
C32    N33     1.123   .     T
C32    C66     1.404   .     S
C53    C54     1.363   .     D
C53    C58     1.363   .     S
C54    C55     1.396   .     S
C54    H87     1.039   .     S
C55    C56     1.363   .     D
C55    H88     1.046   .     S
C56    C57     1.355   .     S
C56    C59     1.469   .     S
C57    C58     1.395   .     D
C57    H89     1.045   .     S
C58    H90     1.033   .     S
C59    C60     1.228   .     D
C59    H91     1.000   .     S
C60    C61     1.490   .     S
C60    H92     1.009   .     S
C61    C62     1.391   .     D
C61    C66     1.378   .     S
C62    C63     1.403   .     S
C63    N64     1.338   .     D
C63    C67     1.483   .     S
N64    C65     1.353   .     S
C65    C66     1.410   .     D
C65    C68     1.470   .     S
C67    C69     1.266   .     D
C67    H93     0.999   .     S
C68    C71     1.306   .     D
C68    H94     1.072   .     S
C69    C70     1.462   .     S
C69    H95     0.977   .     S
C70    C73     1.355   .     D
C70    C77     1.371   .     S
C71    C72     1.475   .     S
C71    H96     1.082   .     S
C72    C78     1.359   .     D
C72    C82     1.328   .     S
C73    C74     1.394   .     S
C73    H97     1.060   .     S
C74    C75     1.369   .     D
C74    H98     1.036   .     S
C75    C76     1.367   .     S
C75    C23     1.493   1_554 S
C76    C77     1.400   .     D
C76    H99     1.042   .     S
C77    H100    1.037   .     S
C78    C79     1.399   .     S
C78    H101    1.021   .     S
C79    C80     1.345   .     D
C79    H102    1.033   .     S
C80    C81     1.348   .     S
C80    C28     1.487   1_655 S
C81    C82     1.395   .     D
C81    H103    1.017   .     S
C82    H104    1.029   .     S
C83    N86     1.085   .     T
C84    N85     1.123   .     T
