data_1185
_audit_creation_date              2023-09-08
_audit_creation_method            'Materials Studio'
_symmetry_space_group_name_H-M    'P1'
_symmetry_Int_Tables_number       1
_symmetry_cell_setting            triclinic
loop_
_symmetry_equiv_pos_as_xyz
  x,y,z
_cell_length_a                    30.3971
_cell_length_b                    30.3971
_cell_length_c                    3.4663
_cell_angle_alpha                 90.0000
_cell_angle_beta                  90.0000
_cell_angle_gamma                 120.0000
loop_
_atom_site_label
_atom_site_type_symbol
_atom_site_fract_x
_atom_site_fract_y
_atom_site_fract_z
_atom_site_U_iso_or_equiv
_atom_site_adp_type
_atom_site_occupancy
C1     C     0.51220   0.48346   0.50000   0.00000  Uiso   1.00
C2     C     0.48263   0.42977   0.50000   0.00000  Uiso   1.00
C3     C     0.50521   0.39946   0.50000   0.00000  Uiso   1.00
C4     C     0.55806   0.42115   0.50000   0.00000  Uiso   1.00
C5     C     0.58806   0.47432   0.50000   0.00000  Uiso   1.00
C6     C     0.56563   0.50481   0.50000   0.00000  Uiso   1.00
C7     C     0.57950   0.38662   0.50000   0.00000  Uiso   1.00
C8     C     0.62931   0.40189   0.50000   0.00000  Uiso   1.00
C9     C     0.64835   0.36587   0.50000   0.00000  Uiso   1.00
N10    N     0.69906   0.38404   0.50000   0.00000  Uiso   1.00
H11    H     0.44181   0.40979   0.50000   0.00000  Uiso   1.00
H12    H     0.48100   0.35855   0.50000   0.00000  Uiso   1.00
H13    H     0.62898   0.49316   0.50000   0.00000  Uiso   1.00
H14    H     0.59142   0.54511   0.50000   0.00000  Uiso   1.00
H15    H     0.55260   0.34615   0.50000   0.00000  Uiso   1.00
H16    H     0.65778   0.44157   0.50000   0.00000  Uiso   1.00
C17    C     0.51654   0.02874   0.50000   0.00000  Uiso   1.00
C18    C     0.57023   0.05286   0.50000   0.00000  Uiso   1.00
C19    C     0.60054   0.10575   0.50000   0.00000  Uiso   1.00
C20    C     0.57885   0.13691   0.50000   0.00000  Uiso   1.00
C21    C     0.52568   0.11374   0.50000   0.00000  Uiso   1.00
C22    C     0.49519   0.06082   0.50000   0.00000  Uiso   1.00
C23    C     0.61338   0.19288   0.50000   0.00000  Uiso   1.00
C24    C     0.59811   0.22742   0.50000   0.00000  Uiso   1.00
C25    C     0.63413   0.28248   0.50000   0.00000  Uiso   1.00
N26    N     0.61596   0.31502   0.50000   0.00000  Uiso   1.00
H27    H     0.59021   0.03202   0.50000   0.00000  Uiso   1.00
H28    H     0.64145   0.12245   0.50000   0.00000  Uiso   1.00
H29    H     0.50684   0.13582   0.50000   0.00000  Uiso   1.00
H30    H     0.45489   0.04631   0.50000   0.00000  Uiso   1.00
H31    H     0.65385   0.20645   0.50000   0.00000  Uiso   1.00
H32    H     0.55843   0.21621   0.50000   0.00000  Uiso   1.00
C33    C     0.97126   0.48780   0.50000   0.00000  Uiso   1.00
C34    C     0.94714   0.51737   0.50000   0.00000  Uiso   1.00
C35    C     0.89425   0.49479   0.50000   0.00000  Uiso   1.00
C36    C     0.86309   0.44194   0.50000   0.00000  Uiso   1.00
C37    C     0.88626   0.41194   0.50000   0.00000  Uiso   1.00
C38    C     0.93918   0.43437   0.50000   0.00000  Uiso   1.00
C39    C     0.80712   0.42050   0.50000   0.00000  Uiso   1.00
C40    C     0.77258   0.37069   0.50000   0.00000  Uiso   1.00
C41    C     0.71752   0.35165   0.50000   0.00000  Uiso   1.00
N42    N     0.68498   0.30094   0.50000   0.00000  Uiso   1.00
H43    H     0.96798   0.55819   0.50000   0.00000  Uiso   1.00
H44    H     0.87755   0.51900   0.50000   0.00000  Uiso   1.00
H45    H     0.86418   0.37102   0.50000   0.00000  Uiso   1.00
H46    H     0.95369   0.40858   0.50000   0.00000  Uiso   1.00
H47    H     0.79355   0.44740   0.50000   0.00000  Uiso   1.00
H48    H     0.78379   0.34222   0.50000   0.00000  Uiso   1.00
C49    C     0.48780   0.51654   0.50000   0.00000  Uiso   1.00
C50    C     0.51737   0.57023   0.50000   0.00000  Uiso   1.00
C51    C     0.49479   0.60054   0.50000   0.00000  Uiso   1.00
C52    C     0.44194   0.57885   0.50000   0.00000  Uiso   1.00
C53    C     0.41194   0.52568   0.50000   0.00000  Uiso   1.00
C54    C     0.43437   0.49519   0.50000   0.00000  Uiso   1.00
C55    C     0.42050   0.61338   0.50000   0.00000  Uiso   1.00
C56    C     0.37069   0.59811   0.50000   0.00000  Uiso   1.00
C57    C     0.35165   0.63413   0.50000   0.00000  Uiso   1.00
N58    N     0.30094   0.61596   0.50000   0.00000  Uiso   1.00
H59    H     0.55819   0.59021   0.50000   0.00000  Uiso   1.00
H60    H     0.51900   0.64145   0.50000   0.00000  Uiso   1.00
H61    H     0.37102   0.50684   0.50000   0.00000  Uiso   1.00
H62    H     0.40858   0.45489   0.50000   0.00000  Uiso   1.00
H63    H     0.44740   0.65385   0.50000   0.00000  Uiso   1.00
H64    H     0.34222   0.55843   0.50000   0.00000  Uiso   1.00
C65    C     0.48346   0.97126   0.50000   0.00000  Uiso   1.00
C66    C     0.42977   0.94714   0.50000   0.00000  Uiso   1.00
C67    C     0.39946   0.89425   0.50000   0.00000  Uiso   1.00
C68    C     0.42115   0.86309   0.50000   0.00000  Uiso   1.00
C69    C     0.47432   0.88626   0.50000   0.00000  Uiso   1.00
C70    C     0.50481   0.93918   0.50000   0.00000  Uiso   1.00
C71    C     0.38662   0.80712   0.50000   0.00000  Uiso   1.00
C72    C     0.40189   0.77258   0.50000   0.00000  Uiso   1.00
C73    C     0.36587   0.71752   0.50000   0.00000  Uiso   1.00
N74    N     0.38404   0.68498   0.50000   0.00000  Uiso   1.00
H75    H     0.40979   0.96798   0.50000   0.00000  Uiso   1.00
H76    H     0.35855   0.87755   0.50000   0.00000  Uiso   1.00
H77    H     0.49316   0.86418   0.50000   0.00000  Uiso   1.00
H78    H     0.54511   0.95369   0.50000   0.00000  Uiso   1.00
H79    H     0.34615   0.79355   0.50000   0.00000  Uiso   1.00
H80    H     0.44157   0.78379   0.50000   0.00000  Uiso   1.00
C81    C     0.02874   0.51220   0.50000   0.00000  Uiso   1.00
C82    C     0.05286   0.48263   0.50000   0.00000  Uiso   1.00
C83    C     0.10575   0.50521   0.50000   0.00000  Uiso   1.00
C84    C     0.13691   0.55806   0.50000   0.00000  Uiso   1.00
C85    C     0.11374   0.58806   0.50000   0.00000  Uiso   1.00
C86    C     0.06082   0.56563   0.50000   0.00000  Uiso   1.00
C87    C     0.19288   0.57950   0.50000   0.00000  Uiso   1.00
C88    C     0.22742   0.62931   0.50000   0.00000  Uiso   1.00
C89    C     0.28248   0.64835   0.50000   0.00000  Uiso   1.00
N90    N     0.31502   0.69906   0.50000   0.00000  Uiso   1.00
H91    H     0.03202   0.44181   0.50000   0.00000  Uiso   1.00
H92    H     0.12245   0.48100   0.50000   0.00000  Uiso   1.00
H93    H     0.13582   0.62898   0.50000   0.00000  Uiso   1.00
H94    H     0.04631   0.59142   0.50000   0.00000  Uiso   1.00
H95    H     0.20645   0.55260   0.50000   0.00000  Uiso   1.00
H96    H     0.21621   0.65778   0.50000   0.00000  Uiso   1.00
loop_
_geom_bond_atom_site_label_1
_geom_bond_atom_site_label_2
_geom_bond_distance
_geom_bond_site_symmetry_2
_ccdc_geom_bond_type
C1     C2      1.416   .     S
C1     C6      1.416   .     D
C1     C49     1.519   .     S
C2     C3      1.397   .     D
C2     H11     1.075   .     S
C3     C4      1.399   .     S
C3     H12     1.083   .     S
C4     C5      1.404   .     D
C4     C7      1.487   .     S
C5     C6      1.398   .     S
C5     H13     1.078   .     S
C6     H14     1.075   .     S
C7     C8      1.344   .     D
C7     H15     1.084   .     S
C8     C9      1.472   .     S
C8     H16     1.077   .     S
C9     N10     1.353   .     S
C9     N26     1.355   .     D
N10    C41     1.355   .     D
C17    C18     1.416   .     D
C17    C22     1.416   .     S
C17    C65     1.519   1_545 S
C18    C19     1.397   .     S
C18    H27     1.075   .     S
C19    C20     1.399   .     D
C19    H28     1.083   .     S
C20    C21     1.404   .     S
C20    C23     1.487   .     S
C21    C22     1.398   .     D
C21    H29     1.078   .     S
C22    H30     1.075   .     S
C23    C24     1.344   .     D
C23    H31     1.084   .     S
C24    C25     1.472   .     S
C24    H32     1.077   .     S
C25    N26     1.353   .     S
C25    N42     1.355   .     D
C33    C34     1.416   .     D
C33    C38     1.416   .     S
C33    C81     1.519   1_655 S
C34    C35     1.397   .     S
C34    H43     1.075   .     S
C35    C36     1.399   .     D
C35    H44     1.083   .     S
C36    C37     1.404   .     S
C36    C39     1.487   .     S
C37    C38     1.398   .     D
C37    H45     1.078   .     S
C38    H46     1.075   .     S
C39    C40     1.344   .     D
C39    H47     1.084   .     S
C40    C41     1.472   .     S
C40    H48     1.077   .     S
C41    N42     1.353   .     S
C49    C50     1.416   .     S
C49    C54     1.416   .     D
C50    C51     1.397   .     D
C50    H59     1.075   .     S
C51    C52     1.399   .     S
C51    H60     1.083   .     S
C52    C53     1.404   .     D
C52    C55     1.487   .     S
C53    C54     1.398   .     S
C53    H61     1.078   .     S
C54    H62     1.075   .     S
C55    C56     1.344   .     D
C55    H63     1.084   .     S
C56    C57     1.472   .     S
C56    H64     1.077   .     S
C57    N58     1.353   .     D
C57    N74     1.355   .     S
N58    C89     1.355   .     S
C65    C66     1.416   .     D
C65    C70     1.416   .     S
C65    C17     1.519   1_565 S
C66    C67     1.397   .     S
C66    H75     1.075   .     S
C67    C68     1.399   .     D
C67    H76     1.083   .     S
C68    C69     1.404   .     S
C68    C71     1.487   .     S
C69    C70     1.398   .     D
C69    H77     1.078   .     S
C70    H78     1.075   .     S
C71    C72     1.344   .     D
C71    H79     1.084   .     S
C72    C73     1.472   .     S
C72    H80     1.077   .     S
C73    N74     1.353   .     D
C73    N90     1.355   .     S
C81    C82     1.416   .     D
C81    C86     1.416   .     S
C81    C33     1.519   1_455 S
C82    C83     1.397   .     S
C82    H91     1.075   .     S
C83    C84     1.399   .     D
C83    H92     1.083   .     S
C84    C85     1.404   .     S
C84    C87     1.487   .     S
C85    C86     1.398   .     D
C85    H93     1.078   .     S
C86    H94     1.075   .     S
C87    C88     1.344   .     D
C87    H95     1.084   .     S
C88    C89     1.472   .     S
C88    H96     1.077   .     S
C89    N90     1.353   .     D
