data_1186
_audit_creation_date              2023-09-08
_audit_creation_method            'Materials Studio'
_symmetry_space_group_name_H-M    'P1'
_symmetry_Int_Tables_number       1
_symmetry_cell_setting            triclinic
loop_
_symmetry_equiv_pos_as_xyz
  x,y,z
_cell_length_a                    23.4169
_cell_length_b                    3.5833
_cell_length_c                    23.1605
_cell_angle_alpha                 90.0000
_cell_angle_beta                  120.0000
_cell_angle_gamma                 90.0000
loop_
_atom_site_label
_atom_site_type_symbol
_atom_site_fract_x
_atom_site_fract_y
_atom_site_fract_z
_atom_site_U_iso_or_equiv
_atom_site_adp_type
_atom_site_occupancy
C11    C     0.51066   0.50000   0.37244   0.00000  Uiso   1.00
C22    C     0.47317   0.50000   0.40387   0.00000  Uiso   1.00
C33    C     0.50418   0.50000   0.47344   0.00000  Uiso   1.00
C44    C     0.57279   0.50000   0.51181   0.00000  Uiso   1.00
C55    C     0.61056   0.50000   0.48065   0.00000  Uiso   1.00
C66    C     0.57949   0.50000   0.41084   0.00000  Uiso   1.00
C77    C     0.46537   0.50000   0.50540   0.00000  Uiso   1.00
C88    C     0.68114   0.50000   0.52080   0.00000  Uiso   1.00
C99    C     0.47783   0.50000   0.30079   0.00000  Uiso   1.00
C1010  C     0.74022   0.50000   0.55532   0.00000  Uiso   1.00
C1111  C     0.43250   0.50000   0.53188   0.00000  Uiso   1.00
C1212  C     0.44912   0.50000   0.24071   0.00000  Uiso   1.00
C1313  C     0.39298   0.50000   0.56315   0.00000  Uiso   1.00
C1414  C     0.41459   0.50000   0.16902   0.00000  Uiso   1.00
C1515  C     0.32541   0.50000   0.52469   0.00000  Uiso   1.00
C1616  C     0.28662   0.50000   0.55487   0.00000  Uiso   1.00
C1717  C     0.31487   0.50000   0.62369   0.00000  Uiso   1.00
C1818  C     0.38322   0.50000   0.66228   0.00000  Uiso   1.00
C1919  C     0.42190   0.50000   0.63196   0.00000  Uiso   1.00
C2020  C     0.44816   0.50000   0.13595   0.00000  Uiso   1.00
C2121  C     0.41473   0.50000   0.06642   0.00000  Uiso   1.00
C2222  C     0.34734   0.50000   0.02886   0.00000  Uiso   1.00
C2323  C     0.31370   0.50000   0.06245   0.00000  Uiso   1.00
C2424  C     0.34732   0.50000   0.13222   0.00000  Uiso   1.00
C2525  C     0.81078   0.50000   0.59654   0.00000  Uiso   1.00
C2626  C     0.84160   0.50000   0.66405   0.00000  Uiso   1.00
C2727  C     0.91045   0.50000   0.70334   0.00000  Uiso   1.00
C2828  C     0.94922   0.50000   0.67540   0.00000  Uiso   1.00
C2929  C     0.91756   0.50000   0.60798   0.00000  Uiso   1.00
C3030  C     0.84886   0.50000   0.56884   0.00000  Uiso   1.00
C3131  C     0.27171   0.50000   0.65319   0.00000  Uiso   1.00
C3232  C     0.28560   0.50000   0.71017   0.00000  Uiso   1.00
C3333  C     0.24176   0.50000   0.73947   0.00000  Uiso   1.00
C3434  C     0.27045   0.50000   0.80876   0.00000  Uiso   1.00
C3535  C     0.23061   0.50000   0.83860   0.00000  Uiso   1.00
N3636  N     0.16422   0.50000   0.79913   0.00000  Uiso   1.00
C3737  C     0.13422   0.50000   0.73170   0.00000  Uiso   1.00
C3838  C     0.17291   0.50000   0.70073   0.00000  Uiso   1.00
C3939  C     0.25773   0.50000   0.91169   0.00000  Uiso   1.00
C4040  C     0.06127   0.50000   0.69133   0.00000  Uiso   1.00
C4141  C     0.14231   0.50000   0.63068   0.00000  Uiso   1.00
N4242  N     0.11775   0.50000   0.57470   0.00000  Uiso   1.00
C4343  C     0.31489   0.50000   0.95541   0.00000  Uiso   1.00
C4444  C     0.02213   0.50000   0.71736   0.00000  Uiso   1.00
C4545  C     0.33921   0.50000   0.84755   0.00000  Uiso   1.00
N4646  N     0.39410   0.50000   0.87850   0.00000  Uiso   1.00
H4747  H     0.41996   0.50000   0.37426   0.00000  Uiso   1.00
H4848  H     0.59670   0.50000   0.56575   0.00000  Uiso   1.00
H4949  H     0.60861   0.50000   0.38659   0.00000  Uiso   1.00
H5050  H     0.30280   0.50000   0.47141   0.00000  Uiso   1.00
H5151  H     0.23427   0.50000   0.52439   0.00000  Uiso   1.00
H5252  H     0.40717   0.50000   0.71577   0.00000  Uiso   1.00
H5353  H     0.47431   0.50000   0.66207   0.00000  Uiso   1.00
H5454  H     0.50007   0.50000   0.16401   0.00000  Uiso   1.00
H5555  H     0.44161   0.50000   0.04172   0.00000  Uiso   1.00
H5656  H     0.26164   0.50000   0.03547   0.00000  Uiso   1.00
H5757  H     0.32095   0.50000   0.15754   0.00000  Uiso   1.00
H5858  H     0.81243   0.50000   0.68590   0.00000  Uiso   1.00
H5959  H     0.93358   0.50000   0.75510   0.00000  Uiso   1.00
H6060  H     0.94549   0.50000   0.58546   0.00000  Uiso   1.00
H6161  H     0.82537   0.50000   0.51697   0.00000  Uiso   1.00
H6262  H     0.22612   0.50000   0.62586   0.00000  Uiso   1.00
H6363  H     0.33124   0.50000   0.73811   0.00000  Uiso   1.00
H6464  H     0.22869   0.50000   0.92851   0.00000  Uiso   1.00
H6565  H     0.03897   0.50000   0.63824   0.00000  Uiso   1.00
H6666  H     0.34107   0.50000   0.93652   0.00000  Uiso   1.00
H6767  H     0.04390   0.50000   0.77096   0.00000  Uiso   1.00
loop_
_geom_bond_atom_site_label_1
_geom_bond_atom_site_label_2
_geom_bond_distance
_geom_bond_site_symmetry_2
_ccdc_geom_bond_type
C11    C22     1.393   .     S
C11    C66     1.398   .     D
C11    C99     1.438   .     S
C22    C33     1.398   .     D
C22    H4747   1.081   .     S
C33    C44     1.394   .     S
C33    C77     1.431   .     S
C44    C55     1.393   .     D
C44    H4848   1.084   .     S
C55    C66     1.403   .     S
C55    C88     1.435   .     S
C66    H4949   1.079   .     S
C77    C1111   1.200   .     T
C88    C1010   1.203   .     T
C99    C1212   1.205   .     T
C1010  C2525   1.437   .     S
C1111  C1313   1.432   .     S
C1212  C1414   1.438   .     S
C1313  C1515   1.374   .     D
C1313  C1919   1.385   .     S
C1414  C2020   1.344   .     D
C1414  C2424   1.366   .     S
C1515  C1616   1.396   .     S
C1515  H5050   1.072   .     S
C1616  C1717   1.387   .     D
C1616  H5151   1.066   .     S
C1717  C1818   1.389   .     S
C1717  C3131   1.476   .     S
C1818  C1919   1.396   .     D
C1818  H5252   1.074   .     S
C1919  H5353   1.066   .     S
C2020  C2121   1.395   .     S
C2020  H5454   1.054   .     S
C2121  C2222   1.369   .     D
C2121  H5555   1.041   .     S
C2222  C2323   1.356   .     S
C2222  C4343   1.476   1_554 S
C2323  C2424   1.400   .     D
C2323  H5656   1.056   .     S
C2424  H5757   1.043   .     S
C2525  C2626   1.355   .     D
C2525  C3030   1.334   .     S
C2626  C2727   1.400   .     S
C2626  H5858   1.034   .     S
C2727  C2828   1.353   .     D
C2727  H5959   1.040   .     S
C2828  C2929   1.353   .     S
C2828  C4444   1.483   1_655 S
C2929  C3030   1.397   .     D
C2929  H6060   1.020   .     S
C3030  H6161   1.042   .     S
C3131  C3232   1.191   .     D
C3131  H6262   0.930   .     S
C3232  C3333   1.487   .     S
C3232  H6363   0.932   .     S
C3333  C3434   1.396   .     D
C3333  C3838   1.399   .     S
C3434  C3535   1.412   .     S
C3434  C4545   1.398   .     S
C3535  N3636   1.353   .     D
C3535  C3939   1.481   .     S
N3636  C3737   1.355   .     S
C3737  C3838   1.409   .     D
C3737  C4040   1.482   .     S
C3838  C4141   1.408   .     S
C3939  C4343   1.209   .     D
C3939  H6464   0.938   .     S
C4040  C4444   1.325   .     D
C4040  H6565   1.069   .     S
C4141  N4242   1.125   .     T
C4343  H6666   0.914   .     S
C4343  C2222   1.476   1_556 S
C4444  H6767   1.081   .     S
C4444  C2828   1.483   1_455 S
C4545  N4646   1.116   .     T
