data_1187
_audit_creation_date              2023-09-08
_audit_creation_method            'Materials Studio'
_symmetry_space_group_name_H-M    'P1'
_symmetry_Int_Tables_number       1
_symmetry_cell_setting            triclinic
loop_
_symmetry_equiv_pos_as_xyz
  x,y,z
_cell_length_a                    23.2815
_cell_length_b                    23.2815
_cell_length_c                    3.4855
_cell_angle_alpha                 90.0000
_cell_angle_beta                  90.0000
_cell_angle_gamma                 120.0000
loop_
_atom_site_label
_atom_site_type_symbol
_atom_site_fract_x
_atom_site_fract_y
_atom_site_fract_z
_atom_site_U_iso_or_equiv
_atom_site_adp_type
_atom_site_occupancy
C1     C     0.26400   0.63547   0.50000   0.00000  Uiso   1.00
C2     C     0.29522   0.59737   0.50000   0.00000  Uiso   1.00
C3     C     0.39657   0.58939   0.50000   0.00000  Uiso   1.00
C4     C     0.44340   0.86684   0.50000   0.00000  Uiso   1.00
C5     C     0.45554   0.51751   0.50000   0.00000  Uiso   1.00
C6     C     0.41764   0.44832   0.50000   0.00000  Uiso   1.00
C7     C     0.44883   0.41029   0.50000   0.00000  Uiso   1.00
C8     C     0.51838   0.44082   0.50000   0.00000  Uiso   1.00
C9     C     0.55612   0.51073   0.50000   0.00000  Uiso   1.00
C10    C     0.52473   0.54861   0.50000   0.00000  Uiso   1.00
C11    C     0.54843   0.39756   0.50000   0.00000  Uiso   1.00
C12    C     0.61386   0.41945   0.50000   0.00000  Uiso   1.00
C13    C     0.64082   0.37418   0.50000   0.00000  Uiso   1.00
N14    N     0.70733   0.39982   0.50000   0.00000  Uiso   1.00
H15    H     0.26572   0.54372   0.50000   0.00000  Uiso   1.00
H16    H     0.36400   0.42386   0.50000   0.00000  Uiso   1.00
H17    H     0.41849   0.35675   0.50000   0.00000  Uiso   1.00
H18    H     0.60958   0.53685   0.50000   0.00000  Uiso   1.00
H19    H     0.55436   0.60222   0.50000   0.00000  Uiso   1.00
H20    H     0.51455   0.34446   0.50000   0.00000  Uiso   1.00
H21    H     0.64983   0.47163   0.50000   0.00000  Uiso   1.00
C22    C     0.36453   0.62853   0.50000   0.00000  Uiso   1.00
C23    C     0.40263   0.69785   0.50000   0.00000  Uiso   1.00
C24    C     0.41061   0.80718   0.50000   0.00000  Uiso   1.00
C25    C     0.13316   0.57656   0.50000   0.00000  Uiso   1.00
C26    C     0.48249   0.93803   0.50000   0.00000  Uiso   1.00
C27    C     0.55168   0.96932   0.50000   0.00000  Uiso   1.00
C28    C     0.58971   0.03854   0.50000   0.00000  Uiso   1.00
C29    C     0.55918   0.07756   0.50000   0.00000  Uiso   1.00
C30    C     0.48927   0.04539   0.50000   0.00000  Uiso   1.00
C31    C     0.45139   0.97612   0.50000   0.00000  Uiso   1.00
C32    C     0.60244   0.15087   0.50000   0.00000  Uiso   1.00
C33    C     0.58055   0.19441   0.50000   0.00000  Uiso   1.00
C34    C     0.62582   0.26664   0.50000   0.00000  Uiso   1.00
N35    N     0.60018   0.30751   0.50000   0.00000  Uiso   1.00
H36    H     0.45628   0.72200   0.50000   0.00000  Uiso   1.00
H37    H     0.57614   0.94014   0.50000   0.00000  Uiso   1.00
H38    H     0.64325   0.06174   0.50000   0.00000  Uiso   1.00
H39    H     0.46315   0.07273   0.50000   0.00000  Uiso   1.00
H40    H     0.39778   0.95214   0.50000   0.00000  Uiso   1.00
H41    H     0.65554   0.17009   0.50000   0.00000  Uiso   1.00
H42    H     0.52837   0.17820   0.50000   0.00000  Uiso   1.00
C43    C     0.37147   0.73600   0.50000   0.00000  Uiso   1.00
C44    C     0.30215   0.70478   0.50000   0.00000  Uiso   1.00
C45    C     0.19282   0.60343   0.50000   0.00000  Uiso   1.00
C46    C     0.42344   0.55660   0.50000   0.00000  Uiso   1.00
C47    C     0.06197   0.54446   0.50000   0.00000  Uiso   1.00
C48    C     0.03068   0.58236   0.50000   0.00000  Uiso   1.00
C49    C     0.96146   0.55117   0.50000   0.00000  Uiso   1.00
C50    C     0.92244   0.48162   0.50000   0.00000  Uiso   1.00
C51    C     0.95461   0.44388   0.50000   0.00000  Uiso   1.00
C52    C     0.02388   0.47527   0.50000   0.00000  Uiso   1.00
C53    C     0.84913   0.45157   0.50000   0.00000  Uiso   1.00
C54    C     0.80559   0.38614   0.50000   0.00000  Uiso   1.00
C55    C     0.73336   0.35918   0.50000   0.00000  Uiso   1.00
N56    N     0.69249   0.29267   0.50000   0.00000  Uiso   1.00
H57    H     0.27800   0.73428   0.50000   0.00000  Uiso   1.00
H58    H     0.05986   0.63600   0.50000   0.00000  Uiso   1.00
H59    H     0.93826   0.58151   0.50000   0.00000  Uiso   1.00
H60    H     0.92727   0.39042   0.50000   0.00000  Uiso   1.00
H61    H     0.04786   0.44564   0.50000   0.00000  Uiso   1.00
H62    H     0.82991   0.48545   0.50000   0.00000  Uiso   1.00
H63    H     0.82180   0.35017   0.50000   0.00000  Uiso   1.00
loop_
_geom_bond_atom_site_label_1
_geom_bond_atom_site_label_2
_geom_bond_distance
_geom_bond_site_symmetry_2
_ccdc_geom_bond_type
C1     C2      1.400   .     D
C1     C45     1.438   .     S
C1     C44     1.400   .     S
C2     H15     1.084   .     S
C2     C22     1.400   .     S
C3     C22     1.438   .     S
C3     C46     1.205   .     T
C4     C24     1.205   .     T
C4     C26     1.438   .     S
C5     C6      1.397   .     S
C5     C10     1.397   .     D
C5     C46     1.438   .     S
C6     C7      1.398   .     D
C6     H16     1.083   .     S
C7     C8      1.406   .     S
C7     H17     1.083   .     S
C8     C9      1.411   .     D
C8     C11     1.486   .     S
C9     C10     1.399   .     S
C9     H18     1.078   .     S
C10    H19     1.083   .     S
C11    C12     1.343   .     D
C11    H20     1.084   .     S
C12    C13     1.472   .     S
C12    H21     1.077   .     S
C13    N14     1.353   .     D
C13    N35     1.355   .     S
N14    C55     1.355   .     S
C22    C23     1.400   .     D
C23    H36     1.084   .     S
C23    C43     1.400   .     S
C24    C43     1.438   .     S
C25    C45     1.205   .     T
C25    C47     1.438   .     S
C26    C27     1.397   .     D
C26    C31     1.397   .     S
C27    H37     1.083   .     S
C27    C28     1.398   1_565 S
C28    C29     1.406   .     D
C28    H38     1.083   .     S
C28    C27     1.398   1_545 S
C29    C30     1.411   .     S
C29    C32     1.486   .     S
C30    H39     1.078   .     S
C30    C31     1.399   1_545 D
C31    H40     1.083   .     S
C31    C30     1.399   1_565 D
C32    C33     1.343   .     D
C32    H41     1.084   .     S
C33    C34     1.472   .     S
C33    H42     1.077   .     S
C34    N35     1.353   .     D
C34    N56     1.355   .     S
C43    C44     1.400   .     D
C44    H57     1.084   .     S
C47    C48     1.397   .     D
C47    C52     1.397   .     S
C48    H58     1.083   .     S
C48    C49     1.398   1_455 S
C49    C50     1.406   .     D
C49    H59     1.083   .     S
C49    C48     1.398   1_655 S
C50    C51     1.411   .     S
C50    C53     1.486   .     S
C51    H60     1.078   .     S
C51    C52     1.399   1_655 D
C52    H61     1.083   .     S
C52    C51     1.399   1_455 D
C53    C54     1.343   .     D
C53    H62     1.084   .     S
C54    C55     1.472   .     S
C54    H63     1.077   .     S
C55    N56     1.353   .     D
