data_1188
_audit_creation_date              2023-09-08
_audit_creation_method            'Materials Studio'
_symmetry_space_group_name_H-M    'P1'
_symmetry_Int_Tables_number       1
_symmetry_cell_setting            triclinic
loop_
_symmetry_equiv_pos_as_xyz
  x,y,z
_cell_length_a                    26.4646
_cell_length_b                    3.6192
_cell_length_c                    26.1299
_cell_angle_alpha                 90.0000
_cell_angle_beta                  120.0000
_cell_angle_gamma                 90.0000
loop_
_atom_site_label
_atom_site_type_symbol
_atom_site_fract_x
_atom_site_fract_y
_atom_site_fract_z
_atom_site_U_iso_or_equiv
_atom_site_adp_type
_atom_site_occupancy
C11    C     0.40275   0.50000   0.55218   0.00000  Uiso   1.00
C22    C     0.36596   0.50000   0.58028   0.00000  Uiso   1.00
C33    C     0.30524   0.50000   0.54636   0.00000  Uiso   1.00
C44    C     0.27056   0.50000   0.57262   0.00000  Uiso   1.00
C55    C     0.29599   0.50000   0.63339   0.00000  Uiso   1.00
C66    C     0.35647   0.50000   0.66756   0.00000  Uiso   1.00
C77    C     0.39112   0.50000   0.64116   0.00000  Uiso   1.00
C88    C     0.25833   0.50000   0.65979   0.00000  Uiso   1.00
C99    C     0.27351   0.50000   0.71181   0.00000  Uiso   1.00
C1010  C     0.23612   0.50000   0.73950   0.00000  Uiso   1.00
C1111  C     0.26293   0.50000   0.80119   0.00000  Uiso   1.00
C1212  C     0.22910   0.50000   0.82914   0.00000  Uiso   1.00
N1313  N     0.17013   0.50000   0.79529   0.00000  Uiso   1.00
C1414  C     0.14221   0.50000   0.73534   0.00000  Uiso   1.00
C1515  C     0.17517   0.50000   0.70655   0.00000  Uiso   1.00
C1616  C     0.25466   0.50000   0.89428   0.00000  Uiso   1.00
C1717  C     0.07753   0.50000   0.70058   0.00000  Uiso   1.00
C1818  C     0.45913   0.50000   0.58258   0.00000  Uiso   1.00
C1919  C     0.49324   0.50000   0.55568   0.00000  Uiso   1.00
C2020  C     0.47194   0.50000   0.49780   0.00000  Uiso   1.00
C2121  C     0.41578   0.50000   0.46772   0.00000  Uiso   1.00
C2222  C     0.38163   0.50000   0.49452   0.00000  Uiso   1.00
C2323  C     0.50768   0.50000   0.46856   0.00000  Uiso   1.00
C2424  C     0.48090   0.50000   0.40763   0.00000  Uiso   1.00
C2525  C     0.51332   0.50000   0.37843   0.00000  Uiso   1.00
C2626  C     0.57463   0.50000   0.41268   0.00000  Uiso   1.00
C2727  C     0.60284   0.50000   0.47452   0.00000  Uiso   1.00
C2828  C     0.56851   0.50000   0.50130   0.00000  Uiso   1.00
C2929  C     0.66786   0.50000   0.51169   0.00000  Uiso   1.00
C3030  C     0.48248   0.50000   0.31240   0.00000  Uiso   1.00
C3131  C     0.69499   0.50000   0.56964   0.00000  Uiso   1.00
C3232  C     0.75570   0.50000   0.60465   0.00000  Uiso   1.00
C3333  C     0.79108   0.50000   0.58237   0.00000  Uiso   1.00
C3434  C     0.76435   0.50000   0.52452   0.00000  Uiso   1.00
C3535  C     0.70353   0.50000   0.48979   0.00000  Uiso   1.00
C3636  C     0.50910   0.50000   0.28262   0.00000  Uiso   1.00
C3737  C     0.48008   0.50000   0.22080   0.00000  Uiso   1.00
C3838  C     0.42347   0.50000   0.18697   0.00000  Uiso   1.00
C3939  C     0.39673   0.50000   0.21661   0.00000  Uiso   1.00
C4040  C     0.42587   0.50000   0.27822   0.00000  Uiso   1.00
C4141  C     0.85560   0.50000   0.61891   0.00000  Uiso   1.00
C4242  C     0.39264   0.50000   0.12115   0.00000  Uiso   1.00
C4343  C     0.88869   0.50000   0.59367   0.00000  Uiso   1.00
C4444  C     0.94936   0.50000   0.62772   0.00000  Uiso   1.00
C4545  C     0.97859   0.50000   0.68773   0.00000  Uiso   1.00
C4646  C     0.94545   0.50000   0.71335   0.00000  Uiso   1.00
C4747  C     0.88455   0.50000   0.67930   0.00000  Uiso   1.00
C4848  C     0.33163   0.50000   0.08768   0.00000  Uiso   1.00
C4949  C     0.30276   0.50000   0.02585   0.00000  Uiso   1.00
C5050  C     0.33451   0.50000   0.99639   0.00000  Uiso   1.00
C5151  C     0.39521   0.50000   0.02945   0.00000  Uiso   1.00
C5252  C     0.42395   0.50000   0.09111   0.00000  Uiso   1.00
C5353  C     0.04322   0.50000   0.72432   0.00000  Uiso   1.00
C5454  C     0.30652   0.50000   0.93154   0.00000  Uiso   1.00
C5555  C     0.32360   0.50000   0.83424   0.00000  Uiso   1.00
N5656  N     0.37204   0.50000   0.86055   0.00000  Uiso   1.00
C5757  C     0.14668   0.50000   0.64459   0.00000  Uiso   1.00
N5858  N     0.12377   0.50000   0.59508   0.00000  Uiso   1.00
H5959  H     0.28460   0.50000   0.49966   0.00000  Uiso   1.00
H6060  H     0.22389   0.50000   0.54580   0.00000  Uiso   1.00
H6161  H     0.37665   0.50000   0.71434   0.00000  Uiso   1.00
H6262  H     0.43744   0.50000   0.66824   0.00000  Uiso   1.00
H6363  H     0.21658   0.50000   0.63453   0.00000  Uiso   1.00
H6464  H     0.31580   0.50000   0.73632   0.00000  Uiso   1.00
H6565  H     0.22902   0.50000   0.91136   0.00000  Uiso   1.00
H6666  H     0.05744   0.50000   0.65357   0.00000  Uiso   1.00
H6767  H     0.47613   0.50000   0.62644   0.00000  Uiso   1.00
H6868  H     0.53550   0.50000   0.57952   0.00000  Uiso   1.00
H6969  H     0.39868   0.50000   0.42391   0.00000  Uiso   1.00
H7070  H     0.33923   0.50000   0.47060   0.00000  Uiso   1.00
H7171  H     0.43442   0.50000   0.38293   0.00000  Uiso   1.00
H7272  H     0.60045   0.50000   0.39133   0.00000  Uiso   1.00
H7373  H     0.58920   0.50000   0.54785   0.00000  Uiso   1.00
H7474  H     0.66939   0.50000   0.58753   0.00000  Uiso   1.00
H7575  H     0.77506   0.50000   0.64846   0.00000  Uiso   1.00
H7676  H     0.79061   0.50000   0.50659   0.00000  Uiso   1.00
H7777  H     0.68467   0.50000   0.44629   0.00000  Uiso   1.00
H7878  H     0.55162   0.50000   0.30678   0.00000  Uiso   1.00
H7979  H     0.50136   0.50000   0.19955   0.00000  Uiso   1.00
H8080  H     0.35409   0.50000   0.19217   0.00000  Uiso   1.00
H8181  H     0.40458   0.50000   0.29878   0.00000  Uiso   1.00
H8282  H     0.86747   0.50000   0.54776   0.00000  Uiso   1.00
H8383  H     0.97298   0.50000   0.60703   0.00000  Uiso   1.00
H8484  H     0.96685   0.50000   0.75944   0.00000  Uiso   1.00
H8585  H     0.86013   0.50000   0.69979   0.00000  Uiso   1.00
H8686  H     0.30626   0.50000   0.10924   0.00000  Uiso   1.00
H8787  H     0.25605   0.50000   0.00117   0.00000  Uiso   1.00
H8888  H     0.42030   0.50000   0.00726   0.00000  Uiso   1.00
H8989  H     0.47064   0.50000   0.11518   0.00000  Uiso   1.00
H9090  H     0.06293   0.50000   0.77186   0.00000  Uiso   1.00
H9191  H     0.33130   0.50000   0.91445   0.00000  Uiso   1.00
loop_
_geom_bond_atom_site_label_1
_geom_bond_atom_site_label_2
_geom_bond_distance
_geom_bond_site_symmetry_2
_ccdc_geom_bond_type
C11    C22     1.484   .     S
C11    C1818   1.293   .     D
C11    C2222   1.319   .     S
C22    C33     1.394   .     D
C22    C77     1.384   .     S
C33    C44     1.394   .     S
C33    H5959   1.059   .     S
C44    C55     1.380   .     D
C44    H6060   1.073   .     S
C55    C66     1.389   .     S
C55    C88     1.469   .     S
C66    C77     1.396   .     D
C66    H6161   1.061   .     S
C77    H6262   1.066   .     S
C88    C99     1.210   .     D
C88    H6363   0.963   .     S
C99    C1010   1.489   .     S
C99    H6464   0.973   .     S
C1010  C1111   1.399   .     S
C1010  C1515   1.398   .     D
C1111  C1212   1.410   .     D
C1111  C5555   1.392   .     S
C1212  N1313   1.356   .     S
C1212  C1616   1.484   .     S
N1313  C1414   1.357   .     D
C1414  C1515   1.408   .     S
C1414  C1717   1.483   .     S
C1515  C5757   1.403   .     S
C1616  C5454   1.223   .     D
C1616  H6565   0.981   .     S
C1717  C5353   1.331   .     D
C1717  H6666   1.067   .     S
C1818  C1919   1.394   .     S
C1818  H6767   1.000   .     S
C1919  C2020   1.324   .     D
C1919  H6868   0.971   .     S
C2020  C2121   1.288   .     S
C2020  C2323   1.484   .     S
C2121  C2222   1.393   .     D
C2121  H6969   0.999   .     S
C2222  H7070   0.974   .     S
C2323  C2424   1.382   .     D
C2323  C2828   1.395   .     S
C2424  C2525   1.405   .     S
C2424  H7171   1.066   .     S
C2525  C2626   1.408   .     D
C2525  C3030   1.495   .     S
C2626  C2727   1.401   .     S
C2626  H7272   1.077   .     S
C2727  C2828   1.397   .     D
C2727  C2929   1.494   .     S
C2828  H7373   1.055   .     S
C2929  C3131   1.312   .     D
C2929  C3535   1.326   .     S
C3030  C3636   1.285   .     D
C3030  C4040   1.305   .     S
C3131  C3232   1.396   .     S
C3131  H7474   0.997   .     S
C3232  C3333   1.327   .     D
C3232  H7575   0.993   .     S
C3333  C3434   1.310   .     S
C3333  C4141   1.482   .     S
C3434  C3535   1.398   .     D
C3434  H7676   1.014   .     S
C3535  H7777   0.987   .     S
C3636  C3737   1.399   .     S
C3636  H7878   0.977   .     S
C3737  C3838   1.304   .     D
C3737  H7979   0.969   .     S
C3838  C3939   1.284   .     S
C3838  C4242   1.490   .     S
C3939  C4040   1.395   .     D
C3939  H8080   0.980   .     S
C4040  H8181   0.953   .     S
C4141  C4343   1.334   .     D
C4141  C4747   1.367   .     S
C4242  C4848   1.400   .     D
C4242  C5252   1.398   .     S
C4343  C4444   1.393   .     S
C4343  H8282   1.040   .     S
C4444  C4545   1.358   .     D
C4444  H8383   1.010   .     S
C4545  C4646   1.343   .     S
C4545  C5353   1.485   1_655 S
C4646  C4747   1.398   .     D
C4646  H8484   1.044   .     S
C4747  H8585   1.025   .     S
C4848  C4949   1.400   .     S
C4848  H8686   1.071   .     S
C4949  H8787   1.071   .     S
C4949  C5050   1.395   1_554 D
C5050  C5454   1.471   .     S
C5050  C4949   1.395   1_556 D
C5050  C5151   1.393   1_556 S
C5151  C5252   1.396   .     D
C5151  H8888   1.078   .     S
C5151  C5050   1.393   1_554 S
C5252  H8989   1.070   .     S
C5353  H9090   1.080   .     S
C5353  C4545   1.485   1_455 S
C5454  H9191   0.960   .     S
C5555  N5656   1.111   .     T
C5757  N5858   1.121   .     T
