data_1189
_audit_creation_date              2023-09-08
_audit_creation_method            'Materials Studio'
_symmetry_space_group_name_H-M    'P1'
_symmetry_Int_Tables_number       1
_symmetry_cell_setting            triclinic
loop_
_symmetry_equiv_pos_as_xyz
  x,y,z
_cell_length_a                    35.0731
_cell_length_b                    3.6041
_cell_length_c                    34.2450
_cell_angle_alpha                 90.0000
_cell_angle_beta                  120.0000
_cell_angle_gamma                 90.0000
loop_
_atom_site_label
_atom_site_type_symbol
_atom_site_fract_x
_atom_site_fract_y
_atom_site_fract_z
_atom_site_U_iso_or_equiv
_atom_site_adp_type
_atom_site_occupancy
C1     C     0.46025   0.50000   0.52756   0.00000  Uiso   1.00
C2     C     0.41518   0.50000   0.50053   0.00000  Uiso   1.00
C3     C     0.38798   0.50000   0.51950   0.00000  Uiso   1.00
C4     C     0.40549   0.50000   0.56564   0.00000  Uiso   1.00
C5     C     0.45103   0.50000   0.59273   0.00000  Uiso   1.00
C6     C     0.47814   0.50000   0.57365   0.00000  Uiso   1.00
C7     C     0.37554   0.50000   0.58430   0.00000  Uiso   1.00
C8     C     0.38405   0.50000   0.62265   0.00000  Uiso   1.00
C9     C     0.35447   0.50000   0.64197   0.00000  Uiso   1.00
C10    C     0.37320   0.50000   0.68845   0.00000  Uiso   1.00
C11    C     0.34610   0.50000   0.70809   0.00000  Uiso   1.00
N12    N     0.30179   0.50000   0.68103   0.00000  Uiso   1.00
C13    C     0.28218   0.50000   0.63571   0.00000  Uiso   1.00
C14    C     0.30849   0.50000   0.61553   0.00000  Uiso   1.00
C15    C     0.36368   0.50000   0.75725   0.00000  Uiso   1.00
C16    C     0.23345   0.50000   0.60795   0.00000  Uiso   1.00
C17    C     0.40145   0.50000   0.78788   0.00000  Uiso   1.00
C18    C     0.42276   0.50000   0.83725   0.00000  Uiso   1.00
C19    C     0.20701   0.50000   0.62425   0.00000  Uiso   1.00
C20    C     0.15857   0.50000   0.59499   0.00000  Uiso   1.00
C21    C     0.46790   0.50000   0.86340   0.00000  Uiso   1.00
C22    C     0.48997   0.50000   0.91019   0.00000  Uiso   1.00
C23    C     0.46713   0.50000   0.93158   0.00000  Uiso   1.00
C24    C     0.42203   0.50000   0.90596   0.00000  Uiso   1.00
C25    C     0.39983   0.50000   0.85899   0.00000  Uiso   1.00
C26    C     0.13173   0.50000   0.61337   0.00000  Uiso   1.00
C27    C     0.08595   0.50000   0.58617   0.00000  Uiso   1.00
C28    C     0.06658   0.50000   0.54042   0.00000  Uiso   1.00
C29    C     0.09304   0.50000   0.52213   0.00000  Uiso   1.00
C30    C     0.13871   0.50000   0.54920   0.00000  Uiso   1.00
C31    C     0.51175   0.50000   0.49187   0.00000  Uiso   1.00
C32    C     0.49020   0.50000   0.97980   0.00000  Uiso   1.00
C33    C     0.01964   0.50000   0.51202   0.00000  Uiso   1.00
C34    C     0.71149   0.50000   0.43141   0.00000  Uiso   1.00
N35    N     0.72753   0.50000   0.46893   0.00000  Uiso   1.00
C36    C     0.58092   0.50000   0.28534   0.00000  Uiso   1.00
N37    N     0.54432   0.50000   0.26442   0.00000  Uiso   1.00
H38    H     0.40117   0.50000   0.46486   0.00000  Uiso   1.00
H39    H     0.35313   0.50000   0.49815   0.00000  Uiso   1.00
H40    H     0.46606   0.50000   0.62867   0.00000  Uiso   1.00
H41    H     0.51311   0.50000   0.59483   0.00000  Uiso   1.00
H42    H     0.34519   0.50000   0.56538   0.00000  Uiso   1.00
H43    H     0.41440   0.50000   0.64213   0.00000  Uiso   1.00
H44    H     0.34430   0.50000   0.76758   0.00000  Uiso   1.00
H45    H     0.21879   0.50000   0.57263   0.00000  Uiso   1.00
H46    H     0.41902   0.50000   0.77625   0.00000  Uiso   1.00
H47    H     0.22116   0.50000   0.65998   0.00000  Uiso   1.00
H48    H     0.48620   0.50000   0.84746   0.00000  Uiso   1.00
H49    H     0.52481   0.50000   0.92975   0.00000  Uiso   1.00
H50    H     0.40412   0.50000   0.92232   0.00000  Uiso   1.00
H51    H     0.36493   0.50000   0.84014   0.00000  Uiso   1.00
H52    H     0.14625   0.50000   0.64855   0.00000  Uiso   1.00
H53    H     0.06568   0.50000   0.60062   0.00000  Uiso   1.00
H54    H     0.07833   0.50000   0.48695   0.00000  Uiso   1.00
H55    H     0.15827   0.50000   0.53433   0.00000  Uiso   1.00
C56    C     0.53975   0.50000   0.47244   0.00000  Uiso   1.00
C57    C     0.58482   0.50000   0.49947   0.00000  Uiso   1.00
C58    C     0.61202   0.50000   0.48050   0.00000  Uiso   1.00
C59    C     0.59451   0.50000   0.43436   0.00000  Uiso   1.00
C60    C     0.54897   0.50000   0.40727   0.00000  Uiso   1.00
C61    C     0.52186   0.50000   0.42635   0.00000  Uiso   1.00
C62    C     0.62446   0.50000   0.41570   0.00000  Uiso   1.00
C63    C     0.61595   0.50000   0.37735   0.00000  Uiso   1.00
C64    C     0.64553   0.50000   0.35803   0.00000  Uiso   1.00
C65    C     0.62680   0.50000   0.31155   0.00000  Uiso   1.00
C66    C     0.65390   0.50000   0.29191   0.00000  Uiso   1.00
N67    N     0.69821   0.50000   0.31897   0.00000  Uiso   1.00
C68    C     0.71782   0.50000   0.36429   0.00000  Uiso   1.00
C69    C     0.69151   0.50000   0.38447   0.00000  Uiso   1.00
C70    C     0.63632   0.50000   0.24275   0.00000  Uiso   1.00
C71    C     0.76655   0.50000   0.39205   0.00000  Uiso   1.00
C72    C     0.59855   0.50000   0.21212   0.00000  Uiso   1.00
C73    C     0.57724   0.50000   0.16275   0.00000  Uiso   1.00
C74    C     0.79299   0.50000   0.37575   0.00000  Uiso   1.00
C75    C     0.84143   0.50000   0.40501   0.00000  Uiso   1.00
C76    C     0.53210   0.50000   0.13660   0.00000  Uiso   1.00
C77    C     0.51003   0.50000   0.08981   0.00000  Uiso   1.00
C78    C     0.53287   0.50000   0.06842   0.00000  Uiso   1.00
C79    C     0.57797   0.50000   0.09404   0.00000  Uiso   1.00
C80    C     0.60017   0.50000   0.14101   0.00000  Uiso   1.00
C81    C     0.86827   0.50000   0.38663   0.00000  Uiso   1.00
C82    C     0.91405   0.50000   0.41383   0.00000  Uiso   1.00
C83    C     0.93342   0.50000   0.45958   0.00000  Uiso   1.00
C84    C     0.90696   0.50000   0.47787   0.00000  Uiso   1.00
C85    C     0.86129   0.50000   0.45080   0.00000  Uiso   1.00
C86    C     0.48825   0.50000   0.50813   0.00000  Uiso   1.00
C87    C     0.50980   0.50000   0.02020   0.00000  Uiso   1.00
C88    C     0.98036   0.50000   0.48798   0.00000  Uiso   1.00
C89    C     0.28851   0.50000   0.56859   0.00000  Uiso   1.00
N90    N     0.27247   0.50000   0.53107   0.00000  Uiso   1.00
C91    C     0.41908   0.50000   0.71466   0.00000  Uiso   1.00
N92    N     0.45568   0.50000   0.73558   0.00000  Uiso   1.00
H93    H     0.59883   0.50000   0.53514   0.00000  Uiso   1.00
H94    H     0.64687   0.50000   0.50185   0.00000  Uiso   1.00
H95    H     0.53394   0.50000   0.37133   0.00000  Uiso   1.00
H96    H     0.48689   0.50000   0.40517   0.00000  Uiso   1.00
H97    H     0.65481   0.50000   0.43462   0.00000  Uiso   1.00
H98    H     0.58560   0.50000   0.35787   0.00000  Uiso   1.00
H99    H     0.65570   0.50000   0.23242   0.00000  Uiso   1.00
H100   H     0.78121   0.50000   0.42737   0.00000  Uiso   1.00
H101   H     0.58098   0.50000   0.22375   0.00000  Uiso   1.00
H102   H     0.77884   0.50000   0.34002   0.00000  Uiso   1.00
H103   H     0.51380   0.50000   0.15254   0.00000  Uiso   1.00
H104   H     0.47519   0.50000   0.07025   0.00000  Uiso   1.00
H105   H     0.59588   0.50000   0.07768   0.00000  Uiso   1.00
H106   H     0.63507   0.50000   0.15986   0.00000  Uiso   1.00
H107   H     0.85375   0.50000   0.35145   0.00000  Uiso   1.00
H108   H     0.93432   0.50000   0.39938   0.00000  Uiso   1.00
H109   H     0.92167   0.50000   0.51305   0.00000  Uiso   1.00
H110   H     0.84173   0.50000   0.46567   0.00000  Uiso   1.00
loop_
_geom_bond_atom_site_label_1
_geom_bond_atom_site_label_2
_geom_bond_distance
_geom_bond_site_symmetry_2
_ccdc_geom_bond_type
C1     C2      1.376   .     D
C1     C6      1.376   .     S
C1     C86     1.435   .     S
C2     C3      1.397   .     S
C2     H38     1.065   .     S
C3     C4      1.380   .     D
C3     H39     1.065   .     S
C4     C5      1.389   .     S
C4     C7      1.477   .     S
C5     C6      1.397   .     D
C5     H40     1.070   .     S
C6     H41     1.068   .     S
C7     C8      1.192   .     D
C7     H42     0.929   .     S
C8     C9      1.483   .     S
C8     H43     0.932   .     S
C9     C10     1.385   .     D
C9     C14     1.400   .     S
C10    C11     1.412   .     S
C10    C91     1.397   .     S
C11    N12     1.354   .     D
C11    C15     1.475   .     S
N12    C13     1.347   .     S
C13    C14     1.402   .     D
C13    C16     1.483   .     S
C14    C89     1.396   .     S
C15    C17     1.211   .     D
C15    H44     0.910   .     S
C16    C19     1.300   .     D
C16    H45     1.051   .     S
C17    C18     1.467   .     S
C17    H46     0.885   .     S
C18    C21     1.375   .     D
C18    C25     1.342   .     S
C19    C20     1.479   .     S
C19    H47     1.066   .     S
C20    C26     1.369   .     D
C20    C30     1.361   .     S
C21    C22     1.388   .     S
C21    H48     1.030   .     S
C22    C23     1.329   .     D
C22    H49     1.060   .     S
C23    C24     1.373   .     S
C23    C32     1.430   .     S
C24    C25     1.393   .     D
C24    H50     1.030   .     S
C25    H51     1.061   .     S
C26    C27     1.396   .     S
C26    H52     1.047   .     S
C27    C28     1.361   .     D
C27    H53     1.050   .     S
C28    C29     1.355   .     S
C28    C33     1.434   .     S
C29    C30     1.393   .     D
C29    H54     1.047   .     S
C30    H55     1.039   .     S
C31    C56     1.435   .     S
C31    C86     1.203   .     T
C32    C87     1.198   1_556 T
C33    C88     1.201   1_455 T
C34    N35     1.116   .     T
C34    C69     1.396   .     S
C36    N37     1.114   .     T
C36    C65     1.397   .     S
C56    C57     1.376   .     D
C56    C61     1.376   .     S
C57    C58     1.397   .     S
C57    H93     1.065   .     S
C58    C59     1.380   .     D
C58    H94     1.065   .     S
C59    C60     1.389   .     S
C59    C62     1.477   .     S
C60    C61     1.397   .     D
C60    H95     1.070   .     S
C61    H96     1.068   .     S
C62    C63     1.192   .     D
C62    H97     0.929   .     S
C63    C64     1.483   .     S
C63    H98     0.932   .     S
C64    C65     1.385   .     D
C64    C69     1.400   .     S
C65    C66     1.412   .     S
C66    N67     1.354   .     D
C66    C70     1.475   .     S
N67    C68     1.347   .     S
C68    C69     1.402   .     D
C68    C71     1.483   .     S
C70    C72     1.211   .     D
C70    H99     0.910   .     S
C71    C74     1.300   .     D
C71    H100    1.051   .     S
C72    C73     1.467   .     S
C72    H101    0.885   .     S
C73    C76     1.375   .     D
C73    C80     1.342   .     S
C74    C75     1.479   .     S
C74    H102    1.066   .     S
C75    C81     1.369   .     D
C75    C85     1.361   .     S
C76    C77     1.388   .     S
C76    H103    1.030   .     S
C77    C78     1.329   .     D
C77    H104    1.060   .     S
C78    C79     1.373   .     S
C78    C87     1.430   .     S
C79    C80     1.393   .     D
C79    H105    1.030   .     S
C80    H106    1.061   .     S
C81    C82     1.396   .     S
C81    H107    1.047   .     S
C82    C83     1.361   .     D
C82    H108    1.050   .     S
C83    C84     1.355   .     S
C83    C88     1.434   .     S
C84    C85     1.393   .     D
C84    H109    1.047   .     S
C85    H110    1.039   .     S
C87    C32     1.198   1_554 T
C88    C33     1.201   1_655 T
C89    N90     1.116   .     T
C91    N92     1.114   .     T
