data_119
_audit_creation_date              2023-09-08
_audit_creation_method            'Materials Studio'
_symmetry_space_group_name_H-M    'P1'
_symmetry_Int_Tables_number       1
_symmetry_cell_setting            triclinic
loop_
_symmetry_equiv_pos_as_xyz
  x,y,z
_cell_length_a                    29.7000
_cell_length_b                    29.7000
_cell_length_c                    3.4000
_cell_angle_alpha                 90.0000
_cell_angle_beta                  90.0000
_cell_angle_gamma                 120.0000
loop_
_atom_site_label
_atom_site_type_symbol
_atom_site_fract_x
_atom_site_fract_y
_atom_site_fract_z
_atom_site_U_iso_or_equiv
_atom_site_adp_type
_atom_site_occupancy
C1     C     0.94664   0.47573   0.50000   0.00000  Uiso   1.00
C2     C     0.52427   0.47090   0.50000   0.00000  Uiso   1.00
C3     C     0.52910   0.05336   0.50000   0.00000  Uiso   1.00
C4     C     0.05336   0.52427   0.50000   0.00000  Uiso   1.00
C5     C     0.47573   0.52910   0.50000   0.00000  Uiso   1.00
C6     C     0.47090   0.94664   0.50000   0.00000  Uiso   1.00
O7     O     0.20314   0.64008   0.50000   0.00000  Uiso   1.00
O8     O     0.35992   0.56306   0.50000   0.00000  Uiso   1.00
O9     O     0.43694   0.79686   0.50000   0.00000  Uiso   1.00
O10    O     0.79686   0.35992   0.50000   0.00000  Uiso   1.00
O11    O     0.64008   0.43694   0.50000   0.00000  Uiso   1.00
O12    O     0.56306   0.20314   0.50000   0.00000  Uiso   1.00
C13    C     0.38816   0.86056   0.50000   0.00000  Uiso   1.00
C14    C     0.13944   0.52760   0.50000   0.00000  Uiso   1.00
C15    C     0.47240   0.61184   0.50000   0.00000  Uiso   1.00
C16    C     0.61184   0.13944   0.50000   0.00000  Uiso   1.00
C17    C     0.86056   0.47240   0.50000   0.00000  Uiso   1.00
C18    C     0.52760   0.38816   0.50000   0.00000  Uiso   1.00
C19    C     0.36423   0.80929   0.50000   0.00000  Uiso   1.00
C20    C     0.19071   0.55494   0.50000   0.00000  Uiso   1.00
C21    C     0.44506   0.63577   0.50000   0.00000  Uiso   1.00
C22    C     0.63577   0.19071   0.50000   0.00000  Uiso   1.00
C23    C     0.80929   0.44506   0.50000   0.00000  Uiso   1.00
C24    C     0.55494   0.36423   0.50000   0.00000  Uiso   1.00
H25    H     0.36349   0.87760   0.50000   0.00000  Uiso   1.00
H26    H     0.12240   0.48589   0.50000   0.00000  Uiso   1.00
H27    H     0.51411   0.63651   0.50000   0.00000  Uiso   1.00
H28    H     0.63651   0.12240   0.50000   0.00000  Uiso   1.00
H29    H     0.87760   0.51411   0.50000   0.00000  Uiso   1.00
H30    H     0.48589   0.36349   0.50000   0.00000  Uiso   1.00
H31    H     0.32263   0.79128   0.50000   0.00000  Uiso   1.00
H32    H     0.20872   0.53135   0.50000   0.00000  Uiso   1.00
H33    H     0.46865   0.67737   0.50000   0.00000  Uiso   1.00
H34    H     0.67737   0.20872   0.50000   0.00000  Uiso   1.00
H35    H     0.79128   0.46865   0.50000   0.00000  Uiso   1.00
H36    H     0.53135   0.32263   0.50000   0.00000  Uiso   1.00
C37    C     0.36007   0.72080   0.50000   0.00000  Uiso   1.00
C38    C     0.27920   0.63926   0.50000   0.00000  Uiso   1.00
C39    C     0.36074   0.63994   0.50000   0.00000  Uiso   1.00
C40    C     0.63994   0.27920   0.50000   0.00000  Uiso   1.00
C41    C     0.72080   0.36074   0.50000   0.00000  Uiso   1.00
C42    C     0.63926   0.36007   0.50000   0.00000  Uiso   1.00
N43    N     0.44335   0.89214   0.50000   0.00000  Uiso   1.00
N44    N     0.10786   0.55121   0.50000   0.00000  Uiso   1.00
N45    N     0.44879   0.55665   0.50000   0.00000  Uiso   1.00
N46    N     0.55665   0.10786   0.50000   0.00000  Uiso   1.00
N47    N     0.89214   0.44879   0.50000   0.00000  Uiso   1.00
N48    N     0.55121   0.44335   0.50000   0.00000  Uiso   1.00
C49    C     0.38990   0.77736   0.50000   0.00000  Uiso   1.00
C50    C     0.22264   0.61254   0.50000   0.00000  Uiso   1.00
C51    C     0.38746   0.61010   0.50000   0.00000  Uiso   1.00
C52    C     0.61010   0.22264   0.50000   0.00000  Uiso   1.00
C53    C     0.77736   0.38746   0.50000   0.00000  Uiso   1.00
C54    C     0.61254   0.38990   0.50000   0.00000  Uiso   1.00
C55    C     0.38709   0.69382   0.50000   0.00000  Uiso   1.00
C56    C     0.30619   0.69327   0.50000   0.00000  Uiso   1.00
C57    C     0.30673   0.61291   0.50000   0.00000  Uiso   1.00
C58    C     0.61291   0.30619   0.50000   0.00000  Uiso   1.00
C59    C     0.69382   0.30673   0.50000   0.00000  Uiso   1.00
C60    C     0.69327   0.38709   0.50000   0.00000  Uiso   1.00
C61    C     0.52996   0.55432   0.50000   0.00000  Uiso   1.00
C62    C     0.44568   0.97564   0.50000   0.00000  Uiso   1.00
C63    C     0.02436   0.47004   0.50000   0.00000  Uiso   1.00
C64    C     0.47004   0.44568   0.50000   0.00000  Uiso   1.00
C65    C     0.55432   0.02436   0.50000   0.00000  Uiso   1.00
C66    C     0.97564   0.52996   0.50000   0.00000  Uiso   1.00
C67    C     0.55399   0.52513   0.50000   0.00000  Uiso   1.00
C68    C     0.47487   0.02887   0.50000   0.00000  Uiso   1.00
C69    C     0.97113   0.44601   0.50000   0.00000  Uiso   1.00
C70    C     0.44601   0.47487   0.50000   0.00000  Uiso   1.00
C71    C     0.52513   0.97114   0.50000   0.00000  Uiso   1.00
C72    C     0.02887   0.55399   0.50000   0.00000  Uiso   1.00
H73    H     0.40912   0.53210   0.50000   0.00000  Uiso   1.00
H74    H     0.46790   0.87702   0.50000   0.00000  Uiso   1.00
H75    H     0.12299   0.59088   0.50000   0.00000  Uiso   1.00
H76    H     0.59088   0.46790   0.50000   0.00000  Uiso   1.00
H77    H     0.53210   0.12298   0.50000   0.00000  Uiso   1.00
H78    H     0.87702   0.40912   0.50000   0.00000  Uiso   1.00
H79    H     0.55439   0.59590   0.50000   0.00000  Uiso   1.00
H80    H     0.40410   0.95849   0.50000   0.00000  Uiso   1.00
H81    H     0.04151   0.44561   0.50000   0.00000  Uiso   1.00
H82    H     0.44561   0.40410   0.50000   0.00000  Uiso   1.00
H83    H     0.59590   0.04151   0.50000   0.00000  Uiso   1.00
H84    H     0.95849   0.55439   0.50000   0.00000  Uiso   1.00
H85    H     0.59606   0.54487   0.50000   0.00000  Uiso   1.00
H86    H     0.45513   0.05120   0.50000   0.00000  Uiso   1.00
H87    H     0.94880   0.40394   0.50000   0.00000  Uiso   1.00
H88    H     0.40394   0.45513   0.50000   0.00000  Uiso   1.00
H89    H     0.54487   0.94881   0.50000   0.00000  Uiso   1.00
H90    H     0.05119   0.59606   0.50000   0.00000  Uiso   1.00
H91    H     0.57124   0.28391   0.50000   0.00000  Uiso   1.00
H92    H     0.71609   0.28734   0.50000   0.00000  Uiso   1.00
H93    H     0.71267   0.42876   0.50000   0.00000  Uiso   1.00
H94    H     0.42876   0.71609   0.50000   0.00000  Uiso   1.00
H95    H     0.28391   0.71267   0.50000   0.00000  Uiso   1.00
H96    H     0.28734   0.57124   0.50000   0.00000  Uiso   1.00
loop_
_geom_bond_atom_site_label_1
_geom_bond_atom_site_label_2
_geom_bond_distance
_geom_bond_site_symmetry_2
_ccdc_geom_bond_type
C1     N47     1.402   .     S
C1     C66     1.396   .     S
C1     C69     1.397   .     D
C2     N48     1.402   .     S
C2     C64     1.396   .     S
C2     C67     1.397   .     D
C3     N46     1.402   .     S
C3     C65     1.396   .     S
C3     C68     1.397   .     D
C4     N44     1.402   .     S
C4     C63     1.396   .     D
C4     C72     1.397   .     S
C5     N45     1.402   .     S
C5     C61     1.396   .     D
C5     C70     1.397   .     S
C6     N43     1.402   .     S
C6     C62     1.396   .     D
C6     C71     1.397   .     S
O7     C50     1.216   .     D
O8     C51     1.216   .     D
O9     C49     1.216   .     D
O10    C53     1.216   .     D
O11    C54     1.216   .     D
O12    C52     1.216   .     D
C13    C19     1.320   .     D
C13    H25     1.079   .     S
C13    N43     1.425   .     S
C14    C20     1.320   .     D
C14    H26     1.079   .     S
C14    N44     1.425   .     S
C15    C21     1.320   .     D
C15    H27     1.079   .     S
C15    N45     1.425   .     S
C16    C22     1.320   .     D
C16    H28     1.079   .     S
C16    N46     1.425   .     S
C17    C23     1.320   .     D
C17    H29     1.079   .     S
C17    N47     1.425   .     S
C18    C24     1.320   .     D
C18    H30     1.079   .     S
C18    N48     1.425   .     S
C19    H31     1.073   .     S
C19    C49     1.484   .     S
C20    H32     1.073   .     S
C20    C50     1.484   .     S
C21    H33     1.073   .     S
C21    C51     1.484   .     S
C22    H34     1.073   .     S
C22    C52     1.484   .     S
C23    H35     1.073   .     S
C23    C53     1.484   .     S
C24    H36     1.073   .     S
C24    C54     1.484   .     S
C37    C49     1.455   .     S
C37    C55     1.389   .     S
C37    C56     1.386   .     D
C38    C50     1.455   .     S
C38    C56     1.389   .     S
C38    C57     1.386   .     D
C39    C51     1.455   .     S
C39    C55     1.386   .     D
C39    C57     1.389   .     S
C40    C52     1.455   .     S
C40    C58     1.389   .     S
C40    C59     1.386   .     D
C41    C53     1.455   .     S
C41    C59     1.389   .     S
C41    C60     1.386   .     D
C42    C54     1.455   .     S
C42    C58     1.386   .     D
C42    C60     1.389   .     S
N43    H74     1.030   .     S
N44    H75     1.030   .     S
N45    H73     1.030   .     S
N46    H77     1.030   .     S
N47    H78     1.030   .     S
N48    H76     1.030   .     S
C55    H94     1.073   .     S
C56    H95     1.073   .     S
C57    H96     1.073   .     S
C58    H91     1.073   .     S
C59    H92     1.073   .     S
C60    H93     1.073   .     S
C61    C67     1.371   .     S
C61    H79     1.075   .     S
C62    C68     1.371   1_565 S
C62    H80     1.075   .     S
C63    C69     1.371   1_455 S
C63    H81     1.075   .     S
C64    C70     1.371   .     D
C64    H82     1.075   .     S
C65    C71     1.371   1_545 D
C65    H83     1.075   .     S
C66    C72     1.371   1_655 D
C66    H84     1.075   .     S
C67    H85     1.083   .     S
C68    C62     1.371   1_545 S
C68    H86     1.083   .     S
C69    C63     1.371   1_655 S
C69    H87     1.083   .     S
C70    H88     1.083   .     S
C71    C65     1.371   1_565 D
C71    H89     1.083   .     S
C72    C66     1.371   1_455 D
C72    H90     1.083   .     S
