data_1190
_audit_creation_date              2023-09-08
_audit_creation_method            'Materials Studio'
_symmetry_space_group_name_H-M    'P1'
_symmetry_Int_Tables_number       1
_symmetry_cell_setting            triclinic
loop_
_symmetry_equiv_pos_as_xyz
  x,y,z
_cell_length_a                    37.9761
_cell_length_b                    3.6924
_cell_length_c                    37.5870
_cell_angle_alpha                 90.0000
_cell_angle_beta                  120.0000
_cell_angle_gamma                 90.0000
loop_
_atom_site_label
_atom_site_type_symbol
_atom_site_fract_x
_atom_site_fract_y
_atom_site_fract_z
_atom_site_U_iso_or_equiv
_atom_site_adp_type
_atom_site_occupancy
C1     C     0.47568   0.50000   0.51894   0.00000  Uiso   1.00
C2     C     0.45010   0.50000   0.53886   0.00000  Uiso   1.00
C3     C     0.41063   0.50000   0.51896   0.00000  Uiso   1.00
C4     C     0.38650   0.50000   0.53731   0.00000  Uiso   1.00
C5     C     0.40123   0.50000   0.57631   0.00000  Uiso   1.00
C6     C     0.44095   0.50000   0.59671   0.00000  Uiso   1.00
C7     C     0.46479   0.50000   0.57801   0.00000  Uiso   1.00
C8     C     0.37412   0.50000   0.59415   0.00000  Uiso   1.00
C9     C     0.38204   0.50000   0.62869   0.00000  Uiso   1.00
C10    C     0.35418   0.50000   0.64579   0.00000  Uiso   1.00
C11    C     0.37077   0.50000   0.68819   0.00000  Uiso   1.00
C12    C     0.34558   0.50000   0.70578   0.00000  Uiso   1.00
N13    N     0.30505   0.50000   0.68102   0.00000  Uiso   1.00
C14    C     0.28749   0.50000   0.63970   0.00000  Uiso   1.00
C15    C     0.31208   0.50000   0.62134   0.00000  Uiso   1.00
C16    C     0.36142   0.50000   0.75056   0.00000  Uiso   1.00
C17    C     0.24283   0.50000   0.61457   0.00000  Uiso   1.00
C18    C     0.51839   0.50000   0.54272   0.00000  Uiso   1.00
C19    C     0.54229   0.50000   0.52410   0.00000  Uiso   1.00
C20    C     0.41262   0.50000   0.71263   0.00000  Uiso   1.00
N21    N     0.44601   0.50000   0.73216   0.00000  Uiso   1.00
C22    C     0.29444   0.50000   0.57831   0.00000  Uiso   1.00
N23    N     0.28027   0.50000   0.54390   0.00000  Uiso   1.00
C24    C     0.39626   0.50000   0.77809   0.00000  Uiso   1.00
C25    C     0.41574   0.50000   0.82338   0.00000  Uiso   1.00
C26    C     0.21843   0.50000   0.63062   0.00000  Uiso   1.00
C27    C     0.17378   0.50000   0.60449   0.00000  Uiso   1.00
C28    C     0.45514   0.50000   0.84711   0.00000  Uiso   1.00
C29    C     0.47539   0.50000   0.88990   0.00000  Uiso   1.00
C30    C     0.45703   0.50000   0.91041   0.00000  Uiso   1.00
C31    C     0.41744   0.50000   0.88651   0.00000  Uiso   1.00
C32    C     0.39689   0.50000   0.84356   0.00000  Uiso   1.00
C33    C     0.14836   0.50000   0.61850   0.00000  Uiso   1.00
C34    C     0.10605   0.50000   0.59338   0.00000  Uiso   1.00
C35    C     0.08808   0.50000   0.55390   0.00000  Uiso   1.00
C36    C     0.11385   0.50000   0.54085   0.00000  Uiso   1.00
C37    C     0.15606   0.50000   0.56567   0.00000  Uiso   1.00
C38    C     0.47900   0.50000   0.95632   0.00000  Uiso   1.00
C39    C     0.04291   0.50000   0.52632   0.00000  Uiso   1.00
C40    C     0.45757   0.50000   0.97787   0.00000  Uiso   1.00
C41    C     0.47821   0.50000   0.02079   0.00000  Uiso   1.00
C42    C     0.97447   0.50000   0.51670   0.00000  Uiso   1.00
C43    C     0.01664   0.50000   0.54256   0.00000  Uiso   1.00
H44    H     0.39851   0.50000   0.48958   0.00000  Uiso   1.00
H45    H     0.35627   0.50000   0.52115   0.00000  Uiso   1.00
H46    H     0.45395   0.50000   0.62686   0.00000  Uiso   1.00
H47    H     0.49439   0.50000   0.59402   0.00000  Uiso   1.00
H48    H     0.34605   0.50000   0.57776   0.00000  Uiso   1.00
H49    H     0.41024   0.50000   0.64665   0.00000  Uiso   1.00
H50    H     0.34293   0.50000   0.76002   0.00000  Uiso   1.00
H51    H     0.22934   0.50000   0.58154   0.00000  Uiso   1.00
H52    H     0.53366   0.50000   0.57588   0.00000  Uiso   1.00
H53    H     0.57494   0.50000   0.54373   0.00000  Uiso   1.00
H54    H     0.41233   0.50000   0.76675   0.00000  Uiso   1.00
H55    H     0.23120   0.50000   0.66356   0.00000  Uiso   1.00
H56    H     0.47024   0.50000   0.83243   0.00000  Uiso   1.00
H57    H     0.50503   0.50000   0.90678   0.00000  Uiso   1.00
H58    H     0.40252   0.50000   0.90077   0.00000  Uiso   1.00
H59    H     0.36663   0.50000   0.82662   0.00000  Uiso   1.00
H60    H     0.16130   0.50000   0.64826   0.00000  Uiso   1.00
H61    H     0.08764   0.50000   0.60445   0.00000  Uiso   1.00
H62    H     0.10158   0.50000   0.51177   0.00000  Uiso   1.00
H63    H     0.17471   0.50000   0.55474   0.00000  Uiso   1.00
H64    H     0.42473   0.50000   0.96178   0.00000  Uiso   1.00
H65    H     0.46035   0.50000   0.03589   0.00000  Uiso   1.00
H66    H     0.95563   0.50000   0.53072   0.00000  Uiso   1.00
H67    H     0.02846   0.50000   0.57535   0.00000  Uiso   1.00
C68    C     0.52432   0.50000   0.48106   0.00000  Uiso   1.00
C69    C     0.54990   0.50000   0.46114   0.00000  Uiso   1.00
C70    C     0.58937   0.50000   0.48104   0.00000  Uiso   1.00
C71    C     0.61350   0.50000   0.46269   0.00000  Uiso   1.00
C72    C     0.59877   0.50000   0.42369   0.00000  Uiso   1.00
C73    C     0.55905   0.50000   0.40329   0.00000  Uiso   1.00
C74    C     0.53521   0.50000   0.42199   0.00000  Uiso   1.00
C75    C     0.62588   0.50000   0.40585   0.00000  Uiso   1.00
C76    C     0.61796   0.50000   0.37131   0.00000  Uiso   1.00
C77    C     0.64582   0.50000   0.35421   0.00000  Uiso   1.00
C78    C     0.62923   0.50000   0.31181   0.00000  Uiso   1.00
C79    C     0.65442   0.50000   0.29422   0.00000  Uiso   1.00
N80    N     0.69495   0.50000   0.31898   0.00000  Uiso   1.00
C81    C     0.71251   0.50000   0.36030   0.00000  Uiso   1.00
C82    C     0.68792   0.50000   0.37866   0.00000  Uiso   1.00
C83    C     0.63858   0.50000   0.24944   0.00000  Uiso   1.00
C84    C     0.75717   0.50000   0.38543   0.00000  Uiso   1.00
C85    C     0.48161   0.50000   0.45728   0.00000  Uiso   1.00
C86    C     0.45771   0.50000   0.47590   0.00000  Uiso   1.00
C87    C     0.58738   0.50000   0.28737   0.00000  Uiso   1.00
N88    N     0.55399   0.50000   0.26784   0.00000  Uiso   1.00
C89    C     0.70556   0.50000   0.42169   0.00000  Uiso   1.00
N90    N     0.71973   0.50000   0.45610   0.00000  Uiso   1.00
C91    C     0.60374   0.50000   0.22191   0.00000  Uiso   1.00
C92    C     0.58426   0.50000   0.17662   0.00000  Uiso   1.00
C93    C     0.78157   0.50000   0.36938   0.00000  Uiso   1.00
C94    C     0.82622   0.50000   0.39551   0.00000  Uiso   1.00
C95    C     0.54486   0.50000   0.15289   0.00000  Uiso   1.00
C96    C     0.52461   0.50000   0.11010   0.00000  Uiso   1.00
C97    C     0.54297   0.50000   0.08959   0.00000  Uiso   1.00
C98    C     0.58256   0.50000   0.11349   0.00000  Uiso   1.00
C99    C     0.60311   0.50000   0.15644   0.00000  Uiso   1.00
C100   C     0.85164   0.50000   0.38150   0.00000  Uiso   1.00
C101   C     0.89395   0.50000   0.40662   0.00000  Uiso   1.00
C102   C     0.91192   0.50000   0.44610   0.00000  Uiso   1.00
C103   C     0.88615   0.50000   0.45915   0.00000  Uiso   1.00
C104   C     0.84394   0.50000   0.43433   0.00000  Uiso   1.00
C105   C     0.52100   0.50000   0.04368   0.00000  Uiso   1.00
C106   C     0.95709   0.50000   0.47368   0.00000  Uiso   1.00
C107   C     0.54243   0.50000   0.02213   0.00000  Uiso   1.00
C108   C     0.52179   0.50000   0.97921   0.00000  Uiso   1.00
C109   C     0.02553   0.50000   0.48330   0.00000  Uiso   1.00
C110   C     0.98336   0.50000   0.45744   0.00000  Uiso   1.00
H111   H     0.60149   0.50000   0.51042   0.00000  Uiso   1.00
H112   H     0.64373   0.50000   0.47885   0.00000  Uiso   1.00
H113   H     0.54605   0.50000   0.37314   0.00000  Uiso   1.00
H114   H     0.50561   0.50000   0.40598   0.00000  Uiso   1.00
H115   H     0.65395   0.50000   0.42224   0.00000  Uiso   1.00
H116   H     0.58976   0.50000   0.35335   0.00000  Uiso   1.00
H117   H     0.65707   0.50000   0.23998   0.00000  Uiso   1.00
H118   H     0.77066   0.50000   0.41846   0.00000  Uiso   1.00
H119   H     0.46634   0.50000   0.42412   0.00000  Uiso   1.00
H120   H     0.42506   0.50000   0.45627   0.00000  Uiso   1.00
H121   H     0.58767   0.50000   0.23325   0.00000  Uiso   1.00
H122   H     0.76880   0.50000   0.33644   0.00000  Uiso   1.00
H123   H     0.52976   0.50000   0.16757   0.00000  Uiso   1.00
H124   H     0.49497   0.50000   0.09322   0.00000  Uiso   1.00
H125   H     0.59748   0.50000   0.09923   0.00000  Uiso   1.00
H126   H     0.63337   0.50000   0.17338   0.00000  Uiso   1.00
H127   H     0.83870   0.50000   0.35174   0.00000  Uiso   1.00
H128   H     0.91236   0.50000   0.39555   0.00000  Uiso   1.00
H129   H     0.89842   0.50000   0.48823   0.00000  Uiso   1.00
H130   H     0.82529   0.50000   0.44526   0.00000  Uiso   1.00
H131   H     0.57527   0.50000   0.03822   0.00000  Uiso   1.00
H132   H     0.53965   0.50000   0.96411   0.00000  Uiso   1.00
H133   H     0.04437   0.50000   0.46928   0.00000  Uiso   1.00
H134   H     0.97154   0.50000   0.42465   0.00000  Uiso   1.00
loop_
_geom_bond_atom_site_label_1
_geom_bond_atom_site_label_2
_geom_bond_distance
_geom_bond_site_symmetry_2
_ccdc_geom_bond_type
C1     C2      1.494   .     S
C1     C18     1.407   .     D
C1     C86     1.407   .     S
C2     C3      1.298   .     D
C2     C7      1.287   .     S
C3     C4      1.396   .     S
C3     H44     0.961   .     S
C4     C5      1.281   .     D
C4     H45     0.995   .     S
C5     C6      1.306   .     S
C5     C8      1.483   .     S
C6     C7      1.396   .     D
C6     H46     0.984   .     S
C7     H47     0.974   .     S
C8     C9      1.177   .     D
C8     H48     0.927   .     S
C9     C10     1.487   .     S
C9     H49     0.938   .     S
C10    C11     1.390   .     S
C10    C15     1.390   .     D
C11    C12     1.409   .     D
C11    C20     1.382   .     S
C12    N13     1.343   .     S
C12    C16     1.477   .     S
N13    C14     1.349   .     D
C14    C15     1.412   .     S
C14    C17     1.472   .     S
C15    C22     1.408   .     S
C16    C24     1.205   .     D
C16    H50     0.932   .     S
C17    C26     1.335   .     D
C17    H51     1.081   .     S
C18    C19     1.396   .     S
C18    H52     1.080   .     S
C19    H53     1.080   .     S
C19    C68     1.407   .     D
C20    N21     1.103   .     T
C22    N23     1.125   .     T
C24    C25     1.478   .     S
C24    H54     0.902   .     S
C25    C28     1.304   .     D
C25    C32     1.277   .     S
C26    C27     1.475   .     S
C26    H55     1.081   .     S
C27    C33     1.311   .     D
C27    C37     1.265   .     S
C28    C29     1.393   .     S
C28    H56     0.975   .     S
C29    C30     1.272   .     D
C29    H57     0.977   .     S
C30    C31     1.310   .     S
C30    C38     1.495   .     S
C31    C32     1.398   .     D
C31    H58     0.955   .     S
C32    H59     0.997   .     S
C33    C34     1.399   .     S
C33    H60     0.971   .     S
C34    C35     1.287   .     D
C34    H61     0.976   .     S
C35    C36     1.296   .     S
C35    C39     1.496   .     S
C36    C37     1.394   .     D
C36    H62     0.950   .     S
C37    H63     0.980   .     S
C38    C40     1.406   .     D
C38    C108    1.408   .     S
C39    C43     1.406   .     S
C39    C109    1.408   .     D
C40    H64     1.080   .     S
C40    C41     1.397   1_556 S
C41    H65     1.080   .     S
C41    C105    1.408   .     D
C41    C40     1.397   1_554 S
C42    H66     1.080   .     S
C42    C106    1.408   .     S
C42    C43     1.397   1_655 D
C43    H67     1.080   .     S
C43    C42     1.397   1_455 D
C68    C69     1.494   .     S
C68    C85     1.407   .     S
C69    C70     1.298   .     D
C69    C74     1.287   .     S
C70    C71     1.396   .     S
C70    H111    0.961   .     S
C71    C72     1.281   .     D
C71    H112    0.995   .     S
C72    C73     1.306   .     S
C72    C75     1.483   .     S
C73    C74     1.396   .     D
C73    H113    0.984   .     S
C74    H114    0.974   .     S
C75    C76     1.177   .     D
C75    H115    0.927   .     S
C76    C77     1.487   .     S
C76    H116    0.938   .     S
C77    C78     1.390   .     S
C77    C82     1.390   .     D
C78    C79     1.409   .     D
C78    C87     1.382   .     S
C79    N80     1.343   .     S
C79    C83     1.477   .     S
N80    C81     1.349   .     D
C81    C82     1.412   .     S
C81    C84     1.472   .     S
C82    C89     1.408   .     S
C83    C91     1.205   .     D
C83    H117    0.932   .     S
C84    C93     1.335   .     D
C84    H118    1.081   .     S
C85    C86     1.396   .     D
C85    H119    1.080   .     S
C86    H120    1.080   .     S
C87    N88     1.103   .     T
C89    N90     1.125   .     T
C91    C92     1.478   .     S
C91    H121    0.902   .     S
C92    C95     1.304   .     D
C92    C99     1.277   .     S
C93    C94     1.475   .     S
C93    H122    1.081   .     S
C94    C100    1.311   .     D
C94    C104    1.265   .     S
C95    C96     1.393   .     S
C95    H123    0.975   .     S
C96    C97     1.272   .     D
C96    H124    0.977   .     S
C97    C98     1.310   .     S
C97    C105    1.495   .     S
C98    C99     1.398   .     D
C98    H125    0.955   .     S
C99    H126    0.997   .     S
C100   C101    1.399   .     S
C100   H127    0.971   .     S
C101   C102    1.287   .     D
C101   H128    0.976   .     S
C102   C103    1.296   .     S
C102   C106    1.496   .     S
C103   C104    1.394   .     D
C103   H129    0.950   .     S
C104   H130    0.980   .     S
C105   C107    1.406   .     S
C106   C110    1.406   .     D
C107   H131    1.080   .     S
C107   C108    1.397   1_554 D
C108   H132    1.080   .     S
C108   C107    1.397   1_556 D
C109   H133    1.080   .     S
C109   C110    1.397   1_455 S
C110   H134    1.080   .     S
C110   C109    1.397   1_655 S
