data_1191
_audit_creation_date              2023-09-08
_audit_creation_method            'Materials Studio'
_symmetry_space_group_name_H-M    'P1'
_symmetry_Int_Tables_number       1
_symmetry_cell_setting            triclinic
loop_
_symmetry_equiv_pos_as_xyz
  x,y,z
_cell_length_a                    37.9922
_cell_length_b                    37.9922
_cell_length_c                    3.4659
_cell_angle_alpha                 90.0000
_cell_angle_beta                  90.0000
_cell_angle_gamma                 120.0000
loop_
_atom_site_label
_atom_site_type_symbol
_atom_site_fract_x
_atom_site_fract_y
_atom_site_fract_z
_atom_site_U_iso_or_equiv
_atom_site_adp_type
_atom_site_occupancy
C1     C     0.51922   0.47552   0.50000   0.00000  Uiso   1.00
C2     C     0.53946   0.44972   0.50000   0.00000  Uiso   1.00
C3     C     0.51644   0.40673   0.50000   0.00000  Uiso   1.00
C4     C     0.53517   0.38310   0.50000   0.00000  Uiso   1.00
C5     C     0.57751   0.40112   0.50000   0.00000  Uiso   1.00
C6     C     0.60090   0.44370   0.50000   0.00000  Uiso   1.00
C7     C     0.58229   0.46748   0.50000   0.00000  Uiso   1.00
C8     C     0.59539   0.37412   0.50000   0.00000  Uiso   1.00
C9     C     0.63538   0.38701   0.50000   0.00000  Uiso   1.00
C10    C     0.65134   0.35880   0.50000   0.00000  Uiso   1.00
N11    N     0.69202   0.37400   0.50000   0.00000  Uiso   1.00
C12    C     0.54210   0.51838   0.50000   0.00000  Uiso   1.00
C13    C     0.52346   0.54212   0.50000   0.00000  Uiso   1.00
H14    H     0.48378   0.39025   0.50000   0.00000  Uiso   1.00
H15    H     0.51627   0.35031   0.50000   0.00000  Uiso   1.00
H16    H     0.63365   0.45927   0.50000   0.00000  Uiso   1.00
H17    H     0.60248   0.49980   0.50000   0.00000  Uiso   1.00
H18    H     0.57431   0.34165   0.50000   0.00000  Uiso   1.00
H19    H     0.65775   0.41889   0.50000   0.00000  Uiso   1.00
H20    H     0.57476   0.53480   0.50000   0.00000  Uiso   1.00
H21    H     0.54363   0.57445   0.50000   0.00000  Uiso   1.00
C22    C     0.52448   0.04370   0.50000   0.00000  Uiso   1.00
C23    C     0.55028   0.08974   0.50000   0.00000  Uiso   1.00
C24    C     0.59327   0.10971   0.50000   0.00000  Uiso   1.00
C25    C     0.61690   0.15207   0.50000   0.00000  Uiso   1.00
C26    C     0.59888   0.17639   0.50000   0.00000  Uiso   1.00
C27    C     0.55630   0.15720   0.50000   0.00000  Uiso   1.00
C28    C     0.53252   0.11481   0.50000   0.00000  Uiso   1.00
C29    C     0.62588   0.22127   0.50000   0.00000  Uiso   1.00
C30    C     0.61299   0.24837   0.50000   0.00000  Uiso   1.00
C31    C     0.64120   0.29254   0.50000   0.00000  Uiso   1.00
N32    N     0.62600   0.31802   0.50000   0.00000  Uiso   1.00
C33    C     0.48162   0.02372   0.50000   0.00000  Uiso   1.00
C34    C     0.45788   0.98134   0.50000   0.00000  Uiso   1.00
H35    H     0.60975   0.09353   0.50000   0.00000  Uiso   1.00
H36    H     0.64969   0.16596   0.50000   0.00000  Uiso   1.00
H37    H     0.54073   0.17438   0.50000   0.00000  Uiso   1.00
H38    H     0.50020   0.10268   0.50000   0.00000  Uiso   1.00
H39    H     0.65835   0.23266   0.50000   0.00000  Uiso   1.00
H40    H     0.58111   0.23886   0.50000   0.00000  Uiso   1.00
H41    H     0.46520   0.03996   0.50000   0.00000  Uiso   1.00
H42    H     0.42555   0.96918   0.50000   0.00000  Uiso   1.00
C43    C     0.95630   0.48078   0.50000   0.00000  Uiso   1.00
C44    C     0.91026   0.46054   0.50000   0.00000  Uiso   1.00
C45    C     0.89029   0.48356   0.50000   0.00000  Uiso   1.00
C46    C     0.84793   0.46483   0.50000   0.00000  Uiso   1.00
C47    C     0.82361   0.42249   0.50000   0.00000  Uiso   1.00
C48    C     0.84280   0.39910   0.50000   0.00000  Uiso   1.00
C49    C     0.88519   0.41771   0.50000   0.00000  Uiso   1.00
C50    C     0.77873   0.40461   0.50000   0.00000  Uiso   1.00
C51    C     0.75163   0.36462   0.50000   0.00000  Uiso   1.00
C52    C     0.70746   0.34866   0.50000   0.00000  Uiso   1.00
N53    N     0.68198   0.30798   0.50000   0.00000  Uiso   1.00
C54    C     0.97628   0.45790   0.50000   0.00000  Uiso   1.00
C55    C     0.01866   0.47654   0.50000   0.00000  Uiso   1.00
H56    H     0.90647   0.51622   0.50000   0.00000  Uiso   1.00
H57    H     0.83404   0.48373   0.50000   0.00000  Uiso   1.00
H58    H     0.82562   0.36635   0.50000   0.00000  Uiso   1.00
H59    H     0.89732   0.39752   0.50000   0.00000  Uiso   1.00
H60    H     0.76734   0.42569   0.50000   0.00000  Uiso   1.00
H61    H     0.76114   0.34225   0.50000   0.00000  Uiso   1.00
H62    H     0.96004   0.42524   0.50000   0.00000  Uiso   1.00
H63    H     0.03082   0.45637   0.50000   0.00000  Uiso   1.00
C64    C     0.48078   0.52448   0.50000   0.00000  Uiso   1.00
C65    C     0.46054   0.55028   0.50000   0.00000  Uiso   1.00
C66    C     0.48356   0.59327   0.50000   0.00000  Uiso   1.00
C67    C     0.46483   0.61690   0.50000   0.00000  Uiso   1.00
C68    C     0.42249   0.59888   0.50000   0.00000  Uiso   1.00
C69    C     0.39910   0.55630   0.50000   0.00000  Uiso   1.00
C70    C     0.41771   0.53252   0.50000   0.00000  Uiso   1.00
C71    C     0.40461   0.62588   0.50000   0.00000  Uiso   1.00
C72    C     0.36462   0.61299   0.50000   0.00000  Uiso   1.00
C73    C     0.34866   0.64120   0.50000   0.00000  Uiso   1.00
N74    N     0.30798   0.62600   0.50000   0.00000  Uiso   1.00
C75    C     0.45790   0.48162   0.50000   0.00000  Uiso   1.00
C76    C     0.47654   0.45788   0.50000   0.00000  Uiso   1.00
H77    H     0.51622   0.60975   0.50000   0.00000  Uiso   1.00
H78    H     0.48373   0.64969   0.50000   0.00000  Uiso   1.00
H79    H     0.36635   0.54073   0.50000   0.00000  Uiso   1.00
H80    H     0.39752   0.50020   0.50000   0.00000  Uiso   1.00
H81    H     0.42569   0.65835   0.50000   0.00000  Uiso   1.00
H82    H     0.34225   0.58111   0.50000   0.00000  Uiso   1.00
H83    H     0.42524   0.46520   0.50000   0.00000  Uiso   1.00
H84    H     0.45637   0.42555   0.50000   0.00000  Uiso   1.00
C85    C     0.47552   0.95630   0.50000   0.00000  Uiso   1.00
C86    C     0.44972   0.91026   0.50000   0.00000  Uiso   1.00
C87    C     0.40673   0.89029   0.50000   0.00000  Uiso   1.00
C88    C     0.38310   0.84793   0.50000   0.00000  Uiso   1.00
C89    C     0.40112   0.82361   0.50000   0.00000  Uiso   1.00
C90    C     0.44370   0.84280   0.50000   0.00000  Uiso   1.00
C91    C     0.46748   0.88519   0.50000   0.00000  Uiso   1.00
C92    C     0.37412   0.77873   0.50000   0.00000  Uiso   1.00
C93    C     0.38701   0.75163   0.50000   0.00000  Uiso   1.00
C94    C     0.35880   0.70746   0.50000   0.00000  Uiso   1.00
N95    N     0.37400   0.68198   0.50000   0.00000  Uiso   1.00
C96    C     0.51838   0.97628   0.50000   0.00000  Uiso   1.00
C97    C     0.54212   0.01866   0.50000   0.00000  Uiso   1.00
H98    H     0.39025   0.90647   0.50000   0.00000  Uiso   1.00
H99    H     0.35031   0.83404   0.50000   0.00000  Uiso   1.00
H100   H     0.45927   0.82562   0.50000   0.00000  Uiso   1.00
H101   H     0.49980   0.89732   0.50000   0.00000  Uiso   1.00
H102   H     0.34165   0.76734   0.50000   0.00000  Uiso   1.00
H103   H     0.41889   0.76114   0.50000   0.00000  Uiso   1.00
H104   H     0.53480   0.96004   0.50000   0.00000  Uiso   1.00
H105   H     0.57445   0.03082   0.50000   0.00000  Uiso   1.00
C106   C     0.04370   0.51922   0.50000   0.00000  Uiso   1.00
C107   C     0.08974   0.53946   0.50000   0.00000  Uiso   1.00
C108   C     0.10971   0.51644   0.50000   0.00000  Uiso   1.00
C109   C     0.15207   0.53517   0.50000   0.00000  Uiso   1.00
C110   C     0.17639   0.57751   0.50000   0.00000  Uiso   1.00
C111   C     0.15720   0.60090   0.50000   0.00000  Uiso   1.00
C112   C     0.11481   0.58229   0.50000   0.00000  Uiso   1.00
C113   C     0.22127   0.59539   0.50000   0.00000  Uiso   1.00
C114   C     0.24837   0.63538   0.50000   0.00000  Uiso   1.00
C115   C     0.29254   0.65134   0.50000   0.00000  Uiso   1.00
N116   N     0.31802   0.69202   0.50000   0.00000  Uiso   1.00
C117   C     0.02372   0.54210   0.50000   0.00000  Uiso   1.00
C118   C     0.98134   0.52346   0.50000   0.00000  Uiso   1.00
H119   H     0.09353   0.48378   0.50000   0.00000  Uiso   1.00
H120   H     0.16596   0.51627   0.50000   0.00000  Uiso   1.00
H121   H     0.17438   0.63365   0.50000   0.00000  Uiso   1.00
H122   H     0.10268   0.60248   0.50000   0.00000  Uiso   1.00
H123   H     0.23266   0.57431   0.50000   0.00000  Uiso   1.00
H124   H     0.23886   0.65775   0.50000   0.00000  Uiso   1.00
H125   H     0.03996   0.57476   0.50000   0.00000  Uiso   1.00
H126   H     0.96918   0.54363   0.50000   0.00000  Uiso   1.00
loop_
_geom_bond_atom_site_label_1
_geom_bond_atom_site_label_2
_geom_bond_distance
_geom_bond_site_symmetry_2
_ccdc_geom_bond_type
C1     C2      1.518   .     S
C1     C12     1.411   .     S
C1     C76     1.411   .     D
C2     C3      1.416   .     S
C2     C7      1.416   .     D
C3     C4      1.397   .     D
C3     H14     1.075   .     S
C4     C5      1.398   .     S
C4     H15     1.083   .     S
C5     C6      1.403   .     D
C5     C8      1.487   .     S
C6     C7      1.398   .     S
C6     H16     1.078   .     S
C7     H17     1.074   .     S
C8     C9      1.343   .     D
C8     H18     1.084   .     S
C9     C10     1.472   .     S
C9     H19     1.077   .     S
C10    N11     1.353   .     S
C10    N32     1.355   .     D
N11    C52     1.355   .     D
C12    C13     1.398   .     D
C12    H20     1.075   .     S
C13    H21     1.075   .     S
C13    C64     1.411   .     S
C22    C23     1.518   .     S
C22    C33     1.411   .     D
C22    C97     1.411   .     S
C23    C24     1.416   .     D
C23    C28     1.416   .     S
C24    C25     1.397   .     S
C24    H35     1.075   .     S
C25    C26     1.398   .     D
C25    H36     1.083   .     S
C26    C27     1.403   .     S
C26    C29     1.487   .     S
C27    C28     1.398   .     D
C27    H37     1.078   .     S
C28    H38     1.074   .     S
C29    C30     1.343   .     D
C29    H39     1.084   .     S
C30    C31     1.472   .     S
C30    H40     1.077   .     S
C31    N32     1.353   .     S
C31    N53     1.355   .     D
C33    H41     1.075   .     S
C33    C34     1.398   1_545 S
C34    H42     1.075   .     S
C34    C85     1.411   .     D
C34    C33     1.398   1_565 S
C43    C44     1.518   .     S
C43    C54     1.411   .     D
C43    C118    1.411   .     S
C44    C45     1.416   .     D
C44    C49     1.416   .     S
C45    C46     1.397   .     S
C45    H56     1.075   .     S
C46    C47     1.398   .     D
C46    H57     1.083   .     S
C47    C48     1.403   .     S
C47    C50     1.487   .     S
C48    C49     1.398   .     D
C48    H58     1.078   .     S
C49    H59     1.074   .     S
C50    C51     1.343   .     D
C50    H60     1.084   .     S
C51    C52     1.472   .     S
C51    H61     1.077   .     S
C52    N53     1.353   .     S
C54    H62     1.075   .     S
C54    C55     1.398   1_655 S
C55    H63     1.075   .     S
C55    C106    1.411   .     D
C55    C54     1.398   1_455 S
C64    C65     1.518   .     S
C64    C75     1.411   .     D
C65    C66     1.416   .     S
C65    C70     1.416   .     D
C66    C67     1.397   .     D
C66    H77     1.075   .     S
C67    C68     1.398   .     S
C67    H78     1.083   .     S
C68    C69     1.403   .     D
C68    C71     1.487   .     S
C69    C70     1.398   .     S
C69    H79     1.078   .     S
C70    H80     1.074   .     S
C71    C72     1.343   .     D
C71    H81     1.084   .     S
C72    C73     1.472   .     S
C72    H82     1.077   .     S
C73    N74     1.353   .     D
C73    N95     1.355   .     S
N74    C115    1.355   .     S
C75    C76     1.398   .     S
C75    H83     1.075   .     S
C76    H84     1.075   .     S
C85    C86     1.518   .     S
C85    C96     1.411   .     S
C86    C87     1.416   .     D
C86    C91     1.416   .     S
C87    C88     1.397   .     S
C87    H98     1.075   .     S
C88    C89     1.398   .     D
C88    H99     1.083   .     S
C89    C90     1.403   .     S
C89    C92     1.487   .     S
C90    C91     1.398   .     D
C90    H100    1.078   .     S
C91    H101    1.074   .     S
C92    C93     1.343   .     D
C92    H102    1.084   .     S
C93    C94     1.472   .     S
C93    H103    1.077   .     S
C94    N95     1.353   .     D
C94    N116    1.355   .     S
C96    H104    1.075   .     S
C96    C97     1.398   1_565 D
C97    H105    1.075   .     S
C97    C96     1.398   1_545 D
C106   C107    1.518   .     S
C106   C117    1.411   .     S
C107   C108    1.416   .     D
C107   C112    1.416   .     S
C108   C109    1.397   .     S
C108   H119    1.075   .     S
C109   C110    1.398   .     D
C109   H120    1.083   .     S
C110   C111    1.403   .     S
C110   C113    1.487   .     S
C111   C112    1.398   .     D
C111   H121    1.078   .     S
C112   H122    1.074   .     S
C113   C114    1.343   .     D
C113   H123    1.084   .     S
C114   C115    1.472   .     S
C114   H124    1.077   .     S
C115   N116    1.353   .     D
C117   H125    1.075   .     S
C117   C118    1.398   1_455 D
C118   H126    1.075   .     S
C118   C117    1.398   1_655 D
