data_1192
_audit_creation_date              2023-09-08
_audit_creation_method            'Materials Studio'
_symmetry_space_group_name_H-M    'P1'
_symmetry_Int_Tables_number       1
_symmetry_cell_setting            triclinic
loop_
_symmetry_equiv_pos_as_xyz
  x,y,z
_cell_length_a                    19.5434
_cell_length_b                    3.4607
_cell_length_c                    19.5168
_cell_angle_alpha                 90.0000
_cell_angle_beta                  122.9112
_cell_angle_gamma                 90.0000
loop_
_atom_site_label
_atom_site_type_symbol
_atom_site_fract_x
_atom_site_fract_y
_atom_site_fract_z
_atom_site_U_iso_or_equiv
_atom_site_adp_type
_atom_site_occupancy
C11    C     0.50048   0.50000   0.50577   0.00000  Uiso   1.00
C22    C     0.44834   0.50000   0.54212   0.00000  Uiso   1.00
C33    C     0.36207   0.50000   0.49202   0.00000  Uiso   1.00
C44    C     0.31430   0.50000   0.52510   0.00000  Uiso   1.00
C55    C     0.34953   0.50000   0.60952   0.00000  Uiso   1.00
C66    C     0.43498   0.50000   0.66055   0.00000  Uiso   1.00
C77    C     0.48324   0.50000   0.62760   0.00000  Uiso   1.00
C88    C     0.29345   0.50000   0.63919   0.00000  Uiso   1.00
C99    C     0.31657   0.50000   0.71805   0.00000  Uiso   1.00
C1010  C     0.26363   0.50000   0.75379   0.00000  Uiso   1.00
C1111  C     0.30401   0.50000   0.84085   0.00000  Uiso   1.00
C1212  C     0.25782   0.50000   0.87798   0.00000  Uiso   1.00
N1313  N     0.17528   0.50000   0.82876   0.00000  Uiso   1.00
C1414  C     0.13363   0.50000   0.74623   0.00000  Uiso   1.00
C1515  C     0.17663   0.50000   0.70669   0.00000  Uiso   1.00
C1616  C     0.28989   0.50000   0.96769   0.00000  Uiso   1.00
C1717  C     0.04277   0.50000   0.69798   0.00000  Uiso   1.00
C1818  C     0.58681   0.50000   0.55599   0.00000  Uiso   1.00
C1919  C     0.63606   0.50000   0.52358   0.00000  Uiso   1.00
C2020  C     0.59553   0.50000   0.43791   0.00000  Uiso   1.00
C2121  C     0.51027   0.50000   0.38435   0.00000  Uiso   1.00
C2222  C     0.46423   0.50000   0.42012   0.00000  Uiso   1.00
C2323  C     0.39203   0.50000   0.88928   0.00000  Uiso   1.00
N2424  N     0.46263   0.50000   0.92647   0.00000  Uiso   1.00
C2525  C     0.12875   0.50000   0.61857   0.00000  Uiso   1.00
N2626  N     0.08845   0.50000   0.54790   0.00000  Uiso   1.00
C2727  C     0.72918   0.50000   0.57765   0.00000  Uiso   1.00
C2828  C     0.47056   0.50000   0.29183   0.00000  Uiso   1.00
C2929  C     0.77678   0.50000   0.54309   0.00000  Uiso   1.00
C3030  C     0.86129   0.50000   0.59061   0.00000  Uiso   1.00
C3131  C     0.90442   0.50000   0.67622   0.00000  Uiso   1.00
C3232  C     0.85887   0.50000   0.71226   0.00000  Uiso   1.00
C3333  C     0.77303   0.50000   0.66423   0.00000  Uiso   1.00
C3434  C     0.38464   0.50000   0.23563   0.00000  Uiso   1.00
C3535  C     0.34948   0.50000   0.15075   0.00000  Uiso   1.00
C3636  C     0.39886   0.50000   0.11893   0.00000  Uiso   1.00
C3737  C     0.48329   0.50000   0.17354   0.00000  Uiso   1.00
C3838  C     0.51837   0.50000   0.25735   0.00000  Uiso   1.00
C3939  C     0.99576   0.50000   0.72886   0.00000  Uiso   1.00
C4040  C     0.36828   0.50000   0.03062   0.00000  Uiso   1.00
H4141  H     0.32852   0.50000   0.42658   0.00000  Uiso   1.00
H4242  H     0.24859   0.50000   0.48377   0.00000  Uiso   1.00
H4343  H     0.46605   0.50000   0.72613   0.00000  Uiso   1.00
H4444  H     0.54791   0.50000   0.67134   0.00000  Uiso   1.00
H4545  H     0.23099   0.50000   0.59089   0.00000  Uiso   1.00
H4646  H     0.38120   0.50000   0.76117   0.00000  Uiso   1.00
H4747  H     0.24302   0.50000   0.98099   0.00000  Uiso   1.00
H4848  H     0.01380   0.50000   0.63331   0.00000  Uiso   1.00
H4949  H     0.61620   0.50000   0.62053   0.00000  Uiso   1.00
H5050  H     0.63080   0.50000   0.41229   0.00000  Uiso   1.00
H5151  H     0.39984   0.50000   0.38053   0.00000  Uiso   1.00
H5252  H     0.75196   0.50000   0.47881   0.00000  Uiso   1.00
H5353  H     0.89063   0.50000   0.55731   0.00000  Uiso   1.00
H5454  H     0.88985   0.50000   0.77808   0.00000  Uiso   1.00
H5555  H     0.74288   0.50000   0.69676   0.00000  Uiso   1.00
H5656  H     0.34264   0.50000   0.25506   0.00000  Uiso   1.00
H5757  H     0.28390   0.50000   0.11089   0.00000  Uiso   1.00
H5858  H     0.52334   0.50000   0.15115   0.00000  Uiso   1.00
H5959  H     0.58370   0.50000   0.29234   0.00000  Uiso   1.00
H6060  H     0.02502   0.50000   0.79453   0.00000  Uiso   1.00
H6161  H     0.41624   0.50000   0.02020   0.00000  Uiso   1.00
loop_
_geom_bond_atom_site_label_1
_geom_bond_atom_site_label_2
_geom_bond_distance
_geom_bond_site_symmetry_2
_ccdc_geom_bond_type
C11    C22     1.526   .     S
C11    C1818   1.418   .     D
C11    C2222   1.417   .     S
C22    C33     1.417   .     D
C22    C77     1.418   .     S
C33    C44     1.394   .     S
C33    H4141   1.073   .     S
C44    C55     1.399   .     D
C44    H4242   1.084   .     S
C55    C66     1.405   .     S
C55    C88     1.492   .     S
C66    C77     1.401   .     D
C66    H4343   1.078   .     S
C77    H4444   1.074   .     S
C88    C99     1.348   .     D
C88    H4545   1.062   .     S
C99    C1010   1.530   .     S
C99    H4646   1.072   .     S
C1010  C1111   1.433   .     D
C1010  C1515   1.427   .     S
C1111  C1212   1.432   .     S
C1111  C2323   1.444   .     S
C1212  N1313   1.357   .     D
C1212  C1616   1.505   .     S
N1313  C1414   1.354   .     S
C1414  C1515   1.416   .     D
C1414  C1717   1.491   .     S
C1515  C2525   1.444   .     S
C1616  H4747   1.079   .     S
C1616  C4040   1.346   1_556 D
C1717  H4848   1.066   .     S
C1717  C3939   1.345   1_455 D
C1818  C1919   1.410   .     S
C1818  H4949   1.063   .     S
C1919  C2020   1.408   .     D
C1919  C2727   1.529   .     S
C2020  C2121   1.406   .     S
C2020  H5050   1.049   .     S
C2121  C2222   1.407   .     D
C2121  C2828   1.530   .     S
C2222  H5151   1.060   .     S
C2323  N2424   1.159   .     T
C2525  N2626   1.159   .     T
C2727  C2929   1.415   .     D
C2727  C3333   1.420   .     S
C2828  C3434   1.422   .     S
C2828  C3838   1.417   .     D
C2929  C3030   1.387   .     S
C2929  H5252   1.071   .     S
C3030  C3131   1.404   .     D
C3030  H5353   1.075   .     S
C3131  C3232   1.403   .     S
C3131  C3939   1.500   .     S
C3232  C3333   1.409   .     D
C3232  H5454   1.082   .     S
C3333  H5555   1.076   .     S
C3434  C3535   1.407   .     D
C3434  H5656   1.075   .     S
C3535  C3636   1.403   .     S
C3535  H5757   1.079   .     S
C3636  C3737   1.396   .     D
C3636  C4040   1.486   .     S
C3737  C3838   1.388   .     S
C3737  H5858   1.084   .     S
C3838  H5959   1.072   .     S
C3939  C1717   1.345   1_655 D
C3939  H6060   1.083   1_655 S
C4040  H6161   1.062   .     S
C4040  C1616   1.346   1_554 D
H6060  C3939   1.083   1_455 S
