data_1193
_audit_creation_date              2023-09-08
_audit_creation_method            'Materials Studio'
_symmetry_space_group_name_H-M    'P1'
_symmetry_Int_Tables_number       1
_symmetry_cell_setting            triclinic
loop_
_symmetry_equiv_pos_as_xyz
  x,y,z
_cell_length_a                    19.0061
_cell_length_b                    19.0061
_cell_length_c                    3.4580
_cell_angle_alpha                 90.0000
_cell_angle_beta                  90.0000
_cell_angle_gamma                 120.0000
loop_
_atom_site_label
_atom_site_type_symbol
_atom_site_fract_x
_atom_site_fract_y
_atom_site_fract_z
_atom_site_U_iso_or_equiv
_atom_site_adp_type
_atom_site_occupancy
C1     C     0.43381   0.58780   0.50000   0.00000  Uiso   1.00
C2     C     0.39856   0.50204   0.50000   0.00000  Uiso   1.00
C3     C     0.44613   0.46489   0.50000   0.00000  Uiso   1.00
C4     C     0.53118   0.51155   0.50000   0.00000  Uiso   1.00
C5     C     0.56713   0.59611   0.50000   0.00000  Uiso   1.00
C6     C     0.51994   0.63360   0.50000   0.00000  Uiso   1.00
C7     C     0.58514   0.47580   0.50000   0.00000  Uiso   1.00
C8     C     0.55936   0.39587   0.50000   0.00000  Uiso   1.00
C9     C     0.61575   0.36397   0.50000   0.00000  Uiso   1.00
N10    N     0.58537   0.28265   0.50000   0.00000  Uiso   1.00
C11    C     0.38194   0.62851   0.50000   0.00000  Uiso   1.00
C12    C     0.41755   0.71384   0.50000   0.00000  Uiso   1.00
H13    H     0.33415   0.46101   0.50000   0.00000  Uiso   1.00
H14    H     0.41505   0.39942   0.50000   0.00000  Uiso   1.00
H15    H     0.63267   0.63386   0.50000   0.00000  Uiso   1.00
H16    H     0.55364   0.69880   0.50000   0.00000  Uiso   1.00
H17    H     0.65004   0.51794   0.50000   0.00000  Uiso   1.00
H18    H     0.49564   0.35115   0.50000   0.00000  Uiso   1.00
H19    H     0.48166   0.74975   0.50000   0.00000  Uiso   1.00
C20    C     0.41220   0.84601   0.50000   0.00000  Uiso   1.00
C21    C     0.49796   0.89652   0.50000   0.00000  Uiso   1.00
C22    C     0.53511   0.98124   0.50000   0.00000  Uiso   1.00
C23    C     0.48845   0.01963   0.50000   0.00000  Uiso   1.00
C24    C     0.40389   0.97102   0.50000   0.00000  Uiso   1.00
C25    C     0.36640   0.88634   0.50000   0.00000  Uiso   1.00
C26    C     0.52420   0.10934   0.50000   0.00000  Uiso   1.00
C27    C     0.60413   0.16349   0.50000   0.00000  Uiso   1.00
C28    C     0.63603   0.25178   0.50000   0.00000  Uiso   1.00
N29    N     0.71735   0.30272   0.50000   0.00000  Uiso   1.00
C30    C     0.37149   0.75343   0.50000   0.00000  Uiso   1.00
C31    C     0.28616   0.70371   0.50000   0.00000  Uiso   1.00
H32    H     0.53899   0.87314   0.50000   0.00000  Uiso   1.00
H33    H     0.60058   0.01563   0.50000   0.00000  Uiso   1.00
H34    H     0.36614   0.99881   0.50000   0.00000  Uiso   1.00
H35    H     0.30120   0.85484   0.50000   0.00000  Uiso   1.00
H36    H     0.48206   0.13210   0.50000   0.00000  Uiso   1.00
H37    H     0.64885   0.14449   0.50000   0.00000  Uiso   1.00
H38    H     0.25025   0.73191   0.50000   0.00000  Uiso   1.00
C39    C     0.15399   0.56619   0.50000   0.00000  Uiso   1.00
C40    C     0.10348   0.60144   0.50000   0.00000  Uiso   1.00
C41    C     0.01876   0.55387   0.50000   0.00000  Uiso   1.00
C42    C     0.98037   0.46882   0.50000   0.00000  Uiso   1.00
C43    C     0.02898   0.43287   0.50000   0.00000  Uiso   1.00
C44    C     0.11366   0.48006   0.50000   0.00000  Uiso   1.00
C45    C     0.89066   0.41486   0.50000   0.00000  Uiso   1.00
C46    C     0.83651   0.44064   0.50000   0.00000  Uiso   1.00
C47    C     0.74822   0.38425   0.50000   0.00000  Uiso   1.00
N48    N     0.69728   0.41463   0.50000   0.00000  Uiso   1.00
C49    C     0.24657   0.61806   0.50000   0.00000  Uiso   1.00
C50    C     0.29629   0.58245   0.50000   0.00000  Uiso   1.00
H51    H     0.12686   0.66585   0.50000   0.00000  Uiso   1.00
H52    H     0.98437   0.58495   0.50000   0.00000  Uiso   1.00
H53    H     0.00119   0.36733   0.50000   0.00000  Uiso   1.00
H54    H     0.14516   0.44636   0.50000   0.00000  Uiso   1.00
H55    H     0.86790   0.34996   0.50000   0.00000  Uiso   1.00
H56    H     0.85551   0.50436   0.50000   0.00000  Uiso   1.00
H57    H     0.26809   0.51834   0.50000   0.00000  Uiso   1.00
loop_
_geom_bond_atom_site_label_1
_geom_bond_atom_site_label_2
_geom_bond_distance
_geom_bond_site_symmetry_2
_ccdc_geom_bond_type
C1     C2      1.419   .     D
C1     C6      1.419   .     S
C1     C11     1.528   .     S
C2     C3      1.398   .     S
C2     H13     1.073   .     S
C3     C4      1.402   .     D
C3     H14     1.078   .     S
C4     C5      1.397   .     S
C4     C7      1.487   .     S
C5     C6      1.397   .     D
C5     H15     1.083   .     S
C6     H16     1.073   .     S
C7     C8      1.343   .     D
C7     H17     1.084   .     S
C8     C9      1.472   .     S
C8     H18     1.077   .     S
C9     N10     1.353   .     S
C9     N48     1.355   .     D
N10    C28     1.355   .     D
C11    C12     1.411   .     S
C11    C50     1.411   .     D
C12    H19     1.058   .     S
C12    C30     1.411   .     D
C20    C21     1.419   .     D
C20    C25     1.419   .     S
C20    C30     1.528   .     S
C21    C22     1.398   .     S
C21    H32     1.073   .     S
C22    C23     1.402   1_565 D
C22    H33     1.078   1_565 S
C23    C26     1.487   .     S
C23    C22     1.402   1_545 D
C23    C24     1.397   1_545 S
C24    C25     1.397   .     D
C24    H34     1.083   .     S
C24    C23     1.397   1_565 S
C25    H35     1.073   .     S
C26    C27     1.343   .     D
C26    H36     1.084   .     S
C27    C28     1.472   .     S
C27    H37     1.077   .     S
C28    N29     1.353   .     S
N29    C47     1.355   .     D
C30    C31     1.411   .     S
C31    H38     1.058   .     S
C31    C49     1.411   .     D
H33    C22     1.078   1_545 S
C39    C40     1.419   .     D
C39    C44     1.419   .     S
C39    C49     1.528   .     S
C40    C41     1.398   .     S
C40    H51     1.073   .     S
C41    C42     1.402   1_455 D
C41    H52     1.078   1_455 S
C42    C45     1.487   .     S
C42    C41     1.402   1_655 D
C42    C43     1.397   1_655 S
C43    C44     1.397   .     D
C43    H53     1.083   .     S
C43    C42     1.397   1_455 S
C44    H54     1.073   .     S
C45    C46     1.343   .     D
C45    H55     1.084   .     S
C46    C47     1.472   .     S
C46    H56     1.077   .     S
C47    N48     1.353   .     S
C49    C50     1.411   .     S
C50    H57     1.058   .     S
H52    C41     1.078   1_655 S
