data_1194
_audit_creation_date              2023-09-08
_audit_creation_method            'Materials Studio'
_symmetry_space_group_name_H-M    'P1'
_symmetry_Int_Tables_number       1
_symmetry_cell_setting            triclinic
loop_
_symmetry_equiv_pos_as_xyz
  x,y,z
_cell_length_a                    19.3832
_cell_length_b                    3.4632
_cell_length_c                    19.3021
_cell_angle_alpha                 90.0000
_cell_angle_beta                  123.7707
_cell_angle_gamma                 90.0000
loop_
_atom_site_label
_atom_site_type_symbol
_atom_site_fract_x
_atom_site_fract_y
_atom_site_fract_z
_atom_site_U_iso_or_equiv
_atom_site_adp_type
_atom_site_occupancy
C11    C     0.46812   0.50000   0.50185   0.00000  Uiso   1.00
C22    C     0.41675   0.50000   0.53705   0.00000  Uiso   1.00
C33    C     0.32978   0.50000   0.48386   0.00000  Uiso   1.00
C44    C     0.28095   0.50000   0.51627   0.00000  Uiso   1.00
C55    C     0.31725   0.50000   0.60272   0.00000  Uiso   1.00
C66    C     0.40466   0.50000   0.65625   0.00000  Uiso   1.00
C77    C     0.45361   0.50000   0.62361   0.00000  Uiso   1.00
C88    C     0.26031   0.50000   0.63187   0.00000  Uiso   1.00
C99    C     0.28421   0.50000   0.71214   0.00000  Uiso   1.00
C1010  C     0.23071   0.50000   0.74770   0.00000  Uiso   1.00
C1111  C     0.27232   0.50000   0.83656   0.00000  Uiso   1.00
C1212  C     0.22570   0.50000   0.87359   0.00000  Uiso   1.00
N1313  N     0.14170   0.50000   0.82267   0.00000  Uiso   1.00
C1414  C     0.09879   0.50000   0.73847   0.00000  Uiso   1.00
C1515  C     0.14206   0.50000   0.69881   0.00000  Uiso   1.00
C1616  C     0.25853   0.50000   0.96483   0.00000  Uiso   1.00
C1717  C     0.00633   0.50000   0.68897   0.00000  Uiso   1.00
N1818  N     0.55251   0.50000   0.55297   0.00000  Uiso   1.00
C1919  C     0.59887   0.50000   0.52020   0.00000  Uiso   1.00
N2020  N     0.56014   0.50000   0.43651   0.00000  Uiso   1.00
C2121  C     0.47663   0.50000   0.38476   0.00000  Uiso   1.00
N2222  N     0.43066   0.50000   0.41776   0.00000  Uiso   1.00
C2323  C     0.36194   0.50000   0.88704   0.00000  Uiso   1.00
N2424  N     0.43382   0.50000   0.92592   0.00000  Uiso   1.00
C2525  C     0.09276   0.50000   0.60885   0.00000  Uiso   1.00
N2626  N     0.05136   0.50000   0.53668   0.00000  Uiso   1.00
C2727  C     0.69111   0.50000   0.57329   0.00000  Uiso   1.00
C2828  C     0.43775   0.50000   0.29325   0.00000  Uiso   1.00
C2929  C     0.73465   0.50000   0.53466   0.00000  Uiso   1.00
C3030  C     0.82080   0.50000   0.58127   0.00000  Uiso   1.00
C3131  C     0.86742   0.50000   0.66913   0.00000  Uiso   1.00
C3232  C     0.82399   0.50000   0.70820   0.00000  Uiso   1.00
C3333  C     0.73667   0.50000   0.66086   0.00000  Uiso   1.00
C3434  C     0.35110   0.50000   0.23574   0.00000  Uiso   1.00
C3535  C     0.31656   0.50000   0.14957   0.00000  Uiso   1.00
C3636  C     0.36841   0.50000   0.11967   0.00000  Uiso   1.00
C3737  C     0.45467   0.50000   0.17760   0.00000  Uiso   1.00
C3838  C     0.48880   0.50000   0.26279   0.00000  Uiso   1.00
C3939  C     0.96030   0.50000   0.72138   0.00000  Uiso   1.00
C4040  C     0.33828   0.50000   0.03007   0.00000  Uiso   1.00
H4141  H     0.29939   0.50000   0.41686   0.00000  Uiso   1.00
H4242  H     0.21406   0.50000   0.47324   0.00000  Uiso   1.00
H4343  H     0.43652   0.50000   0.72314   0.00000  Uiso   1.00
H4444  H     0.52053   0.50000   0.66613   0.00000  Uiso   1.00
H4545  H     0.19660   0.50000   0.58205   0.00000  Uiso   1.00
H4646  H     0.35005   0.50000   0.75678   0.00000  Uiso   1.00
H4747  H     0.21066   0.50000   0.97721   0.00000  Uiso   1.00
H4848  H     0.97548   0.50000   0.62274   0.00000  Uiso   1.00
H4949  H     0.70186   0.50000   0.46739   0.00000  Uiso   1.00
H5050  H     0.84861   0.50000   0.54613   0.00000  Uiso   1.00
H5151  H     0.85773   0.50000   0.77552   0.00000  Uiso   1.00
H5252  H     0.70469   0.50000   0.69234   0.00000  Uiso   1.00
H5353  H     0.31036   0.50000   0.25760   0.00000  Uiso   1.00
H5454  H     0.24986   0.50000   0.10748   0.00000  Uiso   1.00
H5555  H     0.49639   0.50000   0.15686   0.00000  Uiso   1.00
H5656  H     0.55574   0.50000   0.30509   0.00000  Uiso   1.00
H5757  H     0.99172   0.50000   0.78854   0.00000  Uiso   1.00
H5858  H     0.38745   0.50000   0.02079   0.00000  Uiso   1.00
loop_
_geom_bond_atom_site_label_1
_geom_bond_atom_site_label_2
_geom_bond_distance
_geom_bond_site_symmetry_2
_ccdc_geom_bond_type
C11    C22     1.485   .     S
C11    N1818   1.362   .     D
C11    N2222   1.361   .     S
C22    C33     1.404   .     D
C22    C77     1.405   .     S
C33    C44     1.395   .     S
C33    H4141   1.083   .     S
C44    C55     1.405   .     D
C44    H4242   1.083   .     S
C55    C66     1.411   .     S
C55    C88     1.492   .     S
C66    C77     1.401   .     D
C66    H4343   1.078   .     S
C77    H4444   1.083   .     S
C88    C99     1.348   .     D
C88    H4545   1.063   .     S
C99    C1010   1.529   .     S
C99    H4646   1.072   .     S
C1010  C1111   1.433   .     D
C1010  C1515   1.428   .     S
C1111  C1212   1.430   .     S
C1111  C2323   1.444   .     S
C1212  N1313   1.356   .     D
C1212  C1616   1.504   .     S
N1313  C1414   1.353   .     S
C1414  C1515   1.415   .     D
C1414  C1717   1.490   .     S
C1515  C2525   1.443   .     S
C1616  H4747   1.079   .     S
C1616  C4040   1.346   1_556 D
C1717  C3939   1.345   1_455 D
C1717  H4848   1.069   1_455 S
N1818  C1919   1.356   .     S
C1919  N2020   1.351   .     D
C1919  C2727   1.487   .     S
N2020  C2121   1.349   .     S
C2121  N2222   1.353   .     D
C2121  C2828   1.486   .     S
C2323  N2424   1.158   .     T
C2525  N2626   1.158   .     T
C2727  C2929   1.403   .     D
C2727  C3333   1.406   .     S
C2828  C3434   1.407   .     S
C2828  C3838   1.404   .     D
C2929  C3030   1.388   .     S
C2929  H4949   1.083   .     S
C3030  C3131   1.410   .     D
C3030  H5050   1.076   .     S
C3131  C3232   1.408   .     S
C3131  C3939   1.497   .     S
C3232  C3333   1.407   .     D
C3232  H5151   1.082   .     S
C3333  H5252   1.083   .     S
C3434  C3535   1.406   .     D
C3434  H5353   1.083   .     S
C3535  C3636   1.410   .     S
C3535  H5454   1.079   .     S
C3636  C3737   1.403   .     D
C3636  C4040   1.486   .     S
C3737  C3838   1.390   .     S
C3737  H5555   1.084   .     S
C3838  H5656   1.083   .     S
C3939  H5757   1.083   .     S
C3939  C1717   1.345   1_655 D
C4040  H5858   1.063   .     S
C4040  C1616   1.346   1_554 D
H4848  C1717   1.069   1_655 S
