data_1195
_audit_creation_date              2023-09-08
_audit_creation_method            'Materials Studio'
_symmetry_space_group_name_H-M    'P1'
_symmetry_Int_Tables_number       1
_symmetry_cell_setting            triclinic
loop_
_symmetry_equiv_pos_as_xyz
  x,y,z
_cell_length_a                    18.7517
_cell_length_b                    18.7517
_cell_length_c                    3.4602
_cell_angle_alpha                 90.0000
_cell_angle_beta                  90.0000
_cell_angle_gamma                 120.0000
loop_
_atom_site_label
_atom_site_type_symbol
_atom_site_fract_x
_atom_site_fract_y
_atom_site_fract_z
_atom_site_U_iso_or_equiv
_atom_site_adp_type
_atom_site_occupancy
C1     C     0.37001   0.61978   0.50000   0.00000  Uiso   1.00
C2     C     0.41003   0.56860   0.50000   0.00000  Uiso   1.00
C3     C     0.36242   0.48223   0.50000   0.00000  Uiso   1.00
C4     C     0.40016   0.43413   0.50000   0.00000  Uiso   1.00
C5     C     0.48629   0.47088   0.50000   0.00000  Uiso   1.00
C6     C     0.53407   0.55748   0.50000   0.00000  Uiso   1.00
C7     C     0.49628   0.60559   0.50000   0.00000  Uiso   1.00
C8     C     0.52242   0.41613   0.50000   0.00000  Uiso   1.00
C9     C     0.60343   0.44220   0.50000   0.00000  Uiso   1.00
C10    C     0.63569   0.38499   0.50000   0.00000  Uiso   1.00
N11    N     0.71810   0.41572   0.50000   0.00000  Uiso   1.00
N12    N     0.41627   0.70307   0.50000   0.00000  Uiso   1.00
H13    H     0.29583   0.45188   0.50000   0.00000  Uiso   1.00
H14    H     0.36175   0.36773   0.50000   0.00000  Uiso   1.00
H15    H     0.60043   0.58907   0.50000   0.00000  Uiso   1.00
H16    H     0.53460   0.67200   0.50000   0.00000  Uiso   1.00
H17    H     0.47963   0.35036   0.50000   0.00000  Uiso   1.00
H18    H     0.64879   0.50678   0.50000   0.00000  Uiso   1.00
C19    C     0.38022   0.75023   0.50000   0.00000  Uiso   1.00
C20    C     0.43140   0.84143   0.50000   0.00000  Uiso   1.00
C21    C     0.51777   0.88019   0.50000   0.00000  Uiso   1.00
C22    C     0.56587   0.96603   0.50000   0.00000  Uiso   1.00
C23    C     0.52912   0.01541   0.50000   0.00000  Uiso   1.00
C24    C     0.44252   0.97659   0.50000   0.00000  Uiso   1.00
C25    C     0.39441   0.89069   0.50000   0.00000  Uiso   1.00
C26    C     0.58387   0.10629   0.50000   0.00000  Uiso   1.00
C27    C     0.55780   0.16123   0.50000   0.00000  Uiso   1.00
C28    C     0.61501   0.25070   0.50000   0.00000  Uiso   1.00
N29    N     0.58428   0.30238   0.50000   0.00000  Uiso   1.00
N30    N     0.29693   0.71320   0.50000   0.00000  Uiso   1.00
H31    H     0.54812   0.84395   0.50000   0.00000  Uiso   1.00
H32    H     0.63227   0.99402   0.50000   0.00000  Uiso   1.00
H33    H     0.41093   0.01136   0.50000   0.00000  Uiso   1.00
H34    H     0.32800   0.86260   0.50000   0.00000  Uiso   1.00
H35    H     0.64964   0.12927   0.50000   0.00000  Uiso   1.00
H36    H     0.49322   0.14201   0.50000   0.00000  Uiso   1.00
C37    C     0.24977   0.62999   0.50000   0.00000  Uiso   1.00
C38    C     0.15857   0.58997   0.50000   0.00000  Uiso   1.00
C39    C     0.11981   0.63758   0.50000   0.00000  Uiso   1.00
C40    C     0.03397   0.59984   0.50000   0.00000  Uiso   1.00
C41    C     0.98459   0.51371   0.50000   0.00000  Uiso   1.00
C42    C     0.02341   0.46593   0.50000   0.00000  Uiso   1.00
C43    C     0.10931   0.50372   0.50000   0.00000  Uiso   1.00
C44    C     0.89371   0.47758   0.50000   0.00000  Uiso   1.00
C45    C     0.83877   0.39657   0.50000   0.00000  Uiso   1.00
C46    C     0.74930   0.36431   0.50000   0.00000  Uiso   1.00
N47    N     0.69762   0.28190   0.50000   0.00000  Uiso   1.00
N48    N     0.28680   0.58373   0.50000   0.00000  Uiso   1.00
H49    H     0.15605   0.70417   0.50000   0.00000  Uiso   1.00
H50    H     0.00598   0.63825   0.50000   0.00000  Uiso   1.00
H51    H     0.98864   0.39957   0.50000   0.00000  Uiso   1.00
H52    H     0.13740   0.46540   0.50000   0.00000  Uiso   1.00
H53    H     0.87073   0.52037   0.50000   0.00000  Uiso   1.00
H54    H     0.85799   0.35121   0.50000   0.00000  Uiso   1.00
loop_
_geom_bond_atom_site_label_1
_geom_bond_atom_site_label_2
_geom_bond_distance
_geom_bond_site_symmetry_2
_ccdc_geom_bond_type
C1     C2      1.485   .     S
C1     N12     1.355   .     S
C1     N48     1.355   .     D
C2     C3      1.405   .     S
C2     C7      1.405   .     D
C3     C4      1.397   .     D
C3     H13     1.083   .     S
C4     C5      1.404   .     S
C4     H14     1.083   .     S
C5     C6      1.409   .     D
C5     C8      1.486   .     S
C6     C7      1.398   .     S
C6     H15     1.078   .     S
C7     H16     1.083   .     S
C8     C9      1.343   .     D
C8     H17     1.084   .     S
C9     C10     1.472   .     S
C9     H18     1.077   .     S
C10    N11     1.353   .     D
C10    N29     1.355   .     S
N11    C46     1.355   .     S
N12    C19     1.355   .     D
C19    C20     1.485   .     S
C19    N30     1.355   .     S
C20    C21     1.405   .     D
C20    C25     1.405   .     S
C21    C22     1.397   .     S
C21    H31     1.083   .     S
C22    H32     1.083   .     S
C22    C23     1.404   1_565 D
C23    C26     1.486   .     S
C23    C22     1.404   1_545 D
C23    C24     1.409   1_545 S
C24    C25     1.398   .     D
C24    C23     1.409   1_565 S
C24    H33     1.078   1_565 S
C25    H34     1.083   .     S
C26    C27     1.343   .     D
C26    H35     1.084   .     S
C27    C28     1.472   .     S
C27    H36     1.077   .     S
C28    N29     1.353   .     D
C28    N47     1.355   .     S
N30    C37     1.355   .     D
H33    C24     1.078   1_545 S
C37    C38     1.485   .     S
C37    N48     1.355   .     S
C38    C39     1.405   .     D
C38    C43     1.405   .     S
C39    C40     1.397   .     S
C39    H49     1.083   .     S
C40    H50     1.083   .     S
C40    C41     1.404   1_455 D
C41    C44     1.486   .     S
C41    C40     1.404   1_655 D
C41    C42     1.409   1_655 S
C42    C43     1.398   .     D
C42    C41     1.409   1_455 S
C42    H51     1.078   1_455 S
C43    H52     1.083   .     S
C44    C45     1.343   .     D
C44    H53     1.084   .     S
C45    C46     1.472   .     S
C45    H54     1.077   .     S
C46    N47     1.353   .     D
H51    C42     1.078   1_655 S
