data_1196
_audit_creation_date              2023-09-08
_audit_creation_method            'Materials Studio'
_symmetry_space_group_name_H-M    'P1'
_symmetry_Int_Tables_number       1
_symmetry_cell_setting            triclinic
loop_
_symmetry_equiv_pos_as_xyz
  x,y,z
_cell_length_a                    17.3171
_cell_length_b                    3.4619
_cell_length_c                    17.3333
_cell_angle_alpha                 90.0000
_cell_angle_beta                  122.5481
_cell_angle_gamma                 90.0000
loop_
_atom_site_label
_atom_site_type_symbol
_atom_site_fract_x
_atom_site_fract_y
_atom_site_fract_z
_atom_site_U_iso_or_equiv
_atom_site_adp_type
_atom_site_occupancy
N11    N     0.57824   0.50000   0.41199   0.00000  Uiso   1.00
C22    C     0.51685   0.50000   0.45288   0.00000  Uiso   1.00
C33    C     0.41832   0.50000   0.40235   0.00000  Uiso   1.00
C44    C     0.36237   0.50000   0.43811   0.00000  Uiso   1.00
C55    C     0.39878   0.50000   0.53078   0.00000  Uiso   1.00
C66    C     0.49315   0.50000   0.58622   0.00000  Uiso   1.00
C77    C     0.54779   0.50000   0.54852   0.00000  Uiso   1.00
C88    C     0.33475   0.50000   0.56348   0.00000  Uiso   1.00
C99    C     0.35957   0.50000   0.65174   0.00000  Uiso   1.00
C1010  C     0.29894   0.50000   0.69122   0.00000  Uiso   1.00
C1111  C     0.34315   0.50000   0.78875   0.00000  Uiso   1.00
C1212  C     0.29015   0.50000   0.82988   0.00000  Uiso   1.00
N1313  N     0.19741   0.50000   0.77419   0.00000  Uiso   1.00
C1414  C     0.15171   0.50000   0.68164   0.00000  Uiso   1.00
C1515  C     0.20121   0.50000   0.63790   0.00000  Uiso   1.00
C1616  C     0.32511   0.50000   0.93045   0.00000  Uiso   1.00
C1717  C     0.04956   0.50000   0.62663   0.00000  Uiso   1.00
C1818  C     0.44208   0.50000   0.84342   0.00000  Uiso   1.00
N1919  N     0.52146   0.50000   0.88546   0.00000  Uiso   1.00
C2020  C     0.14857   0.50000   0.53905   0.00000  Uiso   1.00
N2121  N     0.10403   0.50000   0.45978   0.00000  Uiso   1.00
C2222  C     0.68562   0.50000   0.47836   0.00000  Uiso   1.00
C2323  C     0.53238   0.50000   0.30471   0.00000  Uiso   1.00
C2424  C     0.74968   0.50000   0.45031   0.00000  Uiso   1.00
C2525  C     0.84542   0.50000   0.50470   0.00000  Uiso   1.00
C2626  C     0.89218   0.50000   0.59892   0.00000  Uiso   1.00
C2727  C     0.83826   0.50000   0.63517   0.00000  Uiso   1.00
C2828  C     0.74114   0.50000   0.57830   0.00000  Uiso   1.00
C2929  C     0.43488   0.50000   0.23348   0.00000  Uiso   1.00
C3030  C     0.39424   0.50000   0.13733   0.00000  Uiso   1.00
C3131  C     0.44731   0.50000   0.10034   0.00000  Uiso   1.00
C3232  C     0.54015   0.50000   0.16116   0.00000  Uiso   1.00
C3333  C     0.57905   0.50000   0.25600   0.00000  Uiso   1.00
C3434  C     0.99487   0.50000   0.65971   0.00000  Uiso   1.00
C3535  C     0.41300   0.50000   0.00111   0.00000  Uiso   1.00
H3636  H     0.37111   0.50000   0.33509   0.00000  Uiso   1.00
H3737  H     0.28826   0.50000   0.39180   0.00000  Uiso   1.00
H3838  H     0.52674   0.50000   0.65987   0.00000  Uiso   1.00
H3939  H     0.61118   0.50000   0.60467   0.00000  Uiso   1.00
H4040  H     0.26481   0.50000   0.50906   0.00000  Uiso   1.00
H4141  H     0.43205   0.50000   0.70044   0.00000  Uiso   1.00
H4242  H     0.27195   0.50000   0.94515   0.00000  Uiso   1.00
H4343  H     0.01859   0.50000   0.55437   0.00000  Uiso   1.00
H4444  H     0.74044   0.50000   0.38892   0.00000  Uiso   1.00
H4545  H     0.88139   0.50000   0.46960   0.00000  Uiso   1.00
H4646  H     0.87211   0.50000   0.70922   0.00000  Uiso   1.00
H4747  H     0.72605   0.50000   0.62763   0.00000  Uiso   1.00
H4848  H     0.37673   0.50000   0.23433   0.00000  Uiso   1.00
H4949  H     0.32029   0.50000   0.09180   0.00000  Uiso   1.00
H5050  H     0.58407   0.50000   0.13377   0.00000  Uiso   1.00
H5151  H     0.64495   0.50000   0.27319   0.00000  Uiso   1.00
H5252  H     0.02618   0.50000   0.73320   0.00000  Uiso   1.00
H5353  H     0.46700   0.50000   0.98924   0.00000  Uiso   1.00
loop_
_geom_bond_atom_site_label_1
_geom_bond_atom_site_label_2
_geom_bond_distance
_geom_bond_site_symmetry_2
_ccdc_geom_bond_type
N11    C22     1.563   .     S
N11    C2222   1.575   .     S
N11    C2323   1.581   .     S
C22    C33     1.439   .     D
C22    C77     1.442   .     S
C33    C44     1.403   .     S
C33    H3636   1.001   .     S
C44    C55     1.374   .     D
C44    H3737   1.088   .     S
C55    C66     1.380   .     S
C55    C88     1.492   .     S
C66    C77     1.410   .     D
C66    H3838   1.081   .     S
C77    H3939   1.001   .     S
C88    C99     1.348   .     D
C88    H4040   1.062   .     S
C99    C1010   1.531   .     S
C99    H4141   1.071   .     S
C1010  C1111   1.432   .     D
C1010  C1515   1.427   .     S
C1111  C1212   1.433   .     S
C1111  C1818   1.444   .     S
C1212  N1313   1.358   .     D
C1212  C1616   1.507   .     S
N1313  C1414   1.354   .     S
C1414  C1515   1.417   .     D
C1414  C1717   1.491   .     S
C1515  C2020   1.444   .     S
C1616  H4242   1.079   .     S
C1616  C3535   1.346   1_556 D
C1717  H4343   1.065   .     S
C1717  C3434   1.345   1_455 D
C1818  N1919   1.159   .     T
C2020  N2121   1.159   .     T
C2222  C2424   1.431   .     D
C2222  C2828   1.461   .     S
C2323  C2929   1.460   .     S
C2323  C3333   1.449   .     D
C2424  C2525   1.398   .     S
C2424  H4444   0.987   .     S
C2525  C2626   1.378   .     D
C2525  H4545   1.080   .     S
C2626  C2727   1.378   .     S
C2626  C3434   1.502   .     S
C2727  C2828   1.420   .     D
C2727  H4646   1.087   .     S
C2828  H4747   1.020   .     S
C2929  C3030   1.418   .     D
C2929  H4848   1.015   .     S
C3030  C3131   1.375   .     S
C3030  H4949   1.084   .     S
C3131  C3232   1.368   .     D
C3131  C3535   1.487   .     S
C3232  C3333   1.402   .     S
C3232  H5050   1.092   .     S
C3333  H5151   1.013   .     S
C3434  C1717   1.345   1_655 D
C3434  H5252   1.083   1_655 S
C3535  C1616   1.346   1_554 D
C3535  H5353   1.060   1_554 S
H5252  C3434   1.083   1_455 S
H5353  C3535   1.060   1_556 S
