data_1197
_audit_creation_date              2023-09-08
_audit_creation_method            'Materials Studio'
_symmetry_space_group_name_H-M    'P1'
_symmetry_Int_Tables_number       1
_symmetry_cell_setting            triclinic
loop_
_symmetry_equiv_pos_as_xyz
  x,y,z
_cell_length_a                    16.8557
_cell_length_b                    16.8557
_cell_length_c                    3.4595
_cell_angle_alpha                 90.0000
_cell_angle_beta                  90.0000
_cell_angle_gamma                 120.0000
loop_
_atom_site_label
_atom_site_type_symbol
_atom_site_fract_x
_atom_site_fract_y
_atom_site_fract_z
_atom_site_U_iso_or_equiv
_atom_site_adp_type
_atom_site_occupancy
C1     C     0.39474   0.62072   0.50000   0.00000  Uiso   1.00
C2     C     0.36345   0.52366   0.50000   0.00000  Uiso   1.00
C3     C     0.41719   0.48113   0.50000   0.00000  Uiso   1.00
C4     C     0.51132   0.53200   0.50000   0.00000  Uiso   1.00
C5     C     0.54900   0.62533   0.50000   0.00000  Uiso   1.00
C6     C     0.49393   0.66636   0.50000   0.00000  Uiso   1.00
C7     C     0.57278   0.49233   0.50000   0.00000  Uiso   1.00
C8     C     0.54443   0.40235   0.50000   0.00000  Uiso   1.00
C9     C     0.60866   0.36717   0.50000   0.00000  Uiso   1.00
N10    N     0.57510   0.27558   0.50000   0.00000  Uiso   1.00
H11    H     0.30073   0.46800   0.50000   0.00000  Uiso   1.00
H12    H     0.38344   0.40708   0.50000   0.00000  Uiso   1.00
H13    H     0.62329   0.66770   0.50000   0.00000  Uiso   1.00
H14    H     0.54406   0.73265   0.50000   0.00000  Uiso   1.00
H15    H     0.64587   0.54022   0.50000   0.00000  Uiso   1.00
H16    H     0.47276   0.35144   0.50000   0.00000  Uiso   1.00
C17    C     0.37928   0.77402   0.50000   0.00000  Uiso   1.00
C18    C     0.47634   0.83979   0.50000   0.00000  Uiso   1.00
C19    C     0.51887   0.93606   0.50000   0.00000  Uiso   1.00
C20    C     0.46800   0.97932   0.50000   0.00000  Uiso   1.00
C21    C     0.37467   0.92367   0.50000   0.00000  Uiso   1.00
C22    C     0.33364   0.82757   0.50000   0.00000  Uiso   1.00
C23    C     0.50767   0.08045   0.50000   0.00000  Uiso   1.00
C24    C     0.59765   0.14208   0.50000   0.00000  Uiso   1.00
C25    C     0.63283   0.24149   0.50000   0.00000  Uiso   1.00
N26    N     0.72442   0.29952   0.50000   0.00000  Uiso   1.00
H27    H     0.53200   0.83273   0.50000   0.00000  Uiso   1.00
H28    H     0.59292   0.97636   0.50000   0.00000  Uiso   1.00
H29    H     0.33230   0.95559   0.50000   0.00000  Uiso   1.00
H30    H     0.26735   0.81141   0.50000   0.00000  Uiso   1.00
H31    H     0.45978   0.10565   0.50000   0.00000  Uiso   1.00
H32    H     0.64856   0.12132   0.50000   0.00000  Uiso   1.00
C33    C     0.22598   0.60526   0.50000   0.00000  Uiso   1.00
C34    C     0.16021   0.63655   0.50000   0.00000  Uiso   1.00
C35    C     0.06394   0.58281   0.50000   0.00000  Uiso   1.00
C36    C     0.02068   0.48868   0.50000   0.00000  Uiso   1.00
C37    C     0.07633   0.45100   0.50000   0.00000  Uiso   1.00
C38    C     0.17243   0.50607   0.50000   0.00000  Uiso   1.00
C39    C     0.91955   0.42722   0.50000   0.00000  Uiso   1.00
C40    C     0.85792   0.45557   0.50000   0.00000  Uiso   1.00
C41    C     0.75851   0.39134   0.50000   0.00000  Uiso   1.00
N42    N     0.70048   0.42490   0.50000   0.00000  Uiso   1.00
H43    H     0.16727   0.69927   0.50000   0.00000  Uiso   1.00
H44    H     0.02364   0.61656   0.50000   0.00000  Uiso   1.00
H45    H     0.04441   0.37671   0.50000   0.00000  Uiso   1.00
H46    H     0.18859   0.45594   0.50000   0.00000  Uiso   1.00
H47    H     0.89435   0.35413   0.50000   0.00000  Uiso   1.00
H48    H     0.87868   0.52724   0.50000   0.00000  Uiso   1.00
N49    N     0.33333   0.66667   0.50000   0.00000  Uiso   1.00
loop_
_geom_bond_atom_site_label_1
_geom_bond_atom_site_label_2
_geom_bond_distance
_geom_bond_site_symmetry_2
_ccdc_geom_bond_type
C1     C2      1.446   .     D
C1     C6      1.449   .     S
C1     N49     1.573   .     S
C2     C3      1.408   .     S
C2     H11     1.003   .     S
C3     C4      1.376   .     D
C3     H12     1.082   .     S
C4     C5      1.371   .     S
C4     C7      1.488   .     S
C5     C6      1.408   .     D
C5     H13     1.088   .     S
C6     H14     1.009   .     S
C7     C8      1.343   .     D
C7     H15     1.084   .     S
C8     C9      1.472   .     S
C8     H16     1.077   .     S
C9     N10     1.353   .     S
C9     N42     1.355   .     D
N10    C25     1.355   .     D
C17    C18     1.446   .     D
C17    C22     1.449   .     S
C17    N49     1.572   .     S
C18    C19     1.408   .     S
C18    H27     1.003   .     S
C19    C20     1.376   .     D
C19    H28     1.082   .     S
C20    C21     1.371   .     S
C20    C23     1.488   1_565 S
C21    C22     1.408   .     D
C21    H29     1.088   .     S
C22    H30     1.009   .     S
C23    C24     1.343   .     D
C23    H31     1.084   .     S
C23    C20     1.488   1_545 S
C24    C25     1.472   .     S
C24    H32     1.077   .     S
C25    N26     1.353   .     S
N26    C41     1.355   .     D
C33    C34     1.446   .     D
C33    C38     1.449   .     S
C33    N49     1.572   .     S
C34    C35     1.408   .     S
C34    H43     1.003   .     S
C35    C36     1.376   .     D
C35    H44     1.082   .     S
C36    C37     1.371   .     S
C36    C39     1.488   1_455 S
C37    C38     1.408   .     D
C37    H45     1.088   .     S
C38    H46     1.009   .     S
C39    C40     1.343   .     D
C39    H47     1.084   .     S
C39    C36     1.488   1_655 S
C40    C41     1.472   .     S
C40    H48     1.077   .     S
C41    N42     1.353   .     S
