data_1198
_audit_creation_date              2023-09-08
_audit_creation_method            'Materials Studio'
_symmetry_space_group_name_H-M    'P1'
_symmetry_Int_Tables_number       1
_symmetry_cell_setting            triclinic
loop_
_symmetry_equiv_pos_as_xyz
  x,y,z
_cell_length_a                    23.1929
_cell_length_b                    23.2339
_cell_length_c                    15.0000
_cell_angle_alpha                 90.0000
_cell_angle_beta                  90.0000
_cell_angle_gamma                 119.8867
loop_
_atom_site_label
_atom_site_type_symbol
_atom_site_fract_x
_atom_site_fract_y
_atom_site_fract_z
_atom_site_U_iso_or_equiv
_atom_site_adp_type
_atom_site_occupancy
C11    C     0.07024   0.03844   0.50743   0.00000  Uiso   1.00
C22    C     0.10363   0.09618   0.55965   0.00000  Uiso   1.00
C33    C     0.17261   0.13229   0.55971   0.00000  Uiso   1.00
C44    C     0.21014   0.11226   0.50789   0.00000  Uiso   1.00
C55    C     0.17612   0.05415   0.45589   0.00000  Uiso   1.00
C66    C     0.10738   0.01764   0.45587   0.00000  Uiso   1.00
C77    C     0.38768   0.17749   0.45892   0.00000  Uiso   1.00
C88    C     0.42736   0.14757   0.44971   0.00000  Uiso   1.00
C99    C     0.49614   0.18592   0.44839   0.00000  Uiso   1.00
C1010  C     0.52756   0.25557   0.45379   0.00000  Uiso   1.00
C1111  C     0.48801   0.28566   0.46014   0.00000  Uiso   1.00
C1212  C     0.41921   0.24745   0.46271   0.00000  Uiso   1.00
C1313  C     0.60064   0.29643   0.45277   0.00000  Uiso   1.00
C1414  C     0.28228   0.15127   0.50890   0.00000  Uiso   1.00
C1515  C     0.96257   0.03352   0.50864   0.00000  Uiso   1.00
C1616  C     0.90448   0.00871   0.56044   0.00000  Uiso   1.00
C1717  C     0.86782   0.04110   0.56041   0.00000  Uiso   1.00
C1818  C     0.88740   0.09837   0.50842   0.00000  Uiso   1.00
C1919  C     0.94573   0.12277   0.45652   0.00000  Uiso   1.00
C2020  C     0.98286   0.09114   0.45680   0.00000  Uiso   1.00
C2121  C     0.82162   0.21021   0.45947   0.00000  Uiso   1.00
C2222  C     0.85162   0.27966   0.45016   0.00000  Uiso   1.00
C2323  C     0.81323   0.31012   0.44930   0.00000  Uiso   1.00
C2424  C     0.74347   0.27208   0.45515   0.00000  Uiso   1.00
C2525  C     0.71330   0.20261   0.46139   0.00000  Uiso   1.00
C2626  C     0.75156   0.17198   0.46363   0.00000  Uiso   1.00
C2727  C     0.70253   0.30429   0.45412   0.00000  Uiso   1.00
C2828  C     0.84798   0.13115   0.50923   0.00000  Uiso   1.00
C2929  C     0.96804   0.93121   0.50822   0.00000  Uiso   1.00
C3030  C     0.99454   0.89812   0.55810   0.00000  Uiso   1.00
C3131  C     0.96402   0.82991   0.55746   0.00000  Uiso   1.00
C3232  C     0.90477   0.79025   0.50735   0.00000  Uiso   1.00
C3333  C     0.87877   0.82463   0.45734   0.00000  Uiso   1.00
C3434  C     0.90965   0.89309   0.45794   0.00000  Uiso   1.00
C3535  C     0.78671   0.60991   0.46595   0.00000  Uiso   1.00
C3636  C     0.71763   0.57066   0.45119   0.00000  Uiso   1.00
C3737  C     0.68804   0.50227   0.44614   0.00000  Uiso   1.00
C3838  C     0.72623   0.47070   0.45496   0.00000  Uiso   1.00
C3939  C     0.79542   0.51034   0.46635   0.00000  Uiso   1.00
C4040  C     0.82560   0.57885   0.47184   0.00000  Uiso   1.00
C4141  C     0.69442   0.39799   0.45344   0.00000  Uiso   1.00
C4242  C     0.87546   0.72089   0.51006   0.00000  Uiso   1.00
N143   N     0.31897   0.13637   0.46049   0.00000  Uiso   1.00
N244   N     0.73415   0.37104   0.45453   0.00000  Uiso   1.00
N345   N     0.86282   0.18261   0.46081   0.00000  Uiso   1.00
N446   N     0.62747   0.36283   0.45207   0.00000  Uiso   1.00
N547   N     0.81462   0.67804   0.47542   0.00000  Uiso   1.00
N648   N     0.63593   0.26475   0.45355   0.00000  Uiso   1.00
N749   N     0.00013   0.00098   0.50770   0.00000  Uiso   1.00
H150   H     0.07403   0.11324   0.60182   0.00000  Uiso   1.00
H251   H     0.19979   0.17901   0.60219   0.00000  Uiso   1.00
H352   H     0.20531   0.03684   0.41329   0.00000  Uiso   1.00
H453   H     0.08054   0.97054   0.41406   0.00000  Uiso   1.00
H554   H     0.40295   0.09134   0.44326   0.00000  Uiso   1.00
H655   H     0.52776   0.16107   0.44289   0.00000  Uiso   1.00
H756   H     0.51245   0.34204   0.46323   0.00000  Uiso   1.00
H857   H     0.38775   0.27248   0.46791   0.00000  Uiso   1.00
H958   H     0.90290   0.69717   0.54282   0.00000  Uiso   1.00
H1160  H     0.88757   0.96208   0.60236   0.00000  Uiso   1.00
H1261  H     0.82102   0.02140   0.60295   0.00000  Uiso   1.00
H1362  H     0.96268   0.16902   0.41377   0.00000  Uiso   1.00
H1463  H     0.03009   0.11161   0.41502   0.00000  Uiso   1.00
H1564  H     0.90792   0.31128   0.44325   0.00000  Uiso   1.00
H1665  H     0.83812   0.36644   0.44382   0.00000  Uiso   1.00
H1766  H     0.65682   0.17084   0.46467   0.00000  Uiso   1.00
H1867  H     0.72613   0.11561   0.46886   0.00000  Uiso   1.00
H1968  H     0.30843   0.19688   0.55359   0.00000  Uiso   1.00
H2069  H     0.04158   0.92796   0.59932   0.00000  Uiso   1.00
H2170  H     0.98599   0.80376   0.59757   0.00000  Uiso   1.00
H2271  H     0.83169   0.79550   0.41594   0.00000  Uiso   1.00
H2372  H     0.88747   0.91877   0.41723   0.00000  Uiso   1.00
H2473  H     0.68595   0.59528   0.44337   0.00000  Uiso   1.00
H2574  H     0.63215   0.47077   0.43473   0.00000  Uiso   1.00
H2675  H     0.82769   0.48618   0.47123   0.00000  Uiso   1.00
H2776  H     0.88175   0.61001   0.48110   0.00000  Uiso   1.00
H2877  H     0.80216   0.11152   0.55371   0.00000  Uiso   1.00
loop_
_geom_bond_atom_site_label_1
_geom_bond_atom_site_label_2
_geom_bond_distance
_geom_bond_site_symmetry_2
_ccdc_geom_bond_type
C11    C22     1.406   .     D
C11    C66     1.410   .     S
C11    N749    1.411   .     S
C22    C33     1.388   .     S
C22    H150    1.140   .     S
C33    C44     1.408   .     D
C33    H251    1.140   .     S
C44    C55     1.411   .     S
C44    C1414   1.453   .     S
C55    C66     1.383   .     D
C55    H352    1.140   .     S
C66    H453    1.140   1_545 S
C77    C88     1.410   .     D
C77    C1212   1.413   .     S
C77    N143    1.391   .     S
C88    C99     1.387   .     S
C88    H554    1.140   .     S
C99    C1010   1.408   .     D
C99    H655    1.140   .     S
C1010  C1111   1.407   .     S
C1010  C1313   1.473   .     S
C1111  C1212   1.387   .     D
C1111  H756    1.140   .     S
C1212  H857    1.140   .     S
C1313  N446    1.346   .     D
C1313  N648    1.346   .     S
C1414  N143    1.290   .     D
C1414  H1968   1.140   .     S
C1515  C1616   1.406   .     D
C1515  C2020   1.411   .     S
C1515  N749    1.410   1_655 S
C1616  C1717   1.388   .     S
C1616  H1160   1.140   1_545 S
C1717  C1818   1.408   .     D
C1717  H1261   1.140   .     S
C1818  C1919   1.412   .     S
C1818  C2828   1.453   .     S
C1919  C2020   1.383   .     D
C1919  H1362   1.140   .     S
C2020  H1463   1.140   1_655 S
C2121  C2222   1.410   .     D
C2121  C2626   1.412   .     S
C2121  N345    1.391   .     S
C2222  C2323   1.386   .     S
C2222  H1564   1.140   .     S
C2323  C2424   1.408   .     D
C2323  H1665   1.140   .     S
C2424  C2525   1.406   .     S
C2424  C2727   1.473   .     S
C2525  C2626   1.387   .     D
C2525  H1766   1.140   .     S
C2626  H1867   1.140   .     S
C2727  N244    1.345   .     S
C2727  N648    1.348   .     D
C2828  N345    1.290   .     D
C2828  H2877   1.140   .     S
C2929  C3030   1.414   .     S
C2929  C3434   1.411   .     D
C2929  N749    1.407   1_665 S
C3030  C3131   1.376   .     D
C3030  H2069   1.140   1_655 S
C3131  C3232   1.428   .     S
C3131  H2170   1.140   .     S
C3232  C3333   1.430   .     D
C3232  C4242   1.403   .     S
C3333  C3434   1.381   .     S
C3333  H2271   1.140   .     S
C3434  H2372   1.140   .     S
C3535  C3636   1.411   .     S
C3535  C4040   1.411   .     D
C3535  N547    1.387   .     S
C3636  C3737   1.384   .     D
C3636  H2473   1.140   .     S
C3737  C3838   1.410   .     S
C3737  H2574   1.140   .     S
C3838  C3939   1.407   .     D
C3838  C4141   1.469   .     S
C3939  C4040   1.386   .     S
C3939  H2675   1.140   .     S
C4040  H2776   1.140   .     S
C4141  N244    1.348   .     D
C4141  N446    1.347   .     S
C4242  N547    1.361   .     D
C4242  H958    1.140   .     S
N749   C1515   1.410   1_455 S
N749   C2929   1.407   1_445 S
H453   C66     1.140   1_565 S
H1160  C1616   1.140   1_565 S
H1463  C2020   1.140   1_455 S
H2069  C3030   1.140   1_455 S
