data_1199
_audit_creation_date              2023-09-08
_audit_creation_method            'Materials Studio'
_symmetry_space_group_name_H-M    'P1'
_symmetry_Int_Tables_number       1
_symmetry_cell_setting            triclinic
loop_
_symmetry_equiv_pos_as_xyz
  x,y,z
_cell_length_a                    23.4685
_cell_length_b                    23.4317
_cell_length_c                    17.2542
_cell_angle_alpha                 90.0000
_cell_angle_beta                  90.0000
_cell_angle_gamma                 119.9987
loop_
_atom_site_label
_atom_site_type_symbol
_atom_site_fract_x
_atom_site_fract_y
_atom_site_fract_z
_atom_site_U_iso_or_equiv
_atom_site_adp_type
_atom_site_occupancy
C11    C     0.06936   0.03747   0.45200   0.00000  Uiso   1.00
C22    C     0.96170   0.03197   0.45200   0.00000  Uiso   1.00
C33    C     0.96717   0.93120   0.45200   0.00000  Uiso   1.00
C44    C     0.10118   0.09341   0.49969   0.00000  Uiso   1.00
C55    C     0.90585   0.00789   0.49969   0.00000  Uiso   1.00
C66    C     0.99121   0.89933   0.49969   0.00000  Uiso   1.00
C77    C     0.16945   0.12932   0.50224   0.00000  Uiso   1.00
C88    C     0.87000   0.04037   0.50224   0.00000  Uiso   1.00
C99    C     0.95878   0.83095   0.50224   0.00000  Uiso   1.00
C1010  C     0.20765   0.11132   0.45658   0.00000  Uiso   1.00
C1111  C     0.88796   0.09662   0.45658   0.00000  Uiso   1.00
C1212  C     0.90262   0.79270   0.45658   0.00000  Uiso   1.00
C1313  C     0.17521   0.05535   0.40848   0.00000  Uiso   1.00
C1414  C     0.94384   0.12010   0.40848   0.00000  Uiso   1.00
C1515  C     0.87918   0.82518   0.40848   0.00000  Uiso   1.00
C1616  C     0.10720   0.01868   0.40662   0.00000  Uiso   1.00
C1717  C     0.98046   0.08866   0.40662   0.00000  Uiso   1.00
C1818  C     0.91057   0.89331   0.40662   0.00000  Uiso   1.00
C1919  C     0.38455   0.18249   0.41218   0.00000  Uiso   1.00
C2020  C     0.81691   0.20264   0.41218   0.00000  Uiso   1.00
C2121  C     0.79677   0.61552   0.41218   0.00000  Uiso   1.00
C2222  C     0.42087   0.16005   0.36995   0.00000  Uiso   1.00
C2323  C     0.83931   0.26145   0.36995   0.00000  Uiso   1.00
C2424  C     0.73806   0.57914   0.36995   0.00000  Uiso   1.00
C2525  C     0.48916   0.19646   0.36711   0.00000  Uiso   1.00
C2626  C     0.80295   0.29344   0.36711   0.00000  Uiso   1.00
C2727  C     0.70611   0.51075   0.36711   0.00000  Uiso   1.00
C2828  C     0.52411   0.25723   0.40588   0.00000  Uiso   1.00
C2929  C     0.74227   0.26768   0.40588   0.00000  Uiso   1.00
C3030  C     0.73184   0.47574   0.40588   0.00000  Uiso   1.00
C3131  C     0.48763   0.28001   0.44723   0.00000  Uiso   1.00
C3232  C     0.71953   0.20835   0.44723   0.00000  Uiso   1.00
C3333  C     0.79108   0.51227   0.44723   0.00000  Uiso   1.00
C3434  C     0.41945   0.24388   0.45017   0.00000  Uiso   1.00
C3535  C     0.75561   0.17620   0.45017   0.00000  Uiso   1.00
C3636  C     0.82317   0.58056   0.45017   0.00000  Uiso   1.00
C3737  C     0.59665   0.29622   0.40376   0.00000  Uiso   1.00
C3838  C     0.70335   0.30135   0.40376   0.00000  Uiso   1.00
C3939  C     0.69822   0.40308   0.40376   0.00000  Uiso   1.00
C4040  C     0.73456   0.37036   0.40357   0.00000  Uiso   1.00
C4141  C     0.62932   0.36533   0.40357   0.00000  Uiso   1.00
C4242  C     0.63435   0.26496   0.40357   0.00000  Uiso   1.00
C4343  C     0.27903   0.15079   0.45948   0.00000  Uiso   1.00
C4444  C     0.84856   0.12866   0.45948   0.00000  Uiso   1.00
C4545  C     0.87064   0.72120   0.45948   0.00000  Uiso   1.00
N146   N     0.31608   0.14247   0.41101   0.00000  Uiso   1.00
N247   N     0.85686   0.17407   0.41101   0.00000  Uiso   1.00
N348   N     0.82530   0.68409   0.41101   0.00000  Uiso   1.00
N449   N     0.00000   0.00000   0.44983   0.00000  Uiso   1.00
H150   H     0.07184   0.10774   0.53496   0.00000  Uiso   1.00
H251   H     0.89154   0.96488   0.53496   0.00000  Uiso   1.00
H352   H     0.03574   0.92874   0.53496   0.00000  Uiso   1.00
H453   H     0.19396   0.17223   0.54024   0.00000  Uiso   1.00
H554   H     0.82715   0.02200   0.54024   0.00000  Uiso   1.00
H655   H     0.97712   0.80640   0.54024   0.00000  Uiso   1.00
H756   H     0.20500   0.04193   0.37267   0.00000  Uiso   1.00
H857   H     0.95723   0.16336   0.37267   0.00000  Uiso   1.00
H958   H     0.83599   0.79535   0.37267   0.00000  Uiso   1.00
H1059  H     0.08219   0.97582   0.36988   0.00000  Uiso   1.00
H1160  H     0.02484   0.10719   0.36988   0.00000  Uiso   1.00
H1261  H     0.89209   0.91835   0.36988   0.00000  Uiso   1.00
H1362  H     0.39374   0.11341   0.33896   0.00000  Uiso   1.00
H1463  H     0.88588   0.28092   0.33896   0.00000  Uiso   1.00
H1564  H     0.71861   0.60631   0.33896   0.00000  Uiso   1.00
H1665  H     0.51588   0.17840   0.33262   0.00000  Uiso   1.00
H1766  H     0.82098   0.33826   0.33262   0.00000  Uiso   1.00
H1867  H     0.66136   0.48398   0.33262   0.00000  Uiso   1.00
H1968  H     0.51352   0.32662   0.47858   0.00000  Uiso   1.00
H2069  H     0.67299   0.18767   0.47858   0.00000  Uiso   1.00
H2170  H     0.81172   0.48635   0.47858   0.00000  Uiso   1.00
H2271  H     0.39319   0.26389   0.48195   0.00000  Uiso   1.00
H2372  H     0.73563   0.12989   0.48195   0.00000  Uiso   1.00
H2473  H     0.86941   0.60686   0.48195   0.00000  Uiso   1.00
H2574  H     0.78817   0.39916   0.40374   0.00000  Uiso   1.00
H2675  H     0.60057   0.39023   0.40374   0.00000  Uiso   1.00
H2776  H     0.60948   0.21126   0.40374   0.00000  Uiso   1.00
H2877  H     0.29892   0.18826   0.50609   0.00000  Uiso   1.00
H2978  H     0.81114   0.11110   0.50609   0.00000  Uiso   1.00
H3079  H     0.88816   0.70127   0.50609   0.00000  Uiso   1.00
loop_
_geom_bond_atom_site_label_1
_geom_bond_atom_site_label_2
_geom_bond_distance
_geom_bond_site_symmetry_2
_ccdc_geom_bond_type
C11    C44     1.405   .     D
C11    C1616   1.409   .     S
C11    N449    1.412   .     S
C22    C55     1.405   .     D
C22    C1717   1.409   .     S
C22    N449    1.430   1_655 S
C33    C66     1.405   .     S
C33    C1818   1.409   .     D
C33    N449    1.397   1_665 S
C44    C77     1.389   .     S
C44    H150    1.090   .     S
C55    C88     1.389   .     S
C55    H251    1.077   1_545 S
C66    C99     1.389   .     D
C66    H352    1.103   1_655 S
C77    C1010   1.407   .     D
C77    H453    1.092   .     S
C88    C1111   1.407   .     D
C88    H554    1.093   .     S
C99    C1212   1.407   .     S
C99    H655    1.093   .     S
C1010  C1313   1.411   .     S
C1010  C4343   1.454   .     S
C1111  C1414   1.411   .     S
C1111  C4444   1.454   .     S
C1212  C1515   1.410   .     D
C1212  C4545   1.454   .     S
C1313  C1616   1.384   .     D
C1313  H756    1.091   .     S
C1414  C1717   1.384   .     D
C1414  H857    1.091   .     S
C1515  C1818   1.384   .     S
C1515  H958    1.091   .     S
C1616  H1059   1.080   1_545 S
C1717  H1160   1.106   1_655 S
C1818  H1261   1.090   .     S
C1919  C2222   1.408   .     D
C1919  C3434   1.411   .     S
C1919  N146    1.398   .     S
C2020  C2323   1.408   .     D
C2020  C3535   1.411   .     S
C2020  N247    1.398   .     S
C2121  C2424   1.408   .     S
C2121  C3636   1.411   .     D
C2121  N348    1.398   .     S
C2222  C2525   1.390   .     S
C2222  H1362   1.091   .     S
C2323  C2626   1.390   .     S
C2323  H1463   1.091   .     S
C2424  C2727   1.390   .     D
C2424  H1564   1.091   .     S
C2525  C2828   1.407   .     D
C2525  H1665   1.092   .     S
C2626  C2929   1.407   .     D
C2626  H1766   1.092   .     S
C2727  C3030   1.407   .     S
C2727  H1867   1.092   .     S
C2828  C3131   1.408   .     S
C2828  C3737   1.476   .     S
C2929  C3232   1.409   .     S
C2929  C3838   1.476   .     S
C3030  C3333   1.409   .     D
C3030  C3939   1.476   .     S
C3131  C3434   1.387   .     D
C3131  H1968   1.091   .     S
C3232  C3535   1.387   .     D
C3232  H2069   1.091   .     S
C3333  C3636   1.388   .     S
C3333  H2170   1.091   .     S
C3434  H2271   1.091   .     S
C3535  H2372   1.091   .     S
C3636  H2473   1.091   .     S
C3737  C4141   1.403   .     S
C3737  C4242   1.403   .     D
C3838  C4040   1.402   .     D
C3838  C4242   1.403   .     S
C3939  C4040   1.403   .     S
C3939  C4141   1.402   .     D
C4040  H2574   1.091   .     S
C4141  H2675   1.091   .     S
C4242  H2776   1.091   .     S
C4343  N146    1.290   .     D
C4343  H2877   1.107   .     S
C4444  N247    1.289   .     D
C4444  H2978   1.107   .     S
C4545  N348    1.289   .     D
C4545  H3079   1.107   .     S
N449   C22     1.430   1_455 S
N449   C33     1.397   1_445 S
H251   C55     1.077   1_565 S
H352   C66     1.103   1_455 S
H1059  C1616   1.080   1_565 S
H1160  C1717   1.106   1_455 S
