data_12
_audit_creation_date              2023-09-08
_audit_creation_method            'Materials Studio'
_symmetry_space_group_name_H-M    'P1'
_symmetry_Int_Tables_number       1
_symmetry_cell_setting            triclinic
loop_
_symmetry_equiv_pos_as_xyz
  x,y,z
_cell_length_a                    15.1435
_cell_length_b                    15.1435
_cell_length_c                    9.9839
_cell_angle_alpha                 90.0000
_cell_angle_beta                  90.0000
_cell_angle_gamma                 90.0000
loop_
_atom_site_label
_atom_site_type_symbol
_atom_site_fract_x
_atom_site_fract_y
_atom_site_fract_z
_atom_site_U_iso_or_equiv
_atom_site_adp_type
_atom_site_occupancy
C1     C     0.68169   0.62220   0.71252   0.00000  Uiso   1.00
C2     C     0.59646   0.65603   0.73247   0.00000  Uiso   1.00
C3     C     0.53958   0.61681   0.82511   0.00000  Uiso   1.00
C4     C     0.56693   0.54422   0.90373   0.00000  Uiso   1.00
C5     C     0.65147   0.50840   0.87799   0.00000  Uiso   1.00
C6     C     0.70830   0.54772   0.78522   0.00000  Uiso   1.00
H7     H     0.57341   0.71246   0.67575   0.00000  Uiso   1.00
H8     H     0.47363   0.64347   0.83620   0.00000  Uiso   1.00
H9     H     0.67379   0.44871   0.92668   0.00000  Uiso   1.00
H10    H     0.77298   0.51909   0.76900   0.00000  Uiso   1.00
N11    N     0.72059   0.73120   0.54597   0.00000  Uiso   1.00
C12    C     0.74308   0.66244   0.61513   0.00000  Uiso   1.00
H13    H     0.80814   0.63394   0.60150   0.00000  Uiso   1.00
C14    C     0.31831   0.37780   0.71252   0.00000  Uiso   1.00
C15    C     0.40354   0.34397   0.73247   0.00000  Uiso   1.00
C16    C     0.46042   0.38319   0.82511   0.00000  Uiso   1.00
C17    C     0.43307   0.45578   0.90373   0.00000  Uiso   1.00
C18    C     0.34853   0.49160   0.87799   0.00000  Uiso   1.00
C19    C     0.29170   0.45228   0.78522   0.00000  Uiso   1.00
H20    H     0.42659   0.28754   0.67575   0.00000  Uiso   1.00
H21    H     0.52637   0.35653   0.83620   0.00000  Uiso   1.00
H22    H     0.32621   0.55129   0.92668   0.00000  Uiso   1.00
H23    H     0.22702   0.48091   0.76900   0.00000  Uiso   1.00
N24    N     0.27941   0.26880   0.54597   0.00000  Uiso   1.00
C25    C     0.25692   0.33756   0.61513   0.00000  Uiso   1.00
H26    H     0.19186   0.36606   0.60150   0.00000  Uiso   1.00
C27    C     0.87780   0.18169   0.71252   0.00000  Uiso   1.00
C28    C     0.84397   0.09646   0.73247   0.00000  Uiso   1.00
C29    C     0.88319   0.03958   0.82511   0.00000  Uiso   1.00
C30    C     0.95578   0.06693   0.90373   0.00000  Uiso   1.00
C31    C     0.99160   0.15147   0.87799   0.00000  Uiso   1.00
C32    C     0.95228   0.20830   0.78522   0.00000  Uiso   1.00
H33    H     0.78754   0.07341   0.67575   0.00000  Uiso   1.00
H34    H     0.85653   0.97363   0.83620   0.00000  Uiso   1.00
H35    H     0.05129   0.17379   0.92668   0.00000  Uiso   1.00
H36    H     0.98091   0.27298   0.76900   0.00000  Uiso   1.00
N37    N     0.76880   0.22059   0.54597   0.00000  Uiso   1.00
C38    C     0.83756   0.24308   0.61513   0.00000  Uiso   1.00
H39    H     0.86606   0.30814   0.60150   0.00000  Uiso   1.00
C40    C     0.12220   0.81831   0.71252   0.00000  Uiso   1.00
C41    C     0.15603   0.90354   0.73247   0.00000  Uiso   1.00
C42    C     0.11681   0.96042   0.82511   0.00000  Uiso   1.00
C43    C     0.04422   0.93307   0.90373   0.00000  Uiso   1.00
C44    C     0.00840   0.84853   0.87799   0.00000  Uiso   1.00
C45    C     0.04772   0.79170   0.78522   0.00000  Uiso   1.00
H46    H     0.21246   0.92659   0.67575   0.00000  Uiso   1.00
H47    H     0.14347   0.02637   0.83620   0.00000  Uiso   1.00
H48    H     0.94871   0.82621   0.92668   0.00000  Uiso   1.00
H49    H     0.01909   0.72702   0.76900   0.00000  Uiso   1.00
N50    N     0.23120   0.77941   0.54597   0.00000  Uiso   1.00
C51    C     0.16244   0.75692   0.61513   0.00000  Uiso   1.00
H52    H     0.13394   0.69186   0.60150   0.00000  Uiso   1.00
C53    C     0.81831   0.87780   0.28748   0.00000  Uiso   1.00
C54    C     0.90354   0.84397   0.26753   0.00000  Uiso   1.00
C55    C     0.96042   0.88319   0.17489   0.00000  Uiso   1.00
C56    C     0.93307   0.95578   0.09627   0.00000  Uiso   1.00
C57    C     0.84853   0.99160   0.12201   0.00000  Uiso   1.00
C58    C     0.79170   0.95228   0.21478   0.00000  Uiso   1.00
H59    H     0.92659   0.78754   0.32425   0.00000  Uiso   1.00
H60    H     0.02637   0.85653   0.16380   0.00000  Uiso   1.00
H61    H     0.82621   0.05129   0.07332   0.00000  Uiso   1.00
H62    H     0.72702   0.98091   0.23100   0.00000  Uiso   1.00
N63    N     0.77941   0.76880   0.45403   0.00000  Uiso   1.00
C64    C     0.75692   0.83756   0.38487   0.00000  Uiso   1.00
H65    H     0.69186   0.86606   0.39850   0.00000  Uiso   1.00
C66    C     0.18169   0.12220   0.28748   0.00000  Uiso   1.00
C67    C     0.09646   0.15603   0.26753   0.00000  Uiso   1.00
C68    C     0.03958   0.11681   0.17489   0.00000  Uiso   1.00
C69    C     0.06693   0.04422   0.09627   0.00000  Uiso   1.00
C70    C     0.15147   0.00840   0.12201   0.00000  Uiso   1.00
C71    C     0.20830   0.04772   0.21478   0.00000  Uiso   1.00
H72    H     0.07341   0.21246   0.32425   0.00000  Uiso   1.00
H73    H     0.97363   0.14347   0.16380   0.00000  Uiso   1.00
H74    H     0.17379   0.94871   0.07332   0.00000  Uiso   1.00
H75    H     0.27298   0.01909   0.23100   0.00000  Uiso   1.00
N76    N     0.22059   0.23120   0.45403   0.00000  Uiso   1.00
C77    C     0.24308   0.16244   0.38487   0.00000  Uiso   1.00
H78    H     0.30814   0.13394   0.39850   0.00000  Uiso   1.00
C79    C     0.62220   0.31831   0.28748   0.00000  Uiso   1.00
C80    C     0.65603   0.40354   0.26753   0.00000  Uiso   1.00
C81    C     0.61681   0.46042   0.17489   0.00000  Uiso   1.00
C82    C     0.54422   0.43307   0.09627   0.00000  Uiso   1.00
C83    C     0.50840   0.34853   0.12201   0.00000  Uiso   1.00
C84    C     0.54772   0.29170   0.21478   0.00000  Uiso   1.00
H85    H     0.71246   0.42659   0.32425   0.00000  Uiso   1.00
H86    H     0.64347   0.52637   0.16380   0.00000  Uiso   1.00
H87    H     0.44871   0.32621   0.07332   0.00000  Uiso   1.00
H88    H     0.51909   0.22702   0.23100   0.00000  Uiso   1.00
N89    N     0.73120   0.27941   0.45403   0.00000  Uiso   1.00
C90    C     0.66244   0.25692   0.38487   0.00000  Uiso   1.00
H91    H     0.63394   0.19186   0.39850   0.00000  Uiso   1.00
C92    C     0.37780   0.68169   0.28748   0.00000  Uiso   1.00
C93    C     0.34397   0.59646   0.26753   0.00000  Uiso   1.00
C94    C     0.38319   0.53958   0.17489   0.00000  Uiso   1.00
C95    C     0.45578   0.56693   0.09627   0.00000  Uiso   1.00
C96    C     0.49160   0.65147   0.12201   0.00000  Uiso   1.00
C97    C     0.45228   0.70830   0.21478   0.00000  Uiso   1.00
H98    H     0.28754   0.57341   0.32425   0.00000  Uiso   1.00
H99    H     0.35653   0.47363   0.16380   0.00000  Uiso   1.00
H100   H     0.55129   0.67379   0.07332   0.00000  Uiso   1.00
H101   H     0.48091   0.77298   0.23100   0.00000  Uiso   1.00
N102   N     0.26880   0.72059   0.45403   0.00000  Uiso   1.00
C103   C     0.33756   0.74308   0.38487   0.00000  Uiso   1.00
H104   H     0.36606   0.80814   0.39850   0.00000  Uiso   1.00
C105   C     0.50000   0.50000   0.00000   0.00000  Uiso   1.00
C106   C     0.00000   0.00000   0.00000   0.00000  Uiso   1.00
loop_
_geom_bond_atom_site_label_1
_geom_bond_atom_site_label_2
_geom_bond_distance
_geom_bond_site_symmetry_2
_ccdc_geom_bond_type
C1     C2      1.403   .     D
C1     C6      1.400   .     S
C1     C12     1.477   .     S
C2     C3      1.396   .     S
C2     H7      1.083   .     S
C3     C4      1.413   .     D
C3     H8      1.083   .     S
C4     C5      1.414   .     S
C4     C105    1.549   1_556 S
C5     C6      1.398   .     D
C5     H9      1.081   .     S
C6     H10     1.083   .     S
N11    C12     1.295   .     D
N11    N63     1.400   .     S
C12    H13     1.084   .     S
C14    C15     1.403   .     D
C14    C19     1.400   .     S
C14    C25     1.477   .     S
C15    C16     1.396   .     S
C15    H20     1.083   .     S
C16    C17     1.413   .     D
C16    H21     1.083   .     S
C17    C18     1.414   .     S
C17    C105    1.549   1_556 S
C18    C19     1.398   .     D
C18    H22     1.081   .     S
C19    H23     1.083   .     S
N24    C25     1.295   .     D
N24    N76     1.400   .     S
C25    H26     1.084   .     S
C27    C28     1.403   .     D
C27    C32     1.400   .     S
C27    C38     1.477   .     S
C28    C29     1.396   .     S
C28    H33     1.083   .     S
C29    C30     1.413   .     D
C29    H34     1.083   1_545 S
C30    C31     1.414   .     S
C30    C106    1.549   1_656 S
C31    C32     1.398   .     D
C31    H35     1.081   1_655 S
C32    H36     1.083   .     S
H34    C29     1.083   1_565 S
H35    C31     1.081   1_455 S
N37    C38     1.295   .     D
N37    N89     1.400   .     S
C38    H39     1.084   .     S
C40    C41     1.403   .     D
C40    C45     1.400   .     S
C40    C51     1.477   .     S
C41    C42     1.396   .     S
C41    H46     1.083   .     S
C42    C43     1.413   .     D
C42    H47     1.083   1_565 S
C43    C44     1.414   .     S
C43    C106    1.549   1_566 S
C44    C45     1.398   .     D
C44    H48     1.081   1_455 S
C45    H49     1.083   .     S
H47    C42     1.083   1_545 S
H48    C44     1.081   1_655 S
N50    C51     1.295   .     D
N50    N102    1.400   .     S
C51    H52     1.084   .     S
C53    C54     1.403   .     D
C53    C58     1.400   .     S
C53    C64     1.477   .     S
C54    C55     1.396   .     S
C54    H59     1.083   .     S
C55    C56     1.413   .     D
C55    H60     1.083   1_655 S
C56    C57     1.414   .     S
C56    C106    1.549   1_665 S
C57    C58     1.398   .     D
C57    H61     1.081   1_565 S
C58    H62     1.083   .     S
H60    C55     1.083   1_455 S
H61    C57     1.081   1_545 S
N63    C64     1.295   .     D
C64    H65     1.084   .     S
C66    C67     1.403   .     D
C66    C71     1.400   .     S
C66    C77     1.477   .     S
C67    C68     1.396   .     S
C67    H72     1.083   .     S
C68    C69     1.413   .     D
C68    H73     1.083   1_455 S
C69    C70     1.414   .     S
C69    C106    1.549   .     S
C70    C71     1.398   .     D
C70    H74     1.081   1_545 S
C71    H75     1.083   .     S
H73    C68     1.083   1_655 S
H74    C70     1.081   1_565 S
N76    C77     1.295   .     D
C77    H78     1.084   .     S
C79    C80     1.403   .     D
C79    C84     1.400   .     S
C79    C90     1.477   .     S
C80    C81     1.396   .     S
C80    H85     1.083   .     S
C81    C82     1.413   .     D
C81    H86     1.083   .     S
C82    C83     1.414   .     S
C82    C105    1.549   .     S
C83    C84     1.398   .     D
C83    H87     1.081   .     S
C84    H88     1.083   .     S
N89    C90     1.295   .     D
C90    H91     1.084   .     S
C92    C93     1.403   .     D
C92    C97     1.400   .     S
C92    C103    1.477   .     S
C93    C94     1.396   .     S
C93    H98     1.083   .     S
C94    C95     1.413   .     D
C94    H99     1.083   .     S
C95    C96     1.414   .     S
C95    C105    1.549   .     S
C96    C97     1.398   .     D
C96    H100    1.081   .     S
C97    H101    1.083   .     S
N102   C103    1.295   .     D
C103   H104    1.084   .     S
C105   C4      1.549   1_554 S
C105   C17     1.549   1_554 S
C106   C56     1.549   1_445 S
C106   C30     1.549   1_454 S
C106   C43     1.549   1_544 S
