data_120
_audit_creation_date              2023-09-08
_audit_creation_method            'Materials Studio'
_symmetry_space_group_name_H-M    'P1'
_symmetry_Int_Tables_number       1
_symmetry_cell_setting            triclinic
loop_
_symmetry_equiv_pos_as_xyz
  x,y,z
_cell_length_a                    29.9768
_cell_length_b                    29.9768
_cell_length_c                    4.0500
_cell_angle_alpha                 90.0000
_cell_angle_beta                  90.0000
_cell_angle_gamma                 120.0000
loop_
_atom_site_label
_atom_site_type_symbol
_atom_site_fract_x
_atom_site_fract_y
_atom_site_fract_z
_atom_site_U_iso_or_equiv
_atom_site_adp_type
_atom_site_occupancy
H1     H     0.33610   0.32400  -0.21820   0.00000  Uiso   1.00
H2     H     0.67600   0.01210  -0.21820   0.00000  Uiso   1.00
H3     H     0.98790   0.66390  -0.21820   0.00000  Uiso   1.00
H4     H     0.66390   0.67600  -0.21820   0.00000  Uiso   1.00
H5     H     0.32400   0.98790  -0.21820   0.00000  Uiso   1.00
H6     H     0.01210   0.33610  -0.21820   0.00000  Uiso   1.00
H7     H     0.66390   0.67600   0.21820   0.00000  Uiso   1.00
H8     H     0.32400   0.98790   0.21820   0.00000  Uiso   1.00
H9     H     0.01210   0.33610   0.21820   0.00000  Uiso   1.00
H10    H     0.33610   0.32400   0.21820   0.00000  Uiso   1.00
H11    H     0.67600   0.01210   0.21820   0.00000  Uiso   1.00
H12    H     0.98790   0.66390   0.21820   0.00000  Uiso   1.00
H13    H     0.42470   0.34720   0.22440   0.00000  Uiso   1.00
H14    H     0.65280   0.07750   0.22440   0.00000  Uiso   1.00
H15    H     0.92250   0.57530   0.22440   0.00000  Uiso   1.00
H16    H     0.57530   0.65280   0.22440   0.00000  Uiso   1.00
H17    H     0.34720   0.92250   0.22440   0.00000  Uiso   1.00
H18    H     0.07750   0.42470   0.22440   0.00000  Uiso   1.00
H19    H     0.57530   0.65280  -0.22440   0.00000  Uiso   1.00
H20    H     0.34720   0.92250  -0.22440   0.00000  Uiso   1.00
H21    H     0.07750   0.42470  -0.22440   0.00000  Uiso   1.00
H22    H     0.42470   0.34720  -0.22440   0.00000  Uiso   1.00
H23    H     0.65280   0.07750  -0.22440   0.00000  Uiso   1.00
H24    H     0.92250   0.57530  -0.22440   0.00000  Uiso   1.00
H25    H     0.65430   0.72140   0.00000   0.00000  Uiso   1.00
H26    H     0.27860   0.93290   0.00000   0.00000  Uiso   1.00
H27    H     0.06710   0.34570   0.00000   0.00000  Uiso   1.00
H28    H     0.34570   0.27860   0.00000   0.00000  Uiso   1.00
H29    H     0.72140   0.06710   0.00000   0.00000  Uiso   1.00
H30    H     0.93290   0.65430   0.00000   0.00000  Uiso   1.00
H31    H     0.58800   0.52490   0.00000   0.00000  Uiso   1.00
H32    H     0.47510   0.06310   0.00000   0.00000  Uiso   1.00
H33    H     0.93690   0.41200   0.00000   0.00000  Uiso   1.00
H34    H     0.41200   0.47510   0.00000   0.00000  Uiso   1.00
H35    H     0.52490   0.93690   0.00000   0.00000  Uiso   1.00
H36    H     0.06310   0.58800   0.00000   0.00000  Uiso   1.00
H37    H     0.39080   0.52620   0.00000   0.00000  Uiso   1.00
H38    H     0.47380   0.86460   0.00000   0.00000  Uiso   1.00
H39    H     0.13540   0.60920   0.00000   0.00000  Uiso   1.00
H40    H     0.60920   0.47380   0.00000   0.00000  Uiso   1.00
H41    H     0.52620   0.13540   0.00000   0.00000  Uiso   1.00
H42    H     0.86460   0.39080   0.00000   0.00000  Uiso   1.00
H43    H     0.26710   0.57760   0.00000   0.00000  Uiso   1.00
H44    H     0.42240   0.68950   0.00000   0.00000  Uiso   1.00
H45    H     0.31050   0.73290   0.00000   0.00000  Uiso   1.00
H46    H     0.73290   0.42240   0.00000   0.00000  Uiso   1.00
H47    H     0.57760   0.31050   0.00000   0.00000  Uiso   1.00
H48    H     0.68950   0.26710   0.00000   0.00000  Uiso   1.00
H49    H     0.32950   0.55060   0.00000   0.00000  Uiso   1.00
H50    H     0.44940   0.77890   0.00000   0.00000  Uiso   1.00
H51    H     0.22110   0.67050   0.00000   0.00000  Uiso   1.00
H52    H     0.67050   0.44940   0.00000   0.00000  Uiso   1.00
H53    H     0.55060   0.22110   0.00000   0.00000  Uiso   1.00
H54    H     0.77890   0.32950   0.00000   0.00000  Uiso   1.00
C55    C     0.38350   0.67950   0.00000   0.00000  Uiso   1.00
C56    C     0.32050   0.70400   0.00000   0.00000  Uiso   1.00
C57    C     0.29600   0.61650   0.00000   0.00000  Uiso   1.00
C58    C     0.61650   0.32050   0.00000   0.00000  Uiso   1.00
C59    C     0.67950   0.29600   0.00000   0.00000  Uiso   1.00
C60    C     0.70400   0.38350   0.00000   0.00000  Uiso   1.00
C61    C     0.37100   0.71720   0.00000   0.00000  Uiso   1.00
C62    C     0.28280   0.65380   0.00000   0.00000  Uiso   1.00
C63    C     0.34620   0.62900   0.00000   0.00000  Uiso   1.00
C64    C     0.62900   0.28280   0.00000   0.00000  Uiso   1.00
C65    C     0.71720   0.34620   0.00000   0.00000  Uiso   1.00
C66    C     0.65380   0.37100   0.00000   0.00000  Uiso   1.00
C67    C     0.46150   0.44890   0.00000   0.00000  Uiso   1.00
C68    C     0.55110   0.01260   0.00000   0.00000  Uiso   1.00
C69    C     0.98740   0.53850   0.00000   0.00000  Uiso   1.00
C70    C     0.53850   0.55110   0.00000   0.00000  Uiso   1.00
C71    C     0.44890   0.98740   0.00000   0.00000  Uiso   1.00
C72    C     0.01260   0.46150   0.00000   0.00000  Uiso   1.00
C73    C     0.45120   0.48800   0.00000   0.00000  Uiso   1.00
C74    C     0.51200   0.96320   0.00000   0.00000  Uiso   1.00
C75    C     0.03680   0.54880   0.00000   0.00000  Uiso   1.00
C76    C     0.54880   0.51200   0.00000   0.00000  Uiso   1.00
C77    C     0.48800   0.03680   0.00000   0.00000  Uiso   1.00
C78    C     0.96320   0.45120   0.00000   0.00000  Uiso   1.00
C79    C     0.46880   0.57680   0.00000   0.00000  Uiso   1.00
C80    C     0.42320   0.89200   0.00000   0.00000  Uiso   1.00
C81    C     0.10800   0.53120   0.00000   0.00000  Uiso   1.00
C82    C     0.53120   0.42320   0.00000   0.00000  Uiso   1.00
C83    C     0.57680   0.10800   0.00000   0.00000  Uiso   1.00
C84    C     0.89200   0.46880   0.00000   0.00000  Uiso   1.00
C85    C     0.48730   0.53950   0.00000   0.00000  Uiso   1.00
C86    C     0.46050   0.94780   0.00000   0.00000  Uiso   1.00
C87    C     0.05220   0.51270   0.00000   0.00000  Uiso   1.00
C88    C     0.51270   0.46050   0.00000   0.00000  Uiso   1.00
C89    C     0.53950   0.05220   0.00000   0.00000  Uiso   1.00
C90    C     0.94780   0.48730   0.00000   0.00000  Uiso   1.00
C91    C     0.35900   0.58910   0.00000   0.00000  Uiso   1.00
C92    C     0.41090   0.76990   0.00000   0.00000  Uiso   1.00
C93    C     0.23010   0.64100   0.00000   0.00000  Uiso   1.00
C94    C     0.64100   0.41090   0.00000   0.00000  Uiso   1.00
C95    C     0.58910   0.23010   0.00000   0.00000  Uiso   1.00
C96    C     0.76990   0.35900   0.00000   0.00000  Uiso   1.00
C97    C     0.59100   0.64610   0.00000   0.00000  Uiso   1.00
C98    C     0.35390   0.94490   0.00000   0.00000  Uiso   1.00
C99    C     0.05510   0.40900   0.00000   0.00000  Uiso   1.00
C100   C     0.40900   0.35390   0.00000   0.00000  Uiso   1.00
C101   C     0.64610   0.05510   0.00000   0.00000  Uiso   1.00
C102   C     0.94490   0.59100   0.00000   0.00000  Uiso   1.00
O103   O     0.58400   0.59730   0.00000   0.00000  Uiso   1.00
O104   O     0.40270   0.98670   0.00000   0.00000  Uiso   1.00
O105   O     0.01330   0.41600   0.00000   0.00000  Uiso   1.00
O106   O     0.41600   0.40270   0.00000   0.00000  Uiso   1.00
O107   O     0.59730   0.01330   0.00000   0.00000  Uiso   1.00
O108   O     0.98670   0.58400   0.00000   0.00000  Uiso   1.00
C109   C     0.64680   0.68240   0.00000   0.00000  Uiso   1.00
C110   C     0.31760   0.96440   0.00000   0.00000  Uiso   1.00
C111   C     0.03560   0.35320   0.00000   0.00000  Uiso   1.00
C112   C     0.35320   0.31760   0.00000   0.00000  Uiso   1.00
C113   C     0.68240   0.03560   0.00000   0.00000  Uiso   1.00
C114   C     0.96440   0.64680   0.00000   0.00000  Uiso   1.00
N115   N     0.41910   0.56300   0.00000   0.00000  Uiso   1.00
N116   N     0.43700   0.85610   0.00000   0.00000  Uiso   1.00
N117   N     0.14390   0.58090   0.00000   0.00000  Uiso   1.00
N118   N     0.58090   0.43700   0.00000   0.00000  Uiso   1.00
N119   N     0.56300   0.14390   0.00000   0.00000  Uiso   1.00
N120   N     0.85610   0.41910   0.00000   0.00000  Uiso   1.00
N121   N     0.40520   0.59980   0.00000   0.00000  Uiso   1.00
N122   N     0.40020   0.80540   0.00000   0.00000  Uiso   1.00
N123   N     0.19460   0.59480   0.00000   0.00000  Uiso   1.00
N124   N     0.59480   0.40020   0.00000   0.00000  Uiso   1.00
N125   N     0.59980   0.19460   0.00000   0.00000  Uiso   1.00
N126   N     0.80540   0.40520   0.00000   0.00000  Uiso   1.00
O127   O     0.49800   0.62100   0.00000   0.00000  Uiso   1.00
O128   O     0.37900   0.87700   0.00000   0.00000  Uiso   1.00
O129   O     0.12300   0.50200   0.00000   0.00000  Uiso   1.00
O130   O     0.50200   0.37900   0.00000   0.00000  Uiso   1.00
O131   O     0.62100   0.12300   0.00000   0.00000  Uiso   1.00
O132   O     0.87700   0.49800   0.00000   0.00000  Uiso   1.00
loop_
_geom_bond_atom_site_label_1
_geom_bond_atom_site_label_2
_geom_bond_distance
_geom_bond_site_symmetry_2
_ccdc_geom_bond_type
H1     C112    1.086   .     S
H2     C113    1.086   .     S
H3     C114    1.086   .     S
H4     C109    1.086   .     S
H5     C110    1.086   .     S
H6     C111    1.086   .     S
H7     C109    1.086   .     S
H8     C110    1.086   .     S
H9     C111    1.086   .     S
H10    C112    1.086   .     S
H11    C113    1.086   .     S
H12    C114    1.086   .     S
H13    C100    1.087   .     S
H14    C101    1.087   .     S
H15    C102    1.087   .     S
H16    C97     1.087   .     S
H17    C98     1.087   .     S
H18    C99     1.087   .     S
H19    C97     1.087   .     S
H20    C98     1.087   .     S
H21    C99     1.087   .     S
H22    C100    1.087   .     S
H23    C101    1.087   .     S
H24    C102    1.087   .     S
H25    C109    1.074   .     S
H26    C110    1.074   .     S
H27    C111    1.074   .     S
H28    C112    1.074   .     S
H29    C113    1.074   .     S
H30    C114    1.074   .     S
H31    C76     1.037   .     S
H32    C77     1.037   .     S
H33    C78     1.037   .     S
H34    C73     1.037   .     S
H35    C74     1.037   .     S
H36    C75     1.037   .     S
H37    N115    1.000   .     S
H38    N116    1.000   .     S
H39    N117    1.000   .     S
H40    N118    1.000   .     S
H41    N119    1.000   .     S
H42    N120    1.000   .     S
H43    C57     1.049   .     S
H44    C55     1.049   .     S
H45    C56     1.049   .     S
H46    C60     1.049   .     S
H47    C58     1.049   .     S
H48    C59     1.049   .     S
H49    C91     1.046   .     S
H50    C92     1.046   .     S
H51    C93     1.046   .     S
H52    C94     1.046   .     S
H53    C95     1.046   .     S
H54    C96     1.046   .     S
C55    C61     1.357   .     D
C55    C63     1.360   .     S
C56    C61     1.360   .     S
C56    C62     1.357   .     D
C57    C62     1.360   .     S
C57    C63     1.357   .     D
C58    C64     1.357   .     D
C58    C66     1.360   .     S
C59    C64     1.360   .     S
C59    C65     1.357   .     D
C60    C65     1.360   .     S
C60    C66     1.357   .     D
C61    C92     1.427   .     S
C62    C93     1.427   .     S
C63    C91     1.427   .     S
C64    C95     1.427   .     S
C65    C96     1.427   .     S
C66    C94     1.427   .     S
C67    C73     1.353   .     D
C67    C88     1.394   .     S
C67    O106    1.375   .     S
C68    C74     1.353   1_545 S
C68    C89     1.394   .     D
C68    O107    1.375   .     S
C69    C75     1.353   1_655 S
C69    C90     1.394   .     D
C69    O108    1.375   .     S
C70    C76     1.353   .     S
C70    C85     1.394   .     D
C70    O103    1.375   .     S
C71    C77     1.353   1_565 D
C71    C86     1.394   .     S
C71    O104    1.375   .     S
C72    C78     1.353   1_455 D
C72    C87     1.394   .     S
C72    O105    1.375   .     S
C73    C85     1.373   .     S
C74    C68     1.353   1_565 S
C74    C86     1.373   .     D
C75    C69     1.353   1_455 S
C75    C87     1.373   .     D
C76    C88     1.373   .     D
C77    C71     1.353   1_545 D
C77    C89     1.373   .     S
C78    C72     1.353   1_655 D
C78    C90     1.373   .     S
C79    C85     1.476   .     S
C79    N115    1.332   .     S
C79    O127    1.167   .     D
C80    C86     1.476   .     S
C80    N116    1.332   .     S
C80    O128    1.167   .     D
C81    C87     1.476   .     S
C81    N117    1.332   .     S
C81    O129    1.167   .     D
C82    C88     1.476   .     S
C82    N118    1.332   .     S
C82    O130    1.167   .     D
C83    C89     1.476   .     S
C83    N119    1.332   .     S
C83    O131    1.167   .     D
C84    C90     1.476   .     S
C84    N120    1.332   .     S
C84    O132    1.167   .     D
C91    N121    1.256   .     D
C92    N122    1.256   .     D
C93    N123    1.256   .     D
C94    N124    1.256   .     D
C95    N125    1.256   .     D
C96    N126    1.256   .     D
C97    O103    1.370   .     S
C97    C109    1.470   .     S
C98    O104    1.370   .     S
C98    C110    1.470   .     S
C99    O105    1.370   .     S
C99    C111    1.470   .     S
C100   O106    1.370   .     S
C100   C112    1.470   .     S
C101   O107    1.370   .     S
C101   C113    1.470   .     S
C102   O108    1.370   .     S
C102   C114    1.470   .     S
N115   N121    1.360   .     S
N116   N122    1.360   .     S
N117   N123    1.360   .     S
N118   N124    1.360   .     S
N119   N125    1.360   .     S
N120   N126    1.360   .     S
