data_1200
_audit_creation_date              2023-09-08
_audit_creation_method            'Materials Studio'
_symmetry_space_group_name_H-M    'P1'
_symmetry_Int_Tables_number       1
_symmetry_cell_setting            triclinic
loop_
_symmetry_equiv_pos_as_xyz
  x,y,z
_cell_length_a                    23.1114
_cell_length_b                    23.2225
_cell_length_c                    15.9097
_cell_angle_alpha                 89.8297
_cell_angle_beta                  89.9932
_cell_angle_gamma                 119.9548
loop_
_atom_site_label
_atom_site_type_symbol
_atom_site_fract_x
_atom_site_fract_y
_atom_site_fract_z
_atom_site_U_iso_or_equiv
_atom_site_adp_type
_atom_site_occupancy
C11    C     0.07042   0.03734   0.47864   0.00000  Uiso   1.00
C22    C     0.96529   0.03185   0.47849   0.00000  Uiso   1.00
C33    C     0.96999   0.92752   0.47689   0.00000  Uiso   1.00
C44    C     0.10379   0.09526   0.52746   0.00000  Uiso   1.00
C55    C     0.90708   0.00715   0.52748   0.00000  Uiso   1.00
C66    C     0.99485   0.89427   0.52588   0.00000  Uiso   1.00
C77    C     0.17309   0.13165   0.52747   0.00000  Uiso   1.00
C88    C     0.87048   0.03975   0.52751   0.00000  Uiso   1.00
C99    C     0.96214   0.82530   0.52609   0.00000  Uiso   1.00
C1010  C     0.21083   0.11165   0.47891   0.00000  Uiso   1.00
C1111  C     0.89052   0.09727   0.47881   0.00000  Uiso   1.00
C1212  C     0.90435   0.78777   0.47758   0.00000  Uiso   1.00
C1313  C     0.17687   0.05338   0.43028   0.00000  Uiso   1.00
C1414  C     0.94909   0.12171   0.43003   0.00000  Uiso   1.00
C1515  C     0.87975   0.82161   0.42879   0.00000  Uiso   1.00
C1616  C     0.10782   0.01667   0.43015   0.00000  Uiso   1.00
C1717  C     0.98602   0.08970   0.42987   0.00000  Uiso   1.00
C1818  C     0.91186   0.89033   0.42845   0.00000  Uiso   1.00
C1919  C     0.38921   0.17748   0.43241   0.00000  Uiso   1.00
C2020  C     0.82425   0.20895   0.43228   0.00000  Uiso   1.00
C2121  C     0.79224   0.61027   0.43156   0.00000  Uiso   1.00
C2222  C     0.42880   0.14735   0.42356   0.00000  Uiso   1.00
C2323  C     0.85447   0.27844   0.42326   0.00000  Uiso   1.00
C2424  C     0.72243   0.57091   0.42276   0.00000  Uiso   1.00
C2525  C     0.49790   0.18564   0.42301   0.00000  Uiso   1.00
C2626  C     0.81595   0.30891   0.42274   0.00000  Uiso   1.00
C2727  C     0.69186   0.50214   0.42241   0.00000  Uiso   1.00
C2828  C     0.52961   0.25531   0.42902   0.00000  Uiso   1.00
C2929  C     0.74595   0.27085   0.42896   0.00000  Uiso   1.00
C3030  C     0.73015   0.47054   0.42860   0.00000  Uiso   1.00
C3131  C     0.49015   0.28564   0.43471   0.00000  Uiso   1.00
C3232  C     0.71553   0.20130   0.43482   0.00000  Uiso   1.00
C3333  C     0.80003   0.50975   0.43425   0.00000  Uiso   1.00
C3434  C     0.42101   0.24748   0.43638   0.00000  Uiso   1.00
C3535  C     0.75392   0.17065   0.43646   0.00000  Uiso   1.00
C3636  C     0.83078   0.57857   0.43572   0.00000  Uiso   1.00
C3737  C     0.60307   0.29599   0.42862   0.00000  Uiso   1.00
C3838  C     0.70503   0.30329   0.42859   0.00000  Uiso   1.00
C3939  C     0.69760   0.39742   0.42843   0.00000  Uiso   1.00
C4040  C     0.28337   0.15106   0.47960   0.00000  Uiso   1.00
C4141  C     0.85088   0.13005   0.47954   0.00000  Uiso   1.00
C4242  C     0.87146   0.71558   0.47848   0.00000  Uiso   1.00
N143   N     0.32012   0.13644   0.43360   0.00000  Uiso   1.00
N244   N     0.86553   0.18121   0.43342   0.00000  Uiso   1.00
N345   N     0.82006   0.67903   0.43254   0.00000  Uiso   1.00
N446   N     0.73711   0.37015   0.42849   0.00000  Uiso   1.00
N547   N     0.63042   0.36252   0.42852   0.00000  Uiso   1.00
N648   N     0.63818   0.26402   0.42869   0.00000  Uiso   1.00
N749   N     0.00000   0.00000   0.47800   0.00000  Uiso   1.00
H150   H     0.07486   0.11103   0.56533   0.00000  Uiso   1.00
H251   H     0.89128   0.96116   0.56367   0.00000  Uiso   1.00
H352   H     0.03670   0.92394   0.56388   0.00000  Uiso   1.00
H453   H     0.19873   0.17629   0.56616   0.00000  Uiso   1.00
H554   H     0.82562   0.02065   0.56633   0.00000  Uiso   1.00
H655   H     0.98136   0.79977   0.56491   0.00000  Uiso   1.00
H756   H     0.20632   0.03827   0.39234   0.00000  Uiso   1.00
H857   H     0.96423   0.16610   0.39198   0.00000  Uiso   1.00
H958   H     0.83516   0.79233   0.39088   0.00000  Uiso   1.00
H1059  H     0.08173   0.97021   0.39053   0.00000  Uiso   1.00
H1160  H     0.02835   0.10958   0.39208   0.00000  Uiso   1.00
H1261  H     0.89277   0.91632   0.39049   0.00000  Uiso   1.00
H1362  H     0.40378   0.09336   0.41823   0.00000  Uiso   1.00
H1463  H     0.90872   0.30748   0.41776   0.00000  Uiso   1.00
H1564  H     0.69321   0.59585   0.41729   0.00000  Uiso   1.00
H1665  H     0.52874   0.16251   0.41745   0.00000  Uiso   1.00
H1766  H     0.83916   0.36271   0.41704   0.00000  Uiso   1.00
H1867  H     0.63780   0.47148   0.41688   0.00000  Uiso   1.00
H1968  H     0.51491   0.33971   0.43771   0.00000  Uiso   1.00
H2069  H     0.66121   0.17191   0.43798   0.00000  Uiso   1.00
H2170  H     0.82959   0.48508   0.43739   0.00000  Uiso   1.00
H2271  H     0.39083   0.27157   0.43902   0.00000  Uiso   1.00
H2372  H     0.72975   0.11654   0.43924   0.00000  Uiso   1.00
H2473  H     0.88514   0.60857   0.43833   0.00000  Uiso   1.00
H2574  H     0.89262   0.69367   0.52206   0.00000  Uiso   1.00
H2675  H     0.30536   0.19400   0.52305   0.00000  Uiso   1.00
H2776  H     0.80773   0.10903   0.52312   0.00000  Uiso   1.00
loop_
_geom_bond_atom_site_label_1
_geom_bond_atom_site_label_2
_geom_bond_distance
_geom_bond_site_symmetry_2
_ccdc_geom_bond_type
C11    C44     1.406   .     D
C11    C1616   1.410   .     S
C11    N749    1.411   .     S
C22    C55     1.405   .     D
C22    C1717   1.408   .     S
C22    N749    1.335   1_655 S
C33    C66     1.405   .     S
C33    C1818   1.411   .     D
C33    N749    1.466   1_665 S
C44    C77     1.388   .     S
C44    H150    1.091   .     S
C55    C88     1.389   .     S
C55    H251    1.101   1_545 S
C66    C99     1.388   .     D
C66    H352    1.055   1_655 S
C77    C1010   1.407   .     D
C77    H453    1.093   .     S
C88    C1111   1.405   .     D
C88    H554    1.092   .     S
C99    C1212   1.407   .     S
C99    H655    1.091   .     S
C1010  C1313   1.411   .     S
C1010  C4040   1.455   .     S
C1111  C1414   1.409   .     S
C1111  C4141   1.454   .     S
C1212  C1515   1.409   .     D
C1212  C4242   1.455   .     S
C1313  C1616   1.384   .     D
C1313  H756    1.091   .     S
C1414  C1717   1.384   .     D
C1414  H857    1.090   .     S
C1515  C1818   1.384   .     S
C1515  H958    1.091   .     S
C1616  H1059   1.131   1_545 S
C1717  H1160   1.039   1_655 S
C1818  H1261   1.090   .     S
C1919  C2222   1.409   .     D
C1919  C3434   1.412   .     S
C1919  N143    1.392   .     S
C2020  C2323   1.409   .     D
C2020  C3535   1.412   .     S
C2020  N244    1.393   .     S
C2121  C2424   1.409   .     S
C2121  C3636   1.412   .     D
C2121  N345    1.392   .     S
C2222  C2525   1.387   .     S
C2222  H1362   1.091   .     S
C2323  C2626   1.386   .     S
C2323  H1463   1.091   .     S
C2424  C2727   1.387   .     D
C2424  H1564   1.091   .     S
C2525  C2828   1.407   .     D
C2525  H1665   1.089   .     S
C2626  C2929   1.407   .     D
C2626  H1766   1.089   .     S
C2727  C3030   1.407   .     S
C2727  H1867   1.090   .     S
C2828  C3131   1.406   .     S
C2828  C3737   1.474   .     S
C2929  C3232   1.406   .     S
C2929  C3838   1.474   .     S
C3030  C3333   1.406   .     D
C3030  C3939   1.474   .     S
C3131  C3434   1.387   .     D
C3131  H1968   1.090   .     S
C3232  C3535   1.387   .     D
C3232  H2069   1.090   .     S
C3333  C3636   1.388   .     S
C3333  H2170   1.090   .     S
C3434  H2271   1.091   .     S
C3535  H2372   1.092   .     S
C3636  H2473   1.092   .     S
C3737  N547    1.346   .     S
C3737  N648    1.346   .     D
C3838  N446    1.346   .     D
C3838  N648    1.346   .     S
C3939  N446    1.346   .     S
C3939  N547    1.346   .     D
C4040  N143    1.289   .     D
C4040  H2675   1.108   .     S
C4141  N244    1.287   .     D
C4141  H2776   1.107   .     S
C4242  N345    1.289   .     D
C4242  H2574   1.107   .     S
N749   C22     1.335   1_455 S
N749   C33     1.466   1_445 S
H251   C55     1.101   1_565 S
H352   C66     1.055   1_455 S
H1059  C1616   1.131   1_565 S
H1160  C1717   1.039   1_455 S
