data_1201
_audit_creation_date              2023-09-08
_audit_creation_method            'Materials Studio'
_symmetry_space_group_name_H-M    'P1'
_symmetry_Int_Tables_number       1
_symmetry_cell_setting            triclinic
loop_
_symmetry_equiv_pos_as_xyz
  x,y,z
_cell_length_a                    23.1224
_cell_length_b                    23.1224
_cell_length_c                    5.3815
_cell_angle_alpha                 90.0000
_cell_angle_beta                  90.0000
_cell_angle_gamma                 120.0000
loop_
_atom_site_label
_atom_site_type_symbol
_atom_site_fract_x
_atom_site_fract_y
_atom_site_fract_z
_atom_site_U_iso_or_equiv
_atom_site_adp_type
_atom_site_occupancy
H1     H     0.38954   0.44068   0.50000   0.00000  Uiso   1.00
H2     H     0.49151   0.67300   0.50000   0.00000  Uiso   1.00
H3     H     0.56260   0.63736   0.50000   0.00000  Uiso   1.00
H4     H     0.38150   0.53197   0.50000   0.00000  Uiso   1.00
H5     H     0.52348   0.35275   0.50000   0.00000  Uiso   1.00
H6     H     0.46094   0.39092   0.50000   0.00000  Uiso   1.00
H7     H     0.64346   0.48816   0.50000   0.00000  Uiso   1.00
H8     H     0.75183   0.61356   0.50000   0.00000  Uiso   1.00
H9     H    -0.44068  -0.05114   0.50000   0.00000  Uiso   1.00
H10    H    -0.67300  -0.18149   0.50000   0.00000  Uiso   1.00
H11    H    -0.63736  -0.07476   0.50000   0.00000  Uiso   1.00
H12    H    -0.53197  -0.15047   0.50000   0.00000  Uiso   1.00
H13    H    -0.35275   0.17073   0.50000   0.00000  Uiso   1.00
H14    H    -0.39092   0.07002   0.50000   0.00000  Uiso   1.00
H15    H    -0.48816   0.15530   0.50000   0.00000  Uiso   1.00
H16    H    -0.61356   0.13827   0.50000   0.00000  Uiso   1.00
H17    H     0.05114  -0.38954   0.50000   0.00000  Uiso   1.00
H18    H     0.18149  -0.49151   0.50000   0.00000  Uiso   1.00
H19    H     0.07476  -0.56260   0.50000   0.00000  Uiso   1.00
H20    H     0.15047  -0.38150   0.50000   0.00000  Uiso   1.00
H21    H    -0.17073  -0.52348   0.50000   0.00000  Uiso   1.00
H22    H    -0.07002  -0.46094   0.50000   0.00000  Uiso   1.00
H23    H    -0.15530  -0.64346   0.50000   0.00000  Uiso   1.00
H24    H    -0.13827  -0.75183   0.50000   0.00000  Uiso   1.00
C25    C     0.31605   0.59832   0.50000   0.00000  Uiso   1.00
C26    C     0.38815   0.64838   0.50000   0.00000  Uiso   1.00
C27    C     0.43891   0.63407   0.50000   0.00000  Uiso   1.00
C28    C     0.47148   0.54322   0.50000   0.00000  Uiso   1.00
C29    C     0.44420   0.47384   0.50000   0.00000  Uiso   1.00
C30    C     0.54074   0.58267   0.50000   0.00000  Uiso   1.00
C31    C     0.69437   0.40362   0.50000   0.00000  Uiso   1.00
C32    C     0.62086   0.36308   0.50000   0.00000  Uiso   1.00
C33    C     0.57734   0.38712   0.50000   0.00000  Uiso   1.00
C34    C     0.55515   0.48527   0.50000   0.00000  Uiso   1.00
C35    C     0.58356   0.55581   0.50000   0.00000  Uiso   1.00
C36    C     0.48541   0.44582   0.50000   0.00000  Uiso   1.00
C37    C    -0.59832  -0.28227   0.50000   0.00000  Uiso   1.00
C38    C    -0.64838  -0.26023   0.50000   0.00000  Uiso   1.00
C39    C    -0.63407  -0.19516   0.50000   0.00000  Uiso   1.00
C40    C    -0.54322  -0.07174   0.50000   0.00000  Uiso   1.00
C41    C    -0.47384  -0.02964   0.50000   0.00000  Uiso   1.00
C42    C    -0.58267  -0.04193   0.50000   0.00000  Uiso   1.00
C43    C    -0.40362   0.29075   0.50000   0.00000  Uiso   1.00
C44    C    -0.36308   0.25778   0.50000   0.00000  Uiso   1.00
C45    C    -0.38712   0.19022   0.50000   0.00000  Uiso   1.00
C46    C    -0.48527   0.06988   0.50000   0.00000  Uiso   1.00
C47    C    -0.55581   0.02775   0.50000   0.00000  Uiso   1.00
C48    C    -0.44582   0.03959   0.50000   0.00000  Uiso   1.00
C49    C     0.28227  -0.31605   0.50000   0.00000  Uiso   1.00
C50    C     0.26023  -0.38815   0.50000   0.00000  Uiso   1.00
C51    C     0.19516  -0.43891   0.50000   0.00000  Uiso   1.00
C52    C     0.07174  -0.47148   0.50000   0.00000  Uiso   1.00
C53    C     0.02964  -0.44420   0.50000   0.00000  Uiso   1.00
C54    C     0.04193  -0.54074   0.50000   0.00000  Uiso   1.00
C55    C    -0.29075  -0.69437   0.50000   0.00000  Uiso   1.00
C56    C    -0.25778  -0.62086   0.50000   0.00000  Uiso   1.00
C57    C    -0.19022  -0.57734   0.50000   0.00000  Uiso   1.00
C58    C    -0.06988  -0.55515   0.50000   0.00000  Uiso   1.00
C59    C    -0.02775  -0.58356   0.50000   0.00000  Uiso   1.00
C60    C    -0.03959  -0.48541   0.50000   0.00000  Uiso   1.00
N61    N     0.42879   0.57054   0.50000   0.00000  Uiso   1.00
N62    N     0.59424   0.45318   0.50000   0.00000  Uiso   1.00
N63    N    -0.57054  -0.14175   0.50000   0.00000  Uiso   1.00
N64    N    -0.45318   0.14106   0.50000   0.00000  Uiso   1.00
N65    N     0.14175  -0.42879   0.50000   0.00000  Uiso   1.00
N66    N    -0.14106  -0.59424   0.50000   0.00000  Uiso   1.00
O67    O     0.68865   0.64705   0.72692   0.00000  Uiso   1.00
O68    O    -0.64705   0.04160   0.72692   0.00000  Uiso   1.00
O69    O    -0.04160  -0.68865   0.72692   0.00000  Uiso   1.00
O70    O     0.68865   0.64705  -0.72692   0.00000  Uiso   1.00
O71    O    -0.64705   0.04160  -0.72692   0.00000  Uiso   1.00
O72    O    -0.04160  -0.68865  -0.72692   0.00000  Uiso   1.00
O73    O     0.30027   0.53955   0.50000   0.00000  Uiso   1.00
O74    O     0.71898   0.46395   0.50000   0.00000  Uiso   1.00
O75    O     0.70993   0.57363   0.50000   0.00000  Uiso   1.00
O76    O    -0.53955  -0.23928   0.50000   0.00000  Uiso   1.00
O77    O    -0.46395   0.25503   0.50000   0.00000  Uiso   1.00
O78    O    -0.57363   0.13630   0.50000   0.00000  Uiso   1.00
O79    O     0.23928  -0.30027   0.50000   0.00000  Uiso   1.00
O80    O    -0.25503  -0.71898   0.50000   0.00000  Uiso   1.00
O81    O    -0.13630  -0.70993   0.50000   0.00000  Uiso   1.00
S82    S     0.67088   0.61180   0.50000   0.00000  Uiso   1.00
S83    S    -0.61180   0.05908   0.50000   0.00000  Uiso   1.00
S84    S    -0.05908  -0.67088   0.50000   0.00000  Uiso   1.00
loop_
_geom_bond_atom_site_label_1
_geom_bond_atom_site_label_2
_geom_bond_distance
_geom_bond_site_symmetry_2
_ccdc_geom_bond_type
H1     C29     1.103   .     S
H2     C27     1.093   .     S
H3     C30     1.102   .     S
H4     N61     1.008   .     S
H5     C33     1.092   .     S
H6     C36     1.102   .     S
H7     N62     1.014   .     S
H8     O75     0.947   .     S
H9     C41     1.103   .     S
H10    C39     1.093   .     S
H11    C42     1.102   .     S
H12    N63     1.008   .     S
H13    C45     1.092   .     S
H14    C48     1.102   .     S
H15    N64     1.014   .     S
H16    O78     0.947   .     S
H17    C53     1.103   .     S
H18    C51     1.093   .     S
H19    C54     1.102   .     S
H20    N65     1.008   .     S
H21    C57     1.092   .     S
H22    C60     1.102   .     S
H23    N66     1.014   .     S
H24    O81     0.947   .     S
C25    C26     1.480   .     S
C25    O73     1.218   .     D
C25    C50     1.472   1_565 S
C26    C27     1.369   .     D
C26    C37     1.472   1_665 S
C27    N61     1.367   .     S
C28    N61     1.413   .     S
C28    C30     1.391   .     D
C28    C29     1.400   .     S
C29    C36     1.395   .     D
C30    C35     1.407   .     S
C31    C32     1.475   .     S
C31    O74     1.215   .     D
C31    C56     1.473   1_665 S
C32    C33     1.371   .     D
C32    C43     1.473   1_655 S
C33    N62     1.374   .     S
C34    C35     1.421   .     D
C34    N62     1.428   .     S
C34    C36     1.401   .     S
C35    S82     1.772   .     S
C37    O76     1.218   .     D
C37    C38     1.480   .     S
C37    C26     1.472   1_445 S
C38    C39     1.369   .     D
C38    C49     1.472   1_455 S
C39    N63     1.367   .     S
C40    C41     1.400   .     D
C40    C42     1.391   .     S
C40    N63     1.413   .     S
C41    C48     1.395   .     S
C42    C47     1.407   .     D
C43    O77     1.215   .     D
C43    C44     1.475   .     S
C43    C32     1.473   1_455 S
C44    C45     1.371   .     D
C44    C55     1.473   1_565 S
C45    N64     1.374   .     S
C46    C47     1.421   .     S
C46    C48     1.401   .     D
C46    N64     1.428   .     S
C47    S83     1.772   .     S
C49    O79     1.218   .     D
C49    C50     1.480   .     S
C49    C38     1.472   1_655 S
C50    C51     1.369   .     D
C50    C25     1.472   1_545 S
C51    N65     1.367   .     S
C52    C53     1.400   .     D
C52    N65     1.413   .     S
C52    C54     1.391   .     S
C53    C60     1.395   .     S
C54    C59     1.407   .     D
C55    C56     1.475   .     S
C55    O80     1.215   .     D
C55    C44     1.473   1_545 S
C56    C57     1.371   .     D
C56    C31     1.473   1_445 S
C57    N66     1.374   .     S
C58    C59     1.421   .     S
C58    C60     1.401   .     D
C58    N66     1.428   .     S
C59    S84     1.772   .     S
O67    S82     1.411   .     D
O68    S83     1.411   .     D
O69    S84     1.411   .     D
O70    S82     1.411   1_554 D
O71    S83     1.411   1_554 D
O72    S84     1.411   1_554 D
O75    S82     1.546   .     S
O78    S83     1.546   .     S
O81    S84     1.546   .     S
S82    O70     1.411   1_556 D
S83    O71     1.411   1_556 D
S84    O72     1.411   1_556 D
