data_1202
_audit_creation_date              2023-09-08
_audit_creation_method            'Materials Studio'
_symmetry_space_group_name_H-M    'P1'
_symmetry_Int_Tables_number       1
_symmetry_cell_setting            triclinic
loop_
_symmetry_equiv_pos_as_xyz
  x,y,z
_cell_length_a                    23.2201
_cell_length_b                    23.2201
_cell_length_c                    5.5656
_cell_angle_alpha                 90.0000
_cell_angle_beta                  90.0000
_cell_angle_gamma                 120.0000
loop_
_atom_site_label
_atom_site_type_symbol
_atom_site_fract_x
_atom_site_fract_y
_atom_site_fract_z
_atom_site_U_iso_or_equiv
_atom_site_adp_type
_atom_site_occupancy
H1     H     0.73902   0.60932   0.50000   0.00000  Uiso   1.00
H2     H     0.36531   0.51827   0.50000   0.00000  Uiso   1.00
H3     H     0.48074   0.65595   0.50000   0.00000  Uiso   1.00
H4     H     0.54451   0.62125   0.50000   0.00000  Uiso   1.00
H5     H    -0.60932   0.12970   0.50000   0.00000  Uiso   1.00
H6     H    -0.51827  -0.15296   0.50000   0.00000  Uiso   1.00
H7     H    -0.65595  -0.17521   0.50000   0.00000  Uiso   1.00
H8     H    -0.62125  -0.07674   0.50000   0.00000  Uiso   1.00
H9     H    -0.12970  -0.73902   0.50000   0.00000  Uiso   1.00
H10    H     0.15296  -0.36531   0.50000   0.00000  Uiso   1.00
H11    H     0.17521  -0.48074   0.50000   0.00000  Uiso   1.00
H12    H     0.07674  -0.54451   0.50000   0.00000  Uiso   1.00
H13    H    -0.73902  -0.60932   0.50000   0.00000  Uiso   1.00
H14    H    -0.36531  -0.51827   0.50000   0.00000  Uiso   1.00
H15    H    -0.48074  -0.65595   0.50000   0.00000  Uiso   1.00
H16    H    -0.54451  -0.62125   0.50000   0.00000  Uiso   1.00
H17    H     0.60932  -0.12970   0.50000   0.00000  Uiso   1.00
H18    H     0.51827   0.15296   0.50000   0.00000  Uiso   1.00
H19    H     0.65595   0.17521   0.50000   0.00000  Uiso   1.00
H20    H     0.62125   0.07674   0.50000   0.00000  Uiso   1.00
H21    H     0.12970   0.73902   0.50000   0.00000  Uiso   1.00
H22    H    -0.15296   0.36531   0.50000   0.00000  Uiso   1.00
H23    H    -0.17521   0.48074   0.50000   0.00000  Uiso   1.00
H24    H    -0.07674   0.54451   0.50000   0.00000  Uiso   1.00
C25    C     0.30892   0.59719   0.50000   0.00000  Uiso   1.00
C26    C     0.38180   0.64045   0.50000   0.00000  Uiso   1.00
C27    C     0.42760   0.61957   0.50000   0.00000  Uiso   1.00
C28    C     0.45538   0.52560   0.50000   0.00000  Uiso   1.00
C29    C     0.52402   0.56695   0.50000   0.00000  Uiso   1.00
C30    C     0.56971   0.54395   0.50000   0.00000  Uiso   1.00
C31    C    -0.59719  -0.28827   0.50000   0.00000  Uiso   1.00
C32    C    -0.64045  -0.25865   0.50000   0.00000  Uiso   1.00
C33    C    -0.61957  -0.19197   0.50000   0.00000  Uiso   1.00
C34    C    -0.52560  -0.07022   0.50000   0.00000  Uiso   1.00
C35    C    -0.56695  -0.04293   0.50000   0.00000  Uiso   1.00
C36    C    -0.54395   0.02576   0.50000   0.00000  Uiso   1.00
C37    C     0.28827  -0.30892   0.50000   0.00000  Uiso   1.00
C38    C     0.25865  -0.38180   0.50000   0.00000  Uiso   1.00
C39    C     0.19197  -0.42760   0.50000   0.00000  Uiso   1.00
C40    C     0.07022  -0.45538   0.50000   0.00000  Uiso   1.00
C41    C     0.04293  -0.52402   0.50000   0.00000  Uiso   1.00
C42    C    -0.02576  -0.56971   0.50000   0.00000  Uiso   1.00
C43    C    -0.30892  -0.59719   0.50000   0.00000  Uiso   1.00
C44    C    -0.38180  -0.64045   0.50000   0.00000  Uiso   1.00
C45    C    -0.42760  -0.61957   0.50000   0.00000  Uiso   1.00
C46    C    -0.45538  -0.52560   0.50000   0.00000  Uiso   1.00
C47    C    -0.52402  -0.56695   0.50000   0.00000  Uiso   1.00
C48    C    -0.56971  -0.54395   0.50000   0.00000  Uiso   1.00
C49    C     0.59719   0.28827   0.50000   0.00000  Uiso   1.00
C50    C     0.64045   0.25865   0.50000   0.00000  Uiso   1.00
C51    C     0.61957   0.19197   0.50000   0.00000  Uiso   1.00
C52    C     0.52560   0.07022   0.50000   0.00000  Uiso   1.00
C53    C     0.56695   0.04293   0.50000   0.00000  Uiso   1.00
C54    C     0.54395  -0.02576   0.50000   0.00000  Uiso   1.00
C55    C    -0.28827   0.30892   0.50000   0.00000  Uiso   1.00
C56    C    -0.25865   0.38180   0.50000   0.00000  Uiso   1.00
C57    C    -0.19197   0.42760   0.50000   0.00000  Uiso   1.00
C58    C    -0.07022   0.45538   0.50000   0.00000  Uiso   1.00
C59    C    -0.04293   0.52402   0.50000   0.00000  Uiso   1.00
C60    C     0.02576   0.56971   0.50000   0.00000  Uiso   1.00
N61    N     0.41383   0.55465   0.50000   0.00000  Uiso   1.00
N62    N    -0.55465  -0.14082   0.50000   0.00000  Uiso   1.00
N63    N     0.14082  -0.41383   0.50000   0.00000  Uiso   1.00
N64    N    -0.41383  -0.55465   0.50000   0.00000  Uiso   1.00
N65    N     0.55465   0.14082   0.50000   0.00000  Uiso   1.00
N66    N    -0.14082   0.41383   0.50000   0.00000  Uiso   1.00
O67    O     0.67107   0.63787   0.72028   0.00000  Uiso   1.00
O68    O    -0.63787   0.03320   0.72028   0.00000  Uiso   1.00
O69    O    -0.03320  -0.67107   0.72028   0.00000  Uiso   1.00
O70    O    -0.67107  -0.63787   0.72028   0.00000  Uiso   1.00
O71    O     0.63787  -0.03320   0.72028   0.00000  Uiso   1.00
O72    O     0.03320   0.67107   0.72028   0.00000  Uiso   1.00
O73    O    -0.67107  -0.63787  -0.72028   0.00000  Uiso   1.00
O74    O     0.63787  -0.03320  -0.72028   0.00000  Uiso   1.00
O75    O     0.03320   0.67107  -0.72028   0.00000  Uiso   1.00
O76    O     0.67107   0.63787  -0.72028   0.00000  Uiso   1.00
O77    O    -0.63787   0.03320  -0.72028   0.00000  Uiso   1.00
O78    O    -0.03320  -0.67107  -0.72028   0.00000  Uiso   1.00
O79    O     0.28720   0.53751   0.50000   0.00000  Uiso   1.00
O80    O     0.69805   0.56865   0.50000   0.00000  Uiso   1.00
O81    O    -0.53751  -0.25031   0.50000   0.00000  Uiso   1.00
O82    O    -0.56865   0.12940   0.50000   0.00000  Uiso   1.00
O83    O     0.25031  -0.28720   0.50000   0.00000  Uiso   1.00
O84    O    -0.12940  -0.69805   0.50000   0.00000  Uiso   1.00
O85    O    -0.28720  -0.53751   0.50000   0.00000  Uiso   1.00
O86    O    -0.69805  -0.56865   0.50000   0.00000  Uiso   1.00
O87    O     0.53751   0.25031   0.50000   0.00000  Uiso   1.00
O88    O     0.56865  -0.12940   0.50000   0.00000  Uiso   1.00
O89    O    -0.25031   0.28720   0.50000   0.00000  Uiso   1.00
O90    O     0.12940   0.69805   0.50000   0.00000  Uiso   1.00
S91    S     0.65581   0.60320   0.50000   0.00000  Uiso   1.00
S92    S    -0.60320   0.05261   0.50000   0.00000  Uiso   1.00
S93    S    -0.05261  -0.65581   0.50000   0.00000  Uiso   1.00
S94    S    -0.65581  -0.60320   0.50000   0.00000  Uiso   1.00
S95    S     0.60320  -0.05261   0.50000   0.00000  Uiso   1.00
S96    S     0.05261   0.65581   0.50000   0.00000  Uiso   1.00
loop_
_geom_bond_atom_site_label_1
_geom_bond_atom_site_label_2
_geom_bond_distance
_geom_bond_site_symmetry_2
_ccdc_geom_bond_type
H1     O80     0.948   .     S
H2     N61     1.015   .     S
H3     C27     1.093   .     S
H4     C29     1.103   .     S
H5     O82     0.948   .     S
H6     N62     1.015   .     S
H7     C33     1.093   .     S
H8     C35     1.103   .     S
H9     O84     0.948   .     S
H10    N63     1.015   .     S
H11    C39     1.093   .     S
H12    C41     1.103   .     S
H13    O86     0.948   .     S
H14    N64     1.015   .     S
H15    C45     1.093   .     S
H16    C47     1.103   .     S
H17    O88     0.948   .     S
H18    N65     1.015   .     S
H19    C51     1.093   .     S
H20    C53     1.103   .     S
H21    O90     0.948   .     S
H22    N66     1.015   .     S
H23    C57     1.093   .     S
H24    C59     1.103   .     S
C25    C26     1.474   .     S
C25    O79     1.215   .     D
C25    C38     1.473   1_565 S
C26    C27     1.372   .     D
C26    C31     1.473   1_665 S
C27    N61     1.376   .     S
C28    N61     1.427   .     S
C28    C29     1.390   .     D
C28    C48     1.417   1_665 S
C29    C30     1.406   .     S
C30    S91     1.772   .     S
C30    C46     1.417   1_665 D
C31    C32     1.474   .     S
C31    O81     1.215   .     D
C31    C26     1.473   1_445 S
C32    C33     1.372   .     D
C32    C37     1.473   1_455 S
C33    N62     1.376   .     S
C34    C35     1.390   .     D
C34    N62     1.427   .     S
C34    C54     1.417   1_455 S
C35    C36     1.406   .     S
C36    S92     1.772   .     S
C36    C52     1.417   1_455 D
C37    O83     1.215   .     D
C37    C38     1.474   .     S
C37    C32     1.473   1_655 S
C38    C39     1.372   .     D
C38    C25     1.473   1_545 S
C39    N63     1.376   .     S
C40    N63     1.427   .     S
C40    C41     1.390   .     D
C40    C60     1.417   1_545 S
C41    C42     1.406   .     S
C42    S93     1.772   .     S
C42    C58     1.417   1_545 D
C43    C44     1.474   .     S
C43    O85     1.215   .     D
C43    C56     1.473   1_545 S
C44    C45     1.372   .     D
C44    C49     1.473   1_445 S
C45    N64     1.376   .     S
C46    N64     1.427   .     S
C46    C47     1.390   .     S
C46    C30     1.417   1_445 D
C47    C48     1.406   .     D
C48    S94     1.772   .     S
C48    C28     1.417   1_445 S
C49    C50     1.474   .     S
C49    O87     1.215   .     D
C49    C44     1.473   1_665 S
C50    C51     1.372   .     D
C50    C55     1.473   1_655 S
C51    N65     1.376   .     S
C52    C53     1.390   .     S
C52    N65     1.427   .     S
C52    C36     1.417   1_655 D
C53    C54     1.406   .     D
C54    S95     1.772   .     S
C54    C34     1.417   1_655 S
C55    O89     1.215   .     D
C55    C56     1.474   .     S
C55    C50     1.473   1_455 S
C56    C57     1.372   .     D
C56    C43     1.473   1_565 S
C57    N66     1.376   .     S
C58    N66     1.427   .     S
C58    C59     1.390   .     S
C58    C42     1.417   1_565 D
C59    C60     1.406   .     D
C60    S96     1.772   .     S
C60    C40     1.417   1_565 S
O67    S91     1.411   .     D
O68    S92     1.411   .     D
O69    S93     1.411   .     D
O70    S94     1.411   .     D
O71    S95     1.411   .     D
O72    S96     1.411   .     D
O73    S94     1.411   1_554 D
O74    S95     1.411   1_554 D
O75    S96     1.411   1_554 D
O76    S91     1.411   1_554 D
O77    S92     1.411   1_554 D
O78    S93     1.411   1_554 D
O80    S91     1.547   .     S
O82    S92     1.547   .     S
O84    S93     1.547   .     S
O86    S94     1.547   .     S
O88    S95     1.547   .     S
O90    S96     1.547   .     S
S91    O76     1.411   1_556 D
S92    O77     1.411   1_556 D
S93    O78     1.411   1_556 D
S94    O73     1.411   1_556 D
S95    O74     1.411   1_556 D
S96    O75     1.411   1_556 D
