data_1203
_audit_creation_date              2023-09-08
_audit_creation_method            'Materials Studio'
_symmetry_space_group_name_H-M    'P1'
_symmetry_Int_Tables_number       1
_symmetry_cell_setting            triclinic
loop_
_symmetry_equiv_pos_as_xyz
  x,y,z
_cell_length_a                    29.0899
_cell_length_b                    29.0899
_cell_length_c                    5.6207
_cell_angle_alpha                 90.0000
_cell_angle_beta                  90.0000
_cell_angle_gamma                 120.0000
loop_
_atom_site_label
_atom_site_type_symbol
_atom_site_fract_x
_atom_site_fract_y
_atom_site_fract_z
_atom_site_U_iso_or_equiv
_atom_site_adp_type
_atom_site_occupancy
H1     H     0.30176   0.57002   0.00000   0.00000  Uiso   1.00
H2     H     0.45114   0.66334   0.00000   0.00000  Uiso   1.00
H3     H     0.49903   0.63618   0.00000   0.00000  Uiso   1.00
H4     H     0.55249   0.59163   0.00000   0.00000  Uiso   1.00
H5     H     0.40867   0.43966   0.00000   0.00000  Uiso   1.00
H6     H    -0.57013  -0.26785   0.00000   0.00000  Uiso   1.00
H7     H    -0.66334  -0.21220   0.00000   0.00000  Uiso   1.00
H8     H    -0.63618  -0.13714   0.00000   0.00000  Uiso   1.00
H9     H    -0.59163  -0.03914   0.00000   0.00000  Uiso   1.00
H10    H    -0.43966  -0.03099   0.00000   0.00000  Uiso   1.00
H11    H     0.26785  -0.30228   0.00000   0.00000  Uiso   1.00
H12    H     0.21220  -0.45114   0.00000   0.00000  Uiso   1.00
H13    H     0.13714  -0.49903   0.00000   0.00000  Uiso   1.00
H14    H     0.03914  -0.55249   0.00000   0.00000  Uiso   1.00
H15    H     0.03099  -0.40867   0.00000   0.00000  Uiso   1.00
H16    H    -0.30176  -0.57002   0.00000   0.00000  Uiso   1.00
H17    H    -0.45114  -0.66334   0.00000   0.00000  Uiso   1.00
H18    H    -0.49903  -0.63618   0.00000   0.00000  Uiso   1.00
H19    H    -0.55249  -0.59163   0.00000   0.00000  Uiso   1.00
H20    H    -0.40867  -0.43966   0.00000   0.00000  Uiso   1.00
H21    H     0.57013   0.26785   0.00000   0.00000  Uiso   1.00
H22    H     0.66334   0.21220   0.00000   0.00000  Uiso   1.00
H23    H     0.63618   0.13714   0.00000   0.00000  Uiso   1.00
H24    H     0.59163   0.03914   0.00000   0.00000  Uiso   1.00
H25    H     0.43966   0.03099   0.00000   0.00000  Uiso   1.00
H26    H    -0.26785   0.30228   0.00000   0.00000  Uiso   1.00
H27    H    -0.21220   0.45114   0.00000   0.00000  Uiso   1.00
H28    H    -0.13714   0.49903   0.00000   0.00000  Uiso   1.00
H29    H    -0.03914   0.55249   0.00000   0.00000  Uiso   1.00
H30    H    -0.03099   0.40867   0.00000   0.00000  Uiso   1.00
C1     C     0.31638   0.61442   0.00000   0.00000  Uiso   1.00
C2     C     0.40696   0.63276   0.00000   0.00000  Uiso   1.00
C3     C     0.42476   0.56216   0.00000   0.00000  Uiso   1.00
C4     C     0.47820   0.59097   0.00000   0.00000  Uiso   1.00
C5     C     0.50731   0.56690   0.00000   0.00000  Uiso   1.00
C6     C     0.48422   0.51309   0.00000   0.00000  Uiso   1.00
C7     C     0.43027   0.48490   0.00000   0.00000  Uiso   1.00
C8     C     0.40138   0.50916   0.00000   0.00000  Uiso   1.00
C9     C     0.36893   0.64967   0.00000   0.00000  Uiso   1.00
C10    C    -0.61442  -0.29804   0.00000   0.00000  Uiso   1.00
C11    C    -0.63276  -0.22580   0.00000   0.00000  Uiso   1.00
C12    C    -0.56216  -0.13740   0.00000   0.00000  Uiso   1.00
C13    C    -0.59097  -0.11277   0.00000   0.00000  Uiso   1.00
C14    C    -0.56690  -0.05959   0.00000   0.00000  Uiso   1.00
C15    C    -0.51309  -0.02887   0.00000   0.00000  Uiso   1.00
C16    C    -0.48490  -0.05463   0.00000   0.00000  Uiso   1.00
C17    C    -0.50916  -0.10778   0.00000   0.00000  Uiso   1.00
C18    C    -0.64967  -0.28074   0.00000   0.00000  Uiso   1.00
C19    C     0.29804  -0.31638   0.00000   0.00000  Uiso   1.00
C20    C     0.22580  -0.40696   0.00000   0.00000  Uiso   1.00
C21    C     0.13740  -0.42476   0.00000   0.00000  Uiso   1.00
C22    C     0.11277  -0.47820   0.00000   0.00000  Uiso   1.00
C23    C     0.05959  -0.50731   0.00000   0.00000  Uiso   1.00
C24    C     0.02887  -0.48422   0.00000   0.00000  Uiso   1.00
C25    C     0.05463  -0.43027   0.00000   0.00000  Uiso   1.00
C26    C     0.10778  -0.40138   0.00000   0.00000  Uiso   1.00
C27    C     0.28074  -0.36893   0.00000   0.00000  Uiso   1.00
C28    C    -0.31638  -0.61442   0.00000   0.00000  Uiso   1.00
C29    C    -0.40696  -0.63276   0.00000   0.00000  Uiso   1.00
C30    C    -0.42476  -0.56216   0.00000   0.00000  Uiso   1.00
C31    C    -0.47820  -0.59097   0.00000   0.00000  Uiso   1.00
C32    C    -0.50731  -0.56690   0.00000   0.00000  Uiso   1.00
C33    C    -0.48422  -0.51309   0.00000   0.00000  Uiso   1.00
C34    C    -0.43027  -0.48490   0.00000   0.00000  Uiso   1.00
C35    C    -0.40138  -0.50916   0.00000   0.00000  Uiso   1.00
C36    C    -0.36893  -0.64967   0.00000   0.00000  Uiso   1.00
C37    C     0.61442   0.29804   0.00000   0.00000  Uiso   1.00
C38    C     0.63276   0.22580   0.00000   0.00000  Uiso   1.00
C39    C     0.56216   0.13740   0.00000   0.00000  Uiso   1.00
C40    C     0.59097   0.11277   0.00000   0.00000  Uiso   1.00
C41    C     0.56690   0.05959   0.00000   0.00000  Uiso   1.00
C42    C     0.51309   0.02887   0.00000   0.00000  Uiso   1.00
C43    C     0.48490   0.05463   0.00000   0.00000  Uiso   1.00
C44    C     0.50916   0.10778   0.00000   0.00000  Uiso   1.00
C45    C     0.64967   0.28074   0.00000   0.00000  Uiso   1.00
C46    C    -0.29804   0.31638   0.00000   0.00000  Uiso   1.00
C47    C    -0.22580   0.40696   0.00000   0.00000  Uiso   1.00
C48    C    -0.13740   0.42476   0.00000   0.00000  Uiso   1.00
C49    C    -0.11277   0.47820   0.00000   0.00000  Uiso   1.00
C50    C    -0.05959   0.50731   0.00000   0.00000  Uiso   1.00
C51    C    -0.02887   0.48422   0.00000   0.00000  Uiso   1.00
C52    C    -0.05463   0.43027   0.00000   0.00000  Uiso   1.00
C53    C    -0.10778   0.40138   0.00000   0.00000  Uiso   1.00
C54    C    -0.28074   0.36893   0.00000   0.00000  Uiso   1.00
N1     N     0.39261   0.58453   0.00000   0.00000  Uiso   1.00
N2     N    -0.58453  -0.19192   0.00000   0.00000  Uiso   1.00
N3     N     0.19192  -0.39261   0.00000   0.00000  Uiso   1.00
N4     N    -0.39261  -0.58453   0.00000   0.00000  Uiso   1.00
N5     N     0.58453   0.19192   0.00000   0.00000  Uiso   1.00
N6     N    -0.19192   0.39261   0.00000   0.00000  Uiso   1.00
O1     O     0.57787   0.90489   1.17665   0.00000  Uiso   1.00
O2     O     0.57787   0.90489  -1.17665   0.00000  Uiso   1.00
O3     O     0.49978   0.78550   1.00000   0.00000  Uiso   1.00
S1     S     0.52587   0.85541   1.00000   0.00000  Uiso   1.00
H31    H     0.35623   0.48393   0.00000   0.00000  Uiso   1.00
H32    H     0.12841  -0.35619   0.00000   0.00000  Uiso   1.00
H33    H    -0.35619  -0.48459   0.00000   0.00000  Uiso   1.00
H34    H     0.48393   0.12770   0.00000   0.00000  Uiso   1.00
H35    H    -0.12770   0.35623   0.00000   0.00000  Uiso   1.00
loop_
_geom_bond_atom_site_label_1
_geom_bond_atom_site_label_2
_geom_bond_distance
_geom_bond_site_symmetry_2
_ccdc_geom_bond_type
H1     C1      1.140   .     S
H2     C2      1.140   .     S
H3     C4      1.140   .     S
H4     C5      1.140   .     S
H5     C7      1.140   .     S
H6     C10     1.140   .     S
H7     C11     1.140   .     S
H8     C13     1.140   .     S
H9     C14     1.140   .     S
H10    C16     1.140   .     S
H11    C19     1.140   .     S
H12    C20     1.140   .     S
H13    C22     1.140   .     S
H14    C23     1.140   .     S
H15    C25     1.140   .     S
H16    C28     1.140   .     S
H17    C29     1.140   .     S
H18    C31     1.140   .     S
H19    C32     1.140   .     S
H20    C34     1.140   .     S
H21    C37     1.140   .     S
H22    C38     1.140   .     S
H23    C40     1.140   .     S
H24    C41     1.140   .     S
H25    C43     1.140   .     S
H26    C46     1.140   .     S
H27    C47     1.140   .     S
H28    C49     1.140   .     S
H29    C50     1.140   .     S
H30    C52     1.140   .     S
C1     C9      1.349   .     D
C1     C27     1.346   1_565 S
C2     N1      1.248   .     D
C2     C9      1.418   .     S
C3     C8      1.338   .     S
C3     N1      1.381   .     S
C3     C4      1.348   .     D
C4     C5      1.342   .     S
C5     C6      1.360   .     D
C6     C7      1.360   .     S
C6     C33     1.457   1_665 S
C7     C8      1.341   .     D
C8     H31     1.140   .     S
C9     C10     1.346   1_665 S
C10    C18     1.349   .     D
C10    C9      1.346   1_445 S
C11    C18     1.418   .     S
C11    N2      1.248   .     D
C12    C13     1.348   .     D
C12    C17     1.338   .     S
C12    N2      1.381   .     S
C13    C14     1.342   .     S
C14    C15     1.360   .     D
C15    C16     1.360   .     S
C15    C42     1.457   1_455 S
C16    C17     1.341   .     D
C17    S1      1.810   1_444 S
C18    C19     1.346   1_455 S
C19    C27     1.349   .     D
C19    C18     1.346   1_655 S
C20    N3      1.248   .     D
C20    C27     1.418   .     S
C21    N3      1.381   .     S
C21    C26     1.338   .     D
C21    C22     1.348   .     S
C22    C23     1.342   .     D
C23    C24     1.360   .     S
C24    C25     1.360   .     D
C24    C51     1.457   1_545 S
C25    C26     1.341   .     S
C26    H32     1.140   .     S
C27    C1      1.346   1_545 S
C28    C36     1.349   .     D
C28    C54     1.346   1_545 S
C29    N4      1.248   .     D
C29    C36     1.418   .     S
C30    C35     1.338   .     D
C30    N4      1.381   .     S
C30    C31     1.348   .     S
C31    C32     1.342   .     D
C32    C33     1.360   .     S
C33    C34     1.360   .     D
C33    C6      1.457   1_445 S
C34    C35     1.341   .     S
C35    H33     1.140   .     S
C36    C37     1.346   1_445 S
C37    C45     1.349   .     D
C37    C36     1.346   1_665 S
C38    C45     1.418   .     S
C38    N5      1.248   .     D
C39    C40     1.348   .     D
C39    C44     1.338   .     S
C39    N5      1.381   .     S
C40    C41     1.342   .     S
C41    C42     1.360   .     D
C42    C43     1.360   .     S
C42    C15     1.457   1_655 S
C43    C44     1.341   .     D
C44    H34     1.140   .     S
C45    C46     1.346   1_655 S
C46    C54     1.349   .     D
C46    C45     1.346   1_455 S
C47    N6      1.248   .     D
C47    C54     1.418   .     S
C48    N6      1.381   .     S
C48    C53     1.338   .     D
C48    C49     1.348   .     S
C49    C50     1.342   .     D
C50    C51     1.360   .     S
C51    C52     1.360   .     D
C51    C24     1.457   1_565 S
C52    C53     1.341   .     S
C53    H35     1.140   .     S
C54    C28     1.346   1_565 S
O1     S1      1.780   .     D
O2     S1      1.780   1_553 S
O3     S1      1.780   .     D
S1     C17     1.810   1_666 S
S1     O2      1.780   1_557 S
