data_1204
_audit_creation_date              2023-09-08
_audit_creation_method            'Materials Studio'
_symmetry_space_group_name_H-M    'P1'
_symmetry_Int_Tables_number       1
_symmetry_cell_setting            triclinic
loop_
_symmetry_equiv_pos_as_xyz
  x,y,z
_cell_length_a                    38.0430
_cell_length_b                    38.0430
_cell_length_c                    3.4685
_cell_angle_alpha                 90.0000
_cell_angle_beta                  90.0000
_cell_angle_gamma                 120.0000
loop_
_atom_site_label
_atom_site_type_symbol
_atom_site_fract_x
_atom_site_fract_y
_atom_site_fract_z
_atom_site_U_iso_or_equiv
_atom_site_adp_type
_atom_site_occupancy
C136   C     0.69084   0.86455   1.31821   0.00000  Uiso   1.00
C137   C     0.64783   0.84507   1.31821   0.00000  Uiso   1.00
C138   C     0.62209   0.80313   1.31821   0.00000  Uiso   1.00
C139   C     0.64290   0.77987   1.31821   0.00000  Uiso   1.00
C140   C     0.68785   0.80022   1.31821   0.00000  Uiso   1.00
C141   C     0.71279   0.84422   1.31821   0.00000  Uiso   1.00
C142   C     0.75775   0.86629   1.31821   0.00000  Uiso   1.00
C143   C     0.57734   0.78455   1.31821   0.00000  Uiso   1.00
C144   C     0.55864   0.80872   1.31821   0.00000  Uiso   1.00
C145   C     0.51664   0.79176   1.31821   0.00000  Uiso   1.00
C146   C     0.49053   0.74923   1.31821   0.00000  Uiso   1.00
C147   C     0.50859   0.72463   1.31821   0.00000  Uiso   1.00
C148   C     0.55069   0.74203   1.31821   0.00000  Uiso   1.00
C149   C     0.78033   0.84592   1.31821   0.00000  Uiso   1.00
C150   C     0.82255   0.86676   1.31821   0.00000  Uiso   1.00
C151   C     0.84512   0.90961   1.31821   0.00000  Uiso   1.00
C152   C     0.82320   0.93053   1.31821   0.00000  Uiso   1.00
C153   C     0.78085   0.90926   1.31821   0.00000  Uiso   1.00
N154   N     0.88740   0.92832   1.31821   0.00000  Uiso   1.00
N155   N     0.44862   0.73395   1.31821   0.00000  Uiso   1.00
C156   C     0.91499   0.96832   1.31821   0.00000  Uiso   1.00
C157   C     0.95689   0.98344   1.31821   0.00000  Uiso   1.00
C158   C     0.41880   0.69460   1.31821   0.00000  Uiso   1.00
C159   C     0.37755   0.68227   1.31821   0.00000  Uiso   1.00
N160   N     0.62361   0.73966   1.31821   0.00000  Uiso   1.00
S161   S     0.66123   0.72349   1.31821   0.00000  Uiso   1.00
N162   N     0.70308   0.77559   1.31821   0.00000  Uiso   1.00
C163   C     0.97424   0.95641   1.31821   0.00000  Uiso   1.00
C164   C     0.36310   0.71176   1.31821   0.00000  Uiso   1.00
H165   H     0.70707   0.89788   1.31821   0.00000  Uiso   1.00
H166   H     0.63487   0.86518   1.31821   0.00000  Uiso   1.00
H167   H     0.57719   0.84198   1.31821   0.00000  Uiso   1.00
H168   H     0.50345   0.81170   1.31821   0.00000  Uiso   1.00
H169   H     0.48957   0.69144   1.31821   0.00000  Uiso   1.00
H170   H     0.56347   0.72173   1.31821   0.00000  Uiso   1.00
H171   H     0.76427   0.81257   1.31821   0.00000  Uiso   1.00
H172   H     0.83878   0.84963   1.31821   0.00000  Uiso   1.00
H173   H     0.83938   0.96386   1.31821   0.00000  Uiso   1.00
H174   H     0.76549   0.92720   1.31821   0.00000  Uiso   1.00
H175   H     0.90377   0.99006   1.31821   0.00000  Uiso   1.00
H176   H     0.42766   0.67105   1.31821   0.00000  Uiso   1.00
O177   O     0.95188   0.91855   1.31821   0.00000  Uiso   1.00
O178   O     0.38752   0.74907   1.31821   0.00000  Uiso   1.00
H179   H     0.90030   0.90954   1.31821   0.00000  Uiso   1.00
H180   H     0.43802   0.75469   1.31821   0.00000  Uiso   1.00
C181   C     0.13659   0.82742   1.31821   0.00000  Uiso   1.00
C182   C     0.15607   0.80389   1.31821   0.00000  Uiso   1.00
C183   C     0.19801   0.82009   1.31821   0.00000  Uiso   1.00
C184   C     0.22127   0.86417   1.31821   0.00000  Uiso   1.00
C185   C     0.20092   0.88877   1.31821   0.00000  Uiso   1.00
C186   C     0.15692   0.86971   1.31821   0.00000  Uiso   1.00
C187   C     0.13484   0.89259   1.31821   0.00000  Uiso   1.00
C188   C     0.21659   0.79392   1.31821   0.00000  Uiso   1.00
C189   C     0.19242   0.75105   1.31821   0.00000  Uiso   1.00
C190   C     0.20938   0.72602   1.31821   0.00000  Uiso   1.00
C191   C     0.25191   0.74243   1.31821   0.00000  Uiso   1.00
C192   C     0.27650   0.78509   1.31821   0.00000  Uiso   1.00
C193   C     0.25910   0.80979   1.31821   0.00000  Uiso   1.00
C194   C     0.15522   0.93554   1.31821   0.00000  Uiso   1.00
C195   C     0.13438   0.95693   1.31821   0.00000  Uiso   1.00
C196   C     0.09152   0.93664   1.31821   0.00000  Uiso   1.00
C197   C     0.07061   0.89381   1.31821   0.00000  Uiso   1.00
C198   C     0.09187   0.87272   1.31821   0.00000  Uiso   1.00
N199   N     0.07282   0.96022   1.31821   0.00000  Uiso   1.00
N200   N     0.26718   0.71580   1.31821   0.00000  Uiso   1.00
C201   C     0.03282   0.94781   1.31821   0.00000  Uiso   1.00
C202   C     0.01770   0.97459   1.31821   0.00000  Uiso   1.00
C203   C     0.30654   0.72533   1.31821   0.00000  Uiso   1.00
C204   C     0.31887   0.69642   1.31821   0.00000  Uiso   1.00
N205   N     0.26148   0.88509   1.31821   0.00000  Uiso   1.00
S206   S     0.27765   0.93888   1.31821   0.00000  Uiso   1.00
N207   N     0.22555   0.92863   1.31821   0.00000  Uiso   1.00
C208   C     0.04473   0.01783   1.31821   0.00000  Uiso   1.00
C209   C     0.28938   0.65248   1.31821   0.00000  Uiso   1.00
H210   H     0.10326   0.81033   1.31821   0.00000  Uiso   1.00
H211   H     0.13595   0.77083   1.31821   0.00000  Uiso   1.00
H212   H     0.15916   0.73635   1.31821   0.00000  Uiso   1.00
H213   H     0.18944   0.69289   1.31821   0.00000  Uiso   1.00
H214   H     0.30970   0.79927   1.31821   0.00000  Uiso   1.00
H215   H     0.27941   0.84288   1.31821   0.00000  Uiso   1.00
H216   H     0.18856   0.95283   1.31821   0.00000  Uiso   1.00
H217   H     0.15151   0.99030   1.31821   0.00000  Uiso   1.00
H218   H     0.03728   0.87667   1.31821   0.00000  Uiso   1.00
H219   H     0.07393   0.83942   1.31821   0.00000  Uiso   1.00
H220   H     0.01108   0.91485   1.31821   0.00000  Uiso   1.00
H221   H     0.33009   0.75774   1.31821   0.00000  Uiso   1.00
O222   O     0.08258   0.03333   1.31821   0.00000  Uiso   1.00
O223   O     0.25207   0.63959   1.31821   0.00000  Uiso   1.00
H224   H     0.09159   0.99190   1.31821   0.00000  Uiso   1.00
H225   H     0.24645   0.68447   1.31821   0.00000  Uiso   1.00
C226   C     0.17372   0.31030   1.31821   0.00000  Uiso   1.00
C227   C     0.19724   0.35331   1.31821   0.00000  Uiso   1.00
C228   C     0.18105   0.37905   1.31821   0.00000  Uiso   1.00
C229   C     0.13697   0.35824   1.31821   0.00000  Uiso   1.00
C230   C     0.11237   0.31329   1.31821   0.00000  Uiso   1.00
C231   C     0.13143   0.28835   1.31821   0.00000  Uiso   1.00
C232   C     0.10854   0.24339   1.31821   0.00000  Uiso   1.00
C233   C     0.20722   0.42380   1.31821   0.00000  Uiso   1.00
C234   C     0.25008   0.44250   1.31821   0.00000  Uiso   1.00
C235   C     0.27512   0.48450   1.31821   0.00000  Uiso   1.00
C236   C     0.25870   0.51061   1.31821   0.00000  Uiso   1.00
C237   C     0.21605   0.49255   1.31821   0.00000  Uiso   1.00
C238   C     0.19135   0.45045   1.31821   0.00000  Uiso   1.00
C239   C     0.06559   0.22081   1.31821   0.00000  Uiso   1.00
C240   C     0.04421   0.17859   1.31821   0.00000  Uiso   1.00
C241   C     0.06449   0.15602   1.31821   0.00000  Uiso   1.00
C242   C     0.10733   0.17794   1.31821   0.00000  Uiso   1.00
C243   C     0.12842   0.22029   1.31821   0.00000  Uiso   1.00
N244   N     0.04092   0.11374   1.31821   0.00000  Uiso   1.00
N245   N     0.28533   0.55252   1.31821   0.00000  Uiso   1.00
C246   C     0.05333   0.08615   1.31821   0.00000  Uiso   1.00
C247   C     0.02655   0.04425   1.31821   0.00000  Uiso   1.00
C248   C     0.27580   0.58234   1.31821   0.00000  Uiso   1.00
C249   C     0.30472   0.62359   1.31821   0.00000  Uiso   1.00
N250   N     0.11605   0.37753   1.31821   0.00000  Uiso   1.00
S251   S     0.06226   0.33991   1.31821   0.00000  Uiso   1.00
N252   N     0.07251   0.29806   1.31821   0.00000  Uiso   1.00
C254   C     0.34866   0.63804   1.31821   0.00000  Uiso   1.00
H255   H     0.19081   0.29406   1.31821   0.00000  Uiso   1.00
H256   H     0.23031   0.36627   1.31821   0.00000  Uiso   1.00
H257   H     0.26479   0.42395   1.31821   0.00000  Uiso   1.00
H258   H     0.30825   0.49769   1.31821   0.00000  Uiso   1.00
H259   H     0.20187   0.51157   1.31821   0.00000  Uiso   1.00
H260   H     0.15826   0.43767   1.31821   0.00000  Uiso   1.00
H261   H     0.04830   0.23687   1.31821   0.00000  Uiso   1.00
H262   H     0.01084   0.16235   1.31821   0.00000  Uiso   1.00
H263   H     0.12447   0.16175   1.31821   0.00000  Uiso   1.00
H264   H     0.16171   0.23565   1.31821   0.00000  Uiso   1.00
H265   H     0.08629   0.09737   1.31821   0.00000  Uiso   1.00
H266   H     0.24340   0.57348   1.31821   0.00000  Uiso   1.00
O268   O     0.36155   0.61362   1.31821   0.00000  Uiso   1.00
H269   H     0.00924   0.10083   1.31821   0.00000  Uiso   1.00
H270   H     0.31667   0.56312   1.31821   0.00000  Uiso   1.00
C253   C     0.98331   1.02804   1.31821   0.00000  Uiso   1.00
O267   O     0.96781   1.05039   1.31821   0.00000  Uiso   1.00
loop_
_geom_bond_atom_site_label_1
_geom_bond_atom_site_label_2
_geom_bond_distance
_geom_bond_site_symmetry_2
_ccdc_geom_bond_type
C136   C137    1.419   .     S
C136   C141    1.393   .     D
C136   H165    1.098   .     S
C137   C138    1.394   .     D
C137   H166    1.098   .     S
C138   C139    1.453   .     S
C138   C143    1.481   .     S
C139   C140    1.483   .     S
C139   N160    1.325   .     D
C140   C141    1.454   .     S
C140   N162    1.325   .     D
C141   C142    1.481   .     S
C142   C149    1.416   .     D
C142   C153    1.417   .     S
C143   C144    1.416   .     D
C143   C148    1.416   .     S
C144   C145    1.392   .     S
C144   H167    1.098   .     S
C145   C146    1.413   .     D
C145   H168    1.099   .     S
C146   C147    1.411   .     S
C146   N155    1.398   .     S
C147   C148    1.394   .     D
C147   H169    1.097   .     S
C148   H170    1.099   .     S
C149   C150    1.391   .     S
C149   H171    1.099   .     S
C150   C151    1.412   .     D
C150   H172    1.099   .     S
C151   C152    1.412   .     S
C151   N154    1.396   .     S
C152   C153    1.395   .     D
C152   H173    1.098   .     S
C153   H174    1.098   .     S
N154   C156    1.349   .     S
N154   H179    1.050   .     S
N155   C158    1.353   .     S
N155   H180    1.050   .     S
C156   C157    1.398   .     D
C156   H175    1.104   .     S
C157   C163    1.474   .     S
C157   C253    1.478   .     S
C158   C159    1.395   .     D
C158   H176    1.104   .     S
C159   C164    1.476   .     S
C159   C254    1.480   .     S
N160   S161    1.819   .     S
S161   N162    1.819   .     S
C163   O177    1.254   .     D
C163   C202    1.438   1_655 S
C164   O178    1.249   .     D
C164   C204    1.480   .     S
C181   C182    1.419   .     S
C181   C186    1.394   .     D
C181   H210    1.098   .     S
C182   C183    1.394   .     D
C182   H211    1.098   .     S
C183   C184    1.453   .     S
C183   C188    1.481   .     S
C184   C185    1.483   .     S
C184   N205    1.325   .     D
C185   C186    1.454   .     S
C185   N207    1.325   .     D
C186   C187    1.481   .     S
C187   C194    1.416   .     D
C187   C198    1.417   .     S
C188   C189    1.416   .     D
C188   C193    1.415   .     S
C189   C190    1.392   .     S
C189   H212    1.098   .     S
C190   C191    1.413   .     D
C190   H213    1.099   .     S
C191   C192    1.411   .     S
C191   N200    1.397   .     S
C192   C193    1.394   .     D
C192   H214    1.098   .     S
C193   H215    1.100   .     S
C194   C195    1.391   .     S
C194   H216    1.099   .     S
C195   C196    1.413   .     D
C195   H217    1.100   .     S
C196   C197    1.411   .     S
C196   N199    1.396   .     S
C197   C198    1.395   .     D
C197   H218    1.098   .     S
C198   H219    1.098   .     S
N199   C201    1.349   .     S
N199   H224    1.050   .     S
N200   C203    1.353   .     S
N200   H225    1.050   .     S
C201   C202    1.398   .     D
C201   H220    1.104   .     S
C202   C163    1.438   1_455 S
C202   C208    1.439   1_565 S
C203   C204    1.395   .     D
C203   H221    1.104   .     S
C204   C209    1.476   .     S
N205   S206    1.819   .     S
S206   N207    1.819   .     S
C208   O222    1.254   .     D
C208   C247    1.478   .     S
C208   C202    1.439   1_545 S
C209   O223    1.249   .     D
C209   C249    1.480   .     S
C226   C227    1.419   .     S
C226   C231    1.394   .     D
C226   H255    1.098   .     S
C227   C228    1.393   .     D
C227   H256    1.098   .     S
C228   C229    1.453   .     S
C228   C233    1.481   .     S
C229   C230    1.483   .     S
C229   N250    1.325   .     D
C230   C231    1.454   .     S
C230   N252    1.325   .     D
C231   C232    1.481   .     S
C232   C239    1.416   .     D
C232   C243    1.417   .     S
C233   C234    1.416   .     D
C233   C238    1.416   .     S
C234   C235    1.392   .     S
C234   H257    1.098   .     S
C235   C236    1.413   .     D
C235   H258    1.099   .     S
C236   C237    1.411   .     S
C236   N245    1.398   .     S
C237   C238    1.394   .     D
C237   H259    1.098   .     S
C238   H260    1.100   .     S
C239   C240    1.391   .     S
C239   H261    1.099   .     S
C240   C241    1.412   .     D
C240   H262    1.100   .     S
C241   C242    1.412   .     S
C241   N244    1.396   .     S
C242   C243    1.395   .     D
C242   H263    1.098   .     S
C243   H264    1.098   .     S
N244   C246    1.349   .     S
N244   H269    1.050   .     S
N245   C248    1.353   .     S
N245   H270    1.050   .     S
C246   C247    1.398   .     D
C246   H265    1.104   .     S
C247   C253    1.439   1_445 S
C248   C249    1.395   .     D
C248   H266    1.103   .     S
C249   C254    1.476   .     S
N250   S251    1.819   .     S
S251   N252    1.819   .     S
C254   O268    1.249   .     D
C253   O267    1.254   .     D
C253   C247    1.439   1_665 S
