data_1205
_audit_creation_date              2023-09-08
_audit_creation_method            'Materials Studio'
_symmetry_space_group_name_H-M    'P1'
_symmetry_Int_Tables_number       1
_symmetry_cell_setting            triclinic
loop_
_symmetry_equiv_pos_as_xyz
  x,y,z
_cell_length_a                    38.0863
_cell_length_b                    38.0863
_cell_length_c                    6.0963
_cell_angle_alpha                 90.0000
_cell_angle_beta                  90.0000
_cell_angle_gamma                 120.0000
loop_
_atom_site_label
_atom_site_type_symbol
_atom_site_fract_x
_atom_site_fract_y
_atom_site_fract_z
_atom_site_U_iso_or_equiv
_atom_site_adp_type
_atom_site_occupancy
C1     C     0.30995   0.13643   0.25000   0.00000  Uiso   1.00
C2     C     0.35291   0.15589   0.25000   0.00000  Uiso   1.00
C3     C     0.37862   0.19778   0.25000   0.00000  Uiso   1.00
C4     C     0.35783   0.22102   0.25000   0.00000  Uiso   1.00
C5     C     0.31293   0.20069   0.25000   0.00000  Uiso   1.00
C6     C     0.28802   0.15674   0.25000   0.00000  Uiso   1.00
C7     C     0.24311   0.13469   0.25000   0.00000  Uiso   1.00
C8     C     0.42332   0.21634   0.25000   0.00000  Uiso   1.00
C9     C     0.44200   0.19220   0.25000   0.00000  Uiso   1.00
C10    C     0.48395   0.20914   0.25000   0.00000  Uiso   1.00
C11    C     0.51003   0.25162   0.25000   0.00000  Uiso   1.00
C12    C     0.49199   0.27619   0.25000   0.00000  Uiso   1.00
C13    C     0.44994   0.25881   0.25000   0.00000  Uiso   1.00
C14    C     0.22056   0.15504   0.25000   0.00000  Uiso   1.00
C15    C     0.17839   0.13423   0.25000   0.00000  Uiso   1.00
C16    C     0.15584   0.09142   0.25000   0.00000  Uiso   1.00
C17    C     0.17774   0.07053   0.25000   0.00000  Uiso   1.00
C18    C     0.22004   0.09177   0.25000   0.00000  Uiso   1.00
N19    N     0.11361   0.07274   0.25000   0.00000  Uiso   1.00
N20    N     0.55189   0.26688   0.25000   0.00000  Uiso   1.00
C21    C     0.08605   0.03278   0.25000   0.00000  Uiso   1.00
C22    C     0.04420   0.01768   0.25000   0.00000  Uiso   1.00
C23    C     0.58168   0.30619   0.25000   0.00000  Uiso   1.00
C24    C     0.62288   0.31851   0.25000   0.00000  Uiso   1.00
N25    N     0.37710   0.26118   0.25000   0.00000  Uiso   1.00
S26    S     0.33952   0.27733   0.25000   0.00000  Uiso   1.00
N27    N     0.29772   0.22529   0.25000   0.00000  Uiso   1.00
C28    C     0.02687   0.04468   0.25000   0.00000  Uiso   1.00
C29    C     0.63731   0.28905   0.25000   0.00000  Uiso   1.00
H30    H     0.29373   0.10314   0.25000   0.00000  Uiso   1.00
H31    H     0.36585   0.13580   0.25000   0.00000  Uiso   1.00
H32    H     0.42347   0.15898   0.25000   0.00000  Uiso   1.00
H33    H     0.49712   0.18922   0.25000   0.00000  Uiso   1.00
H34    H     0.51099   0.30935   0.25000   0.00000  Uiso   1.00
H35    H     0.43717   0.27909   0.25000   0.00000  Uiso   1.00
H36    H     0.23660   0.18835   0.25000   0.00000  Uiso   1.00
H37    H     0.16217   0.15134   0.25000   0.00000  Uiso   1.00
H38    H     0.16157   0.03724   0.25000   0.00000  Uiso   1.00
H39    H     0.23538   0.07385   0.25000   0.00000  Uiso   1.00
H40    H     0.09726   0.01107   0.25000   0.00000  Uiso   1.00
H41    H     0.57283   0.32971   0.25000   0.00000  Uiso   1.00
O42    O     0.04920   0.08249   0.25000   0.00000  Uiso   1.00
O43    O     0.61292   0.25178   0.25000   0.00000  Uiso   1.00
H44    H     0.10072   0.09149   0.25000   0.00000  Uiso   1.00
H45    H     0.56248   0.24617   0.25000   0.00000  Uiso   1.00
C46    C     0.86357   0.17352   0.25000   0.00000  Uiso   1.00
C47    C     0.84411   0.19702   0.25000   0.00000  Uiso   1.00
C48    C     0.80222   0.18084   0.25000   0.00000  Uiso   1.00
C49    C     0.77898   0.13681   0.25000   0.00000  Uiso   1.00
C50    C     0.79931   0.11224   0.25000   0.00000  Uiso   1.00
C51    C     0.84326   0.13128   0.25000   0.00000  Uiso   1.00
C52    C     0.86531   0.10842   0.25000   0.00000  Uiso   1.00
C53    C     0.78366   0.20698   0.25000   0.00000  Uiso   1.00
C54    C     0.80780   0.24980   0.25000   0.00000  Uiso   1.00
C55    C     0.79086   0.27481   0.25000   0.00000  Uiso   1.00
C56    C     0.74838   0.25841   0.25000   0.00000  Uiso   1.00
C57    C     0.72381   0.21580   0.25000   0.00000  Uiso   1.00
C58    C     0.74119   0.19113   0.25000   0.00000  Uiso   1.00
C59    C     0.84496   0.06552   0.25000   0.00000  Uiso   1.00
C60    C     0.86577   0.04416   0.25000   0.00000  Uiso   1.00
C61    C     0.90858   0.06442   0.25000   0.00000  Uiso   1.00
C62    C     0.92947   0.10721   0.25000   0.00000  Uiso   1.00
C63    C     0.90823   0.12827   0.25000   0.00000  Uiso   1.00
N64    N     0.92726   0.04087   0.25000   0.00000  Uiso   1.00
N65    N     0.73312   0.28501   0.25000   0.00000  Uiso   1.00
C66    C     0.96722   0.05327   0.25000   0.00000  Uiso   1.00
C67    C     0.98232   0.02652   0.25000   0.00000  Uiso   1.00
C68    C     0.69381   0.27549   0.25000   0.00000  Uiso   1.00
C69    C     0.68149   0.30437   0.25000   0.00000  Uiso   1.00
N70    N     0.73882   0.11592   0.25000   0.00000  Uiso   1.00
S71    S     0.72267   0.06219   0.25000   0.00000  Uiso   1.00
N72    N     0.77471   0.07243   0.25000   0.00000  Uiso   1.00
C73    C     0.95532   0.98219   0.25000   0.00000  Uiso   1.00
C74    C     0.71095   0.34826   0.25000   0.00000  Uiso   1.00
H75    H     0.89686   0.19059   0.25000   0.00000  Uiso   1.00
H76    H     0.86420   0.23005   0.25000   0.00000  Uiso   1.00
H77    H     0.84102   0.26449   0.25000   0.00000  Uiso   1.00
H78    H     0.81078   0.30790   0.25000   0.00000  Uiso   1.00
H79    H     0.69065   0.20164   0.25000   0.00000  Uiso   1.00
H80    H     0.72091   0.15808   0.25000   0.00000  Uiso   1.00
H81    H     0.81165   0.04825   0.25000   0.00000  Uiso   1.00
H82    H     0.84866   0.01083   0.25000   0.00000  Uiso   1.00
H83    H     0.96276   0.12433   0.25000   0.00000  Uiso   1.00
H84    H     0.92615   0.16153   0.25000   0.00000  Uiso   1.00
H85    H     0.98893   0.08619   0.25000   0.00000  Uiso   1.00
H86    H     0.67029   0.24312   0.25000   0.00000  Uiso   1.00
O87    O     0.91751   0.96671   0.25000   0.00000  Uiso   1.00
O88    O     0.74822   0.36114   0.25000   0.00000  Uiso   1.00
H89    H     0.90851   0.00923   0.25000   0.00000  Uiso   1.00
H90    H     0.75383   0.31631   0.25000   0.00000  Uiso   1.00
C91    C     0.82648   0.69005   0.25000   0.00000  Uiso   1.00
C92    C     0.80298   0.64709   0.25000   0.00000  Uiso   1.00
C93    C     0.81916   0.62138   0.25000   0.00000  Uiso   1.00
C94    C     0.86319   0.64217   0.25000   0.00000  Uiso   1.00
C95    C     0.88776   0.68707   0.25000   0.00000  Uiso   1.00
C96    C     0.86872   0.71198   0.25000   0.00000  Uiso   1.00
C97    C     0.89158   0.75689   0.25000   0.00000  Uiso   1.00
C98    C     0.79302   0.57668   0.25000   0.00000  Uiso   1.00
C99    C     0.75020   0.55800   0.25000   0.00000  Uiso   1.00
C100   C     0.72519   0.51605   0.25000   0.00000  Uiso   1.00
C101   C     0.74159   0.48997   0.25000   0.00000  Uiso   1.00
C102   C     0.78420   0.50801   0.25000   0.00000  Uiso   1.00
C103   C     0.80887   0.55006   0.25000   0.00000  Uiso   1.00
C104   C     0.93448   0.77944   0.25000   0.00000  Uiso   1.00
C105   C     0.95584   0.82161   0.25000   0.00000  Uiso   1.00
C106   C     0.93558   0.84416   0.25000   0.00000  Uiso   1.00
C107   C     0.89279   0.82226   0.25000   0.00000  Uiso   1.00
C108   C     0.87173   0.77996   0.25000   0.00000  Uiso   1.00
N109   N     0.95913   0.88639   0.25000   0.00000  Uiso   1.00
N110   N     0.71499   0.44811   0.25000   0.00000  Uiso   1.00
C111   C     0.94673   0.91395   0.25000   0.00000  Uiso   1.00
C112   C     0.97348   0.95580   0.25000   0.00000  Uiso   1.00
C113   C     0.72451   0.41832   0.25000   0.00000  Uiso   1.00
C114   C     0.69563   0.37712   0.25000   0.00000  Uiso   1.00
N115   N     0.88408   0.62290   0.25000   0.00000  Uiso   1.00
S116   S     0.93781   0.66048   0.25000   0.00000  Uiso   1.00
N117   N     0.92757   0.70228   0.25000   0.00000  Uiso   1.00
C118   C     0.01781   0.97313   0.25000   0.00000  Uiso   1.00
C119   C     0.65174   0.36269   0.25000   0.00000  Uiso   1.00
H120   H     0.80941   0.70627   0.25000   0.00000  Uiso   1.00
H121   H     0.76995   0.63415   0.25000   0.00000  Uiso   1.00
H122   H     0.73551   0.57653   0.25000   0.00000  Uiso   1.00
H123   H     0.69210   0.50288   0.25000   0.00000  Uiso   1.00
H124   H     0.79836   0.48901   0.25000   0.00000  Uiso   1.00
H125   H     0.84192   0.56283   0.25000   0.00000  Uiso   1.00
H126   H     0.95175   0.76340   0.25000   0.00000  Uiso   1.00
H127   H     0.98917   0.83783   0.25000   0.00000  Uiso   1.00
H128   H     0.87567   0.83843   0.25000   0.00000  Uiso   1.00
H129   H     0.83847   0.76462   0.25000   0.00000  Uiso   1.00
H130   H     0.91381   0.90274   0.25000   0.00000  Uiso   1.00
H131   H     0.75688   0.42717   0.25000   0.00000  Uiso   1.00
O132   O     0.03329   0.95080   0.25000   0.00000  Uiso   1.00
O133   O     0.63886   0.38708   0.25000   0.00000  Uiso   1.00
H134   H     0.99077   0.89928   0.25000   0.00000  Uiso   1.00
H135   H     0.68369   0.43752   0.25000   0.00000  Uiso   1.00
C136   C     0.69005   0.86357   0.75000   0.00000  Uiso   1.00
C137   C     0.64709   0.84411   0.75000   0.00000  Uiso   1.00
C138   C     0.62138   0.80222   0.75000   0.00000  Uiso   1.00
C139   C     0.64217   0.77898   0.75000   0.00000  Uiso   1.00
C140   C     0.68707   0.79931   0.75000   0.00000  Uiso   1.00
C141   C     0.71198   0.84326   0.75000   0.00000  Uiso   1.00
C142   C     0.75689   0.86531   0.75000   0.00000  Uiso   1.00
C143   C     0.57668   0.78366   0.75000   0.00000  Uiso   1.00
C144   C     0.55800   0.80780   0.75000   0.00000  Uiso   1.00
C145   C     0.51605   0.79086   0.75000   0.00000  Uiso   1.00
C146   C     0.48997   0.74838   0.75000   0.00000  Uiso   1.00
C147   C     0.50801   0.72381   0.75000   0.00000  Uiso   1.00
C148   C     0.55006   0.74119   0.75000   0.00000  Uiso   1.00
C149   C     0.77944   0.84496   0.75000   0.00000  Uiso   1.00
C150   C     0.82161   0.86577   0.75000   0.00000  Uiso   1.00
C151   C     0.84416   0.90858   0.75000   0.00000  Uiso   1.00
C152   C     0.82226   0.92947   0.75000   0.00000  Uiso   1.00
C153   C     0.77996   0.90823   0.75000   0.00000  Uiso   1.00
N154   N     0.88639   0.92726   0.75000   0.00000  Uiso   1.00
N155   N     0.44811   0.73312   0.75000   0.00000  Uiso   1.00
C156   C     0.91395   0.96722   0.75000   0.00000  Uiso   1.00
C157   C     0.95580   0.98232   0.75000   0.00000  Uiso   1.00
C158   C     0.41832   0.69381   0.75000   0.00000  Uiso   1.00
C159   C     0.37712   0.68149   0.75000   0.00000  Uiso   1.00
N160   N     0.62290   0.73882   0.75000   0.00000  Uiso   1.00
S161   S     0.66048   0.72267   0.75000   0.00000  Uiso   1.00
N162   N     0.70228   0.77471   0.75000   0.00000  Uiso   1.00
C163   C     0.97313   0.95532   0.75000   0.00000  Uiso   1.00
C164   C     0.36269   0.71095   0.75000   0.00000  Uiso   1.00
H165   H     0.70627   0.89686   0.75000   0.00000  Uiso   1.00
H166   H     0.63415   0.86420   0.75000   0.00000  Uiso   1.00
H167   H     0.57653   0.84102   0.75000   0.00000  Uiso   1.00
H168   H     0.50288   0.81078   0.75000   0.00000  Uiso   1.00
H169   H     0.48901   0.69065   0.75000   0.00000  Uiso   1.00
H170   H     0.56283   0.72091   0.75000   0.00000  Uiso   1.00
H171   H     0.76340   0.81165   0.75000   0.00000  Uiso   1.00
H172   H     0.83783   0.84866   0.75000   0.00000  Uiso   1.00
H173   H     0.83843   0.96276   0.75000   0.00000  Uiso   1.00
H174   H     0.76462   0.92615   0.75000   0.00000  Uiso   1.00
H175   H     0.90274   0.98893   0.75000   0.00000  Uiso   1.00
H176   H     0.42717   0.67029   0.75000   0.00000  Uiso   1.00
O177   O     0.95080   0.91751   0.75000   0.00000  Uiso   1.00
O178   O     0.38708   0.74822   0.75000   0.00000  Uiso   1.00
H179   H     0.89928   0.90851   0.75000   0.00000  Uiso   1.00
H180   H     0.43752   0.75383   0.75000   0.00000  Uiso   1.00
C181   C     0.13643   0.82648   0.75000   0.00000  Uiso   1.00
C182   C     0.15589   0.80298   0.75000   0.00000  Uiso   1.00
C183   C     0.19778   0.81916   0.75000   0.00000  Uiso   1.00
C184   C     0.22102   0.86319   0.75000   0.00000  Uiso   1.00
C185   C     0.20069   0.88776   0.75000   0.00000  Uiso   1.00
C186   C     0.15674   0.86872   0.75000   0.00000  Uiso   1.00
C187   C     0.13469   0.89158   0.75000   0.00000  Uiso   1.00
C188   C     0.21634   0.79302   0.75000   0.00000  Uiso   1.00
C189   C     0.19220   0.75020   0.75000   0.00000  Uiso   1.00
C190   C     0.20914   0.72519   0.75000   0.00000  Uiso   1.00
C191   C     0.25162   0.74159   0.75000   0.00000  Uiso   1.00
C192   C     0.27619   0.78420   0.75000   0.00000  Uiso   1.00
C193   C     0.25881   0.80887   0.75000   0.00000  Uiso   1.00
C194   C     0.15504   0.93448   0.75000   0.00000  Uiso   1.00
C195   C     0.13423   0.95584   0.75000   0.00000  Uiso   1.00
C196   C     0.09142   0.93558   0.75000   0.00000  Uiso   1.00
C197   C     0.07053   0.89279   0.75000   0.00000  Uiso   1.00
C198   C     0.09177   0.87173   0.75000   0.00000  Uiso   1.00
N199   N     0.07274   0.95913   0.75000   0.00000  Uiso   1.00
N200   N     0.26688   0.71499   0.75000   0.00000  Uiso   1.00
C201   C     0.03278   0.94673   0.75000   0.00000  Uiso   1.00
C202   C     0.01768   0.97348   0.75000   0.00000  Uiso   1.00
C203   C     0.30619   0.72451   0.75000   0.00000  Uiso   1.00
C204   C     0.31851   0.69563   0.75000   0.00000  Uiso   1.00
N205   N     0.26118   0.88408   0.75000   0.00000  Uiso   1.00
S206   S     0.27733   0.93781   0.75000   0.00000  Uiso   1.00
N207   N     0.22529   0.92757   0.75000   0.00000  Uiso   1.00
C208   C     0.04468   0.01781   0.75000   0.00000  Uiso   1.00
C209   C     0.28905   0.65174   0.75000   0.00000  Uiso   1.00
H210   H     0.10314   0.80941   0.75000   0.00000  Uiso   1.00
H211   H     0.13580   0.76995   0.75000   0.00000  Uiso   1.00
H212   H     0.15898   0.73551   0.75000   0.00000  Uiso   1.00
H213   H     0.18922   0.69210   0.75000   0.00000  Uiso   1.00
H214   H     0.30935   0.79836   0.75000   0.00000  Uiso   1.00
H215   H     0.27909   0.84192   0.75000   0.00000  Uiso   1.00
H216   H     0.18835   0.95175   0.75000   0.00000  Uiso   1.00
H217   H     0.15134   0.98917   0.75000   0.00000  Uiso   1.00
H218   H     0.03724   0.87567   0.75000   0.00000  Uiso   1.00
H219   H     0.07385   0.83847   0.75000   0.00000  Uiso   1.00
H220   H     0.01107   0.91381   0.75000   0.00000  Uiso   1.00
H221   H     0.32971   0.75688   0.75000   0.00000  Uiso   1.00
O222   O     0.08249   0.03329   0.75000   0.00000  Uiso   1.00
O223   O     0.25178   0.63886   0.75000   0.00000  Uiso   1.00
H224   H     0.09149   0.99077   0.75000   0.00000  Uiso   1.00
H225   H     0.24617   0.68369   0.75000   0.00000  Uiso   1.00
C226   C     0.17352   0.30995   0.75000   0.00000  Uiso   1.00
C227   C     0.19702   0.35291   0.75000   0.00000  Uiso   1.00
C228   C     0.18084   0.37862   0.75000   0.00000  Uiso   1.00
C229   C     0.13681   0.35783   0.75000   0.00000  Uiso   1.00
C230   C     0.11224   0.31293   0.75000   0.00000  Uiso   1.00
C231   C     0.13128   0.28802   0.75000   0.00000  Uiso   1.00
C232   C     0.10842   0.24311   0.75000   0.00000  Uiso   1.00
C233   C     0.20698   0.42332   0.75000   0.00000  Uiso   1.00
C234   C     0.24980   0.44200   0.75000   0.00000  Uiso   1.00
C235   C     0.27481   0.48395   0.75000   0.00000  Uiso   1.00
C236   C     0.25841   0.51003   0.75000   0.00000  Uiso   1.00
C237   C     0.21580   0.49199   0.75000   0.00000  Uiso   1.00
C238   C     0.19113   0.44994   0.75000   0.00000  Uiso   1.00
C239   C     0.06552   0.22056   0.75000   0.00000  Uiso   1.00
C240   C     0.04416   0.17839   0.75000   0.00000  Uiso   1.00
C241   C     0.06442   0.15584   0.75000   0.00000  Uiso   1.00
C242   C     0.10721   0.17774   0.75000   0.00000  Uiso   1.00
C243   C     0.12827   0.22004   0.75000   0.00000  Uiso   1.00
N244   N     0.04087   0.11361   0.75000   0.00000  Uiso   1.00
N245   N     0.28501   0.55189   0.75000   0.00000  Uiso   1.00
C246   C     0.05327   0.08605   0.75000   0.00000  Uiso   1.00
C247   C     0.02652   0.04420   0.75000   0.00000  Uiso   1.00
C248   C     0.27549   0.58168   0.75000   0.00000  Uiso   1.00
C249   C     0.30437   0.62288   0.75000   0.00000  Uiso   1.00
N250   N     0.11592   0.37710   0.75000   0.00000  Uiso   1.00
S251   S     0.06219   0.33952   0.75000   0.00000  Uiso   1.00
N252   N     0.07243   0.29772   0.75000   0.00000  Uiso   1.00
C253   C     0.98219   0.02687   0.75000   0.00000  Uiso   1.00
C254   C     0.34826   0.63731   0.75000   0.00000  Uiso   1.00
H255   H     0.19059   0.29373   0.75000   0.00000  Uiso   1.00
H256   H     0.23005   0.36585   0.75000   0.00000  Uiso   1.00
H257   H     0.26449   0.42347   0.75000   0.00000  Uiso   1.00
H258   H     0.30790   0.49712   0.75000   0.00000  Uiso   1.00
H259   H     0.20164   0.51099   0.75000   0.00000  Uiso   1.00
H260   H     0.15808   0.43717   0.75000   0.00000  Uiso   1.00
H261   H     0.04825   0.23660   0.75000   0.00000  Uiso   1.00
H262   H     0.01083   0.16217   0.75000   0.00000  Uiso   1.00
H263   H     0.12433   0.16157   0.75000   0.00000  Uiso   1.00
H264   H     0.16153   0.23538   0.75000   0.00000  Uiso   1.00
H265   H     0.08619   0.09726   0.75000   0.00000  Uiso   1.00
H266   H     0.24312   0.57283   0.75000   0.00000  Uiso   1.00
O267   O     0.96671   0.04920   0.75000   0.00000  Uiso   1.00
O268   O     0.36114   0.61292   0.75000   0.00000  Uiso   1.00
H269   H     0.00923   0.10072   0.75000   0.00000  Uiso   1.00
H270   H     0.31631   0.56248   0.75000   0.00000  Uiso   1.00
loop_
_geom_bond_atom_site_label_1
_geom_bond_atom_site_label_2
_geom_bond_distance
_geom_bond_site_symmetry_2
_ccdc_geom_bond_type
C1     C2      1.419   .     S
C1     C6      1.394   .     D
C1     H30     1.098   .     S
C2     C3      1.394   .     D
C2     H31     1.098   .     S
C3     C4      1.453   .     S
C3     C8      1.481   .     S
C4     C5      1.483   .     S
C4     N25     1.325   .     D
C5     C6      1.454   .     S
C5     N27     1.325   .     D
C6     C7      1.481   .     S
C7     C14     1.416   .     D
C7     C18     1.417   .     S
C8     C9      1.416   .     D
C8     C13     1.416   .     S
C9     C10     1.392   .     S
C9     H32     1.098   .     S
C10    C11     1.413   .     D
C10    H33     1.099   .     S
C11    C12     1.411   .     S
C11    N20     1.397   .     S
C12    C13     1.394   .     D
C12    H34     1.098   .     S
C13    H35     1.099   .     S
C14    C15     1.391   .     S
C14    H36     1.099   .     S
C15    C16     1.413   .     D
C15    H37     1.099   .     S
C16    C17     1.412   .     S
C16    N19     1.396   .     S
C17    C18     1.395   .     D
C17    H38     1.098   .     S
C18    H39     1.098   .     S
N19    C21     1.349   .     S
N19    H44     1.050   .     S
N20    C23     1.353   .     S
N20    H45     1.050   .     S
C21    C22     1.398   .     D
C21    H40     1.104   .     S
C22    C28     1.474   .     S
C22    C118    1.478   1_545 S
C23    C24     1.395   .     D
C23    H41     1.104   .     S
C24    C29     1.476   .     S
C24    C119    1.480   .     S
N25    S26     1.819   .     S
S26    N27     1.819   .     S
C28    O42     1.254   .     D
C28    C67     1.478   1_455 S
C29    O43     1.249   .     D
C29    C69     1.480   .     S
C46    C47     1.419   .     S
C46    C51     1.394   .     D
C46    H75     1.098   .     S
C47    C48     1.394   .     D
C47    H76     1.098   .     S
C48    C49     1.453   .     S
C48    C53     1.481   .     S
C49    C50     1.483   .     S
C49    N70     1.325   .     D
C50    C51     1.454   .     S
C50    N72     1.325   .     D
C51    C52     1.481   .     S
C52    C59     1.416   .     D
C52    C63     1.417   .     S
C53    C54     1.416   .     D
C53    C58     1.416   .     S
C54    C55     1.392   .     S
C54    H77     1.098   .     S
C55    C56     1.413   .     D
C55    H78     1.099   .     S
C56    C57     1.411   .     S
C56    N65     1.397   .     S
C57    C58     1.394   .     D
C57    H79     1.098   .     S
C58    H80     1.099   .     S
C59    C60     1.391   .     S
C59    H81     1.099   .     S
C60    C61     1.413   .     D
C60    H82     1.099   .     S
C61    C62     1.412   .     S
C61    N64     1.396   .     S
C62    C63     1.395   .     D
C62    H83     1.098   .     S
C63    H84     1.098   .     S
N64    C66     1.349   .     S
N64    H89     1.050   .     S
N65    C68     1.353   .     S
N65    H90     1.050   .     S
C66    C67     1.398   .     D
C66    H85     1.104   .     S
C67    C28     1.478   1_655 S
C67    C73     1.474   1_545 S
C68    C69     1.395   .     D
C68    H86     1.104   .     S
C69    C74     1.476   .     S
N70    S71     1.819   .     S
S71    N72     1.819   .     S
C73    O87     1.254   .     D
C73    C112    1.478   .     S
C73    C67     1.474   1_565 S
C74    O88     1.249   .     D
C74    C114    1.480   .     S
C91    C92     1.419   .     S
C91    C96     1.394   .     D
C91    H120    1.098   .     S
C92    C93     1.394   .     D
C92    H121    1.098   .     S
C93    C94     1.453   .     S
C93    C98     1.481   .     S
C94    C95     1.483   .     S
C94    N115    1.325   .     D
C95    C96     1.454   .     S
C95    N117    1.325   .     D
C96    C97     1.481   .     S
C97    C104    1.416   .     D
C97    C108    1.417   .     S
C98    C99     1.416   .     D
C98    C103    1.416   .     S
C99    C100    1.392   .     S
C99    H122    1.098   .     S
C100   C101    1.413   .     D
C100   H123    1.099   .     S
C101   C102    1.411   .     S
C101   N110    1.397   .     S
C102   C103    1.394   .     D
C102   H124    1.098   .     S
C103   H125    1.099   .     S
C104   C105    1.391   .     S
C104   H126    1.099   .     S
C105   C106    1.413   .     D
C105   H127    1.099   .     S
C106   C107    1.412   .     S
C106   N109    1.396   .     S
C107   C108    1.395   .     D
C107   H128    1.098   .     S
C108   H129    1.098   .     S
N109   C111    1.349   .     S
N109   H134    1.050   .     S
N110   C113    1.353   .     S
N110   H135    1.050   .     S
C111   C112    1.398   .     D
C111   H130    1.104   .     S
C112   C118    1.474   1_655 S
C113   C114    1.395   .     D
C113   H131    1.104   .     S
C114   C119    1.476   .     S
N115   S116    1.819   .     S
S116   N117    1.819   .     S
C118   O132    1.254   .     D
C118   C22     1.478   1_565 S
C118   C112    1.474   1_455 S
C119   O133    1.249   .     D
C136   C137    1.419   .     S
C136   C141    1.394   .     D
C136   H165    1.098   .     S
C137   C138    1.394   .     D
C137   H166    1.098   .     S
C138   C139    1.453   .     S
C138   C143    1.481   .     S
C139   C140    1.483   .     S
C139   N160    1.325   .     D
C140   C141    1.454   .     S
C140   N162    1.325   .     D
C141   C142    1.481   .     S
C142   C149    1.416   .     D
C142   C153    1.417   .     S
C143   C144    1.416   .     D
C143   C148    1.416   .     S
C144   C145    1.392   .     S
C144   H167    1.098   .     S
C145   C146    1.413   .     D
C145   H168    1.099   .     S
C146   C147    1.411   .     S
C146   N155    1.397   .     S
C147   C148    1.394   .     D
C147   H169    1.098   .     S
C148   H170    1.099   .     S
C149   C150    1.391   .     S
C149   H171    1.099   .     S
C150   C151    1.413   .     D
C150   H172    1.099   .     S
C151   C152    1.412   .     S
C151   N154    1.396   .     S
C152   C153    1.395   .     D
C152   H173    1.098   .     S
C153   H174    1.098   .     S
N154   C156    1.349   .     S
N154   H179    1.050   .     S
N155   C158    1.353   .     S
N155   H180    1.050   .     S
C156   C157    1.398   .     D
C156   H175    1.104   .     S
C157   C163    1.474   .     S
C157   C253    1.478   1_565 S
C158   C159    1.395   .     D
C158   H176    1.104   .     S
C159   C164    1.476   .     S
C159   C254    1.480   .     S
N160   S161    1.819   .     S
S161   N162    1.819   .     S
C163   O177    1.254   .     D
C163   C202    1.478   1_655 S
C164   O178    1.249   .     D
C164   C204    1.480   .     S
C181   C182    1.419   .     S
C181   C186    1.394   .     D
C181   H210    1.098   .     S
C182   C183    1.394   .     D
C182   H211    1.098   .     S
C183   C184    1.453   .     S
C183   C188    1.481   .     S
C184   C185    1.483   .     S
C184   N205    1.325   .     D
C185   C186    1.454   .     S
C185   N207    1.325   .     D
C186   C187    1.481   .     S
C187   C194    1.416   .     D
C187   C198    1.417   .     S
C188   C189    1.416   .     D
C188   C193    1.416   .     S
C189   C190    1.392   .     S
C189   H212    1.098   .     S
C190   C191    1.413   .     D
C190   H213    1.099   .     S
C191   C192    1.411   .     S
C191   N200    1.397   .     S
C192   C193    1.394   .     D
C192   H214    1.098   .     S
C193   H215    1.099   .     S
C194   C195    1.391   .     S
C194   H216    1.099   .     S
C195   C196    1.413   .     D
C195   H217    1.099   .     S
C196   C197    1.412   .     S
C196   N199    1.396   .     S
C197   C198    1.395   .     D
C197   H218    1.098   .     S
C198   H219    1.098   .     S
N199   C201    1.349   .     S
N199   H224    1.050   .     S
N200   C203    1.353   .     S
N200   H225    1.050   .     S
C201   C202    1.398   .     D
C201   H220    1.104   .     S
C202   C163    1.478   1_455 S
C202   C208    1.474   1_565 S
C203   C204    1.395   .     D
C203   H221    1.104   .     S
C204   C209    1.476   .     S
N205   S206    1.819   .     S
S206   N207    1.819   .     S
C208   O222    1.254   .     D
C208   C247    1.478   .     S
C208   C202    1.474   1_545 S
C209   O223    1.249   .     D
C209   C249    1.480   .     S
C226   C227    1.419   .     S
C226   C231    1.394   .     D
C226   H255    1.098   .     S
C227   C228    1.394   .     D
C227   H256    1.098   .     S
C228   C229    1.453   .     S
C228   C233    1.481   .     S
C229   C230    1.483   .     S
C229   N250    1.325   .     D
C230   C231    1.454   .     S
C230   N252    1.325   .     D
C231   C232    1.481   .     S
C232   C239    1.416   .     D
C232   C243    1.417   .     S
C233   C234    1.416   .     D
C233   C238    1.416   .     S
C234   C235    1.392   .     S
C234   H257    1.098   .     S
C235   C236    1.413   .     D
C235   H258    1.099   .     S
C236   C237    1.411   .     S
C236   N245    1.397   .     S
C237   C238    1.394   .     D
C237   H259    1.098   .     S
C238   H260    1.099   .     S
C239   C240    1.391   .     S
C239   H261    1.099   .     S
C240   C241    1.413   .     D
C240   H262    1.099   .     S
C241   C242    1.412   .     S
C241   N244    1.396   .     S
C242   C243    1.395   .     D
C242   H263    1.098   .     S
C243   H264    1.098   .     S
N244   C246    1.349   .     S
N244   H269    1.050   .     S
N245   C248    1.353   .     S
N245   H270    1.050   .     S
C246   C247    1.398   .     D
C246   H265    1.104   .     S
C247   C253    1.474   1_455 S
C248   C249    1.395   .     D
C248   H266    1.104   .     S
C249   C254    1.476   .     S
N250   S251    1.819   .     S
S251   N252    1.819   .     S
C253   O267    1.254   .     D
C253   C157    1.478   1_545 S
C253   C247    1.474   1_655 S
C254   O268    1.249   .     D
