data_121
_audit_creation_date              2023-09-08
_audit_creation_method            'Materials Studio'
_symmetry_space_group_name_H-M    'P1'
_symmetry_Int_Tables_number       1
_symmetry_cell_setting            triclinic
loop_
_symmetry_equiv_pos_as_xyz
  x,y,z
_cell_length_a                    45.8877
_cell_length_b                    45.8877
_cell_length_c                    3.9784
_cell_angle_alpha                 90.0000
_cell_angle_beta                  90.0000
_cell_angle_gamma                 120.0000
loop_
_atom_site_label
_atom_site_type_symbol
_atom_site_fract_x
_atom_site_fract_y
_atom_site_fract_z
_atom_site_U_iso_or_equiv
_atom_site_adp_type
_atom_site_occupancy
H1     H     0.57060   0.63330   0.22320   0.00000  Uiso   1.00
H2     H     0.36670   0.93730   0.22320   0.00000  Uiso   1.00
H3     H     0.06270   0.42940   0.22320   0.00000  Uiso   1.00
H4     H     0.42940   0.36670   0.22320   0.00000  Uiso   1.00
H5     H     0.63330   0.06270   0.22320   0.00000  Uiso   1.00
H6     H     0.93730   0.57060   0.22320   0.00000  Uiso   1.00
H7     H     0.42940   0.36670  -0.22320   0.00000  Uiso   1.00
H8     H     0.63330   0.06270  -0.22320   0.00000  Uiso   1.00
H9     H     0.93730   0.57060  -0.22320   0.00000  Uiso   1.00
H10    H     0.57060   0.63330  -0.22320   0.00000  Uiso   1.00
H11    H     0.36670   0.93730  -0.22320   0.00000  Uiso   1.00
H12    H     0.06270   0.42940  -0.22320   0.00000  Uiso   1.00
H13    H     0.58050   0.58450   0.22590   0.00000  Uiso   1.00
H14    H     0.41550   0.99600   0.22590   0.00000  Uiso   1.00
H15    H     0.00400   0.41950   0.22590   0.00000  Uiso   1.00
H16    H     0.41950   0.41550   0.22590   0.00000  Uiso   1.00
H17    H     0.58450   0.00400   0.22590   0.00000  Uiso   1.00
H18    H     0.99600   0.58050   0.22590   0.00000  Uiso   1.00
H19    H     0.41950   0.41550  -0.22590   0.00000  Uiso   1.00
H20    H     0.58450   0.00400  -0.22590   0.00000  Uiso   1.00
H21    H     0.99600   0.58050  -0.22590   0.00000  Uiso   1.00
H22    H     0.58050   0.58450  -0.22590   0.00000  Uiso   1.00
H23    H     0.41550   0.99600  -0.22590   0.00000  Uiso   1.00
H24    H     0.00400   0.41950  -0.22590   0.00000  Uiso   1.00
H25    H     0.42870   0.81670   0.00000   0.00000  Uiso   1.00
H26    H     0.18330   0.61200   0.00000   0.00000  Uiso   1.00
H27    H     0.38800   0.57130   0.00000   0.00000  Uiso   1.00
H28    H     0.57130   0.18330   0.00000   0.00000  Uiso   1.00
H29    H     0.81670   0.38800   0.00000   0.00000  Uiso   1.00
H30    H     0.61200   0.42870   0.00000   0.00000  Uiso   1.00
H31    H     0.41090   0.75820   0.00000   0.00000  Uiso   1.00
H32    H     0.24180   0.65270   0.00000   0.00000  Uiso   1.00
H33    H     0.34730   0.58910   0.00000   0.00000  Uiso   1.00
H34    H     0.58910   0.24180   0.00000   0.00000  Uiso   1.00
H35    H     0.75820   0.34730   0.00000   0.00000  Uiso   1.00
H36    H     0.65270   0.41090   0.00000   0.00000  Uiso   1.00
H37    H     0.32590   0.79430   0.00000   0.00000  Uiso   1.00
H38    H     0.20570   0.53160   0.00000   0.00000  Uiso   1.00
H39    H     0.46840   0.67410   0.00000   0.00000  Uiso   1.00
H40    H     0.67410   0.20570   0.00000   0.00000  Uiso   1.00
H41    H     0.79430   0.46840   0.00000   0.00000  Uiso   1.00
H42    H     0.53160   0.32590   0.00000   0.00000  Uiso   1.00
H43    H     0.30660   0.73550   0.00000   0.00000  Uiso   1.00
H44    H     0.26450   0.57110   0.00000   0.00000  Uiso   1.00
H45    H     0.42890   0.69340   0.00000   0.00000  Uiso   1.00
H46    H     0.69340   0.26450   0.00000   0.00000  Uiso   1.00
H47    H     0.73550   0.42890   0.00000   0.00000  Uiso   1.00
H48    H     0.57110   0.30660   0.00000   0.00000  Uiso   1.00
H49    H     0.37100   0.85390   0.00000   0.00000  Uiso   1.00
H50    H     0.14610   0.51710   0.00000   0.00000  Uiso   1.00
H51    H     0.48290   0.62900   0.00000   0.00000  Uiso   1.00
H52    H     0.62900   0.14610   0.00000   0.00000  Uiso   1.00
H53    H     0.85390   0.48290   0.00000   0.00000  Uiso   1.00
H54    H     0.51710   0.37100   0.00000   0.00000  Uiso   1.00
H55    H     0.41510   0.91080   0.00000   0.00000  Uiso   1.00
H56    H     0.08920   0.50430   0.00000   0.00000  Uiso   1.00
H57    H     0.49570   0.58490   0.00000   0.00000  Uiso   1.00
H58    H     0.58490   0.08920   0.00000   0.00000  Uiso   1.00
H59    H     0.91080   0.49570   0.00000   0.00000  Uiso   1.00
H60    H     0.50430   0.41510   0.00000   0.00000  Uiso   1.00
H61    H     0.39360   0.70780   0.00000   0.00000  Uiso   1.00
H62    H     0.29220   0.68580   0.00000   0.00000  Uiso   1.00
H63    H     0.31420   0.60640   0.00000   0.00000  Uiso   1.00
H64    H     0.60640   0.29220   0.00000   0.00000  Uiso   1.00
H65    H     0.70780   0.31420   0.00000   0.00000  Uiso   1.00
H66    H     0.68580   0.39360   0.00000   0.00000  Uiso   1.00
H67    H     0.56190   0.53190   0.00000   0.00000  Uiso   1.00
H68    H     0.46810   0.03000   0.00000   0.00000  Uiso   1.00
H69    H     0.97000   0.43810   0.00000   0.00000  Uiso   1.00
H70    H     0.43810   0.46810   0.00000   0.00000  Uiso   1.00
H71    H     0.53190   0.97000   0.00000   0.00000  Uiso   1.00
H72    H     0.03000   0.56190   0.00000   0.00000  Uiso   1.00
H73    H     0.60880   0.64280   0.00000   0.00000  Uiso   1.00
H74    H     0.35720   0.96600   0.00000   0.00000  Uiso   1.00
H75    H     0.03400   0.39120   0.00000   0.00000  Uiso   1.00
H76    H     0.39120   0.35720   0.00000   0.00000  Uiso   1.00
H77    H     0.64280   0.03400   0.00000   0.00000  Uiso   1.00
H78    H     0.96600   0.60880   0.00000   0.00000  Uiso   1.00
C79    C     0.46530   0.48200   0.00000   0.00000  Uiso   1.00
C80    C     0.51800   0.98330   0.00000   0.00000  Uiso   1.00
C81    C     0.01670   0.53470   0.00000   0.00000  Uiso   1.00
C82    C     0.53470   0.51800   0.00000   0.00000  Uiso   1.00
C83    C     0.48200   0.01670   0.00000   0.00000  Uiso   1.00
C84    C     0.98330   0.46530   0.00000   0.00000  Uiso   1.00
C85    C     0.48150   0.51760   0.00000   0.00000  Uiso   1.00
C86    C     0.48240   0.96390   0.00000   0.00000  Uiso   1.00
C87    C     0.03610   0.51850   0.00000   0.00000  Uiso   1.00
C88    C     0.51850   0.48240   0.00000   0.00000  Uiso   1.00
C89    C     0.51760   0.03610   0.00000   0.00000  Uiso   1.00
C90    C     0.96390   0.48150   0.00000   0.00000  Uiso   1.00
C91    C     0.45920   0.53320   0.00000   0.00000  Uiso   1.00
C92    C     0.46680   0.92600   0.00000   0.00000  Uiso   1.00
C93    C     0.07400   0.54080   0.00000   0.00000  Uiso   1.00
C94    C     0.54080   0.46680   0.00000   0.00000  Uiso   1.00
C95    C     0.53320   0.07400   0.00000   0.00000  Uiso   1.00
C96    C     0.92600   0.45920   0.00000   0.00000  Uiso   1.00
C97    C     0.51710   0.53580   0.00000   0.00000  Uiso   1.00
C98    C     0.46420   0.98130   0.00000   0.00000  Uiso   1.00
C99    C     0.01870   0.48290   0.00000   0.00000  Uiso   1.00
C100   C     0.48290   0.46420   0.00000   0.00000  Uiso   1.00
C101   C     0.53580   0.01870   0.00000   0.00000  Uiso   1.00
C102   C     0.98130   0.51710   0.00000   0.00000  Uiso   1.00
C103   C     0.45640   0.61030   0.00000   0.00000  Uiso   1.00
C104   C     0.38970   0.84610   0.00000   0.00000  Uiso   1.00
C105   C     0.15390   0.54360   0.00000   0.00000  Uiso   1.00
C106   C     0.54360   0.38970   0.00000   0.00000  Uiso   1.00
C107   C     0.61030   0.15390   0.00000   0.00000  Uiso   1.00
C108   C     0.84610   0.45640   0.00000   0.00000  Uiso   1.00
C109   C     0.36760   0.69000   0.00000   0.00000  Uiso   1.00
C110   C     0.31000   0.67760   0.00000   0.00000  Uiso   1.00
C111   C     0.32240   0.63240   0.00000   0.00000  Uiso   1.00
C112   C     0.63240   0.31000   0.00000   0.00000  Uiso   1.00
C113   C     0.69000   0.32240   0.00000   0.00000  Uiso   1.00
C114   C     0.67760   0.36760   0.00000   0.00000  Uiso   1.00
C115   C     0.34450   0.70190   0.00000   0.00000  Uiso   1.00
C116   C     0.29810   0.64260   0.00000   0.00000  Uiso   1.00
C117   C     0.35740   0.65550   0.00000   0.00000  Uiso   1.00
C118   C     0.65550   0.29810   0.00000   0.00000  Uiso   1.00
C119   C     0.70190   0.35740   0.00000   0.00000  Uiso   1.00
C120   C     0.64260   0.34450   0.00000   0.00000  Uiso   1.00
C121   C     0.80990   0.43120   0.00000   0.00000  Uiso   1.00
C122   C     0.56880   0.37870   0.00000   0.00000  Uiso   1.00
C123   C     0.62130   0.19010   0.00000   0.00000  Uiso   1.00
C124   C     0.19010   0.56880   0.00000   0.00000  Uiso   1.00
C125   C     0.43120   0.62130   0.00000   0.00000  Uiso   1.00
C126   C     0.37870   0.80990   0.00000   0.00000  Uiso   1.00
C127   C     0.73950   0.38310   0.00000   0.00000  Uiso   1.00
C128   C     0.61690   0.35640   0.00000   0.00000  Uiso   1.00
C129   C     0.64360   0.26050   0.00000   0.00000  Uiso   1.00
C130   C     0.26050   0.61690   0.00000   0.00000  Uiso   1.00
C131   C     0.38310   0.64360   0.00000   0.00000  Uiso   1.00
C132   C     0.35640   0.73950   0.00000   0.00000  Uiso   1.00
C133   C     0.79870   0.39670   0.00000   0.00000  Uiso   1.00
C134   C     0.60330   0.40200   0.00000   0.00000  Uiso   1.00
C135   C     0.59800   0.20130   0.00000   0.00000  Uiso   1.00
C136   C     0.20130   0.60330   0.00000   0.00000  Uiso   1.00
C137   C     0.39670   0.59800   0.00000   0.00000  Uiso   1.00
C138   C     0.40200   0.79870   0.00000   0.00000  Uiso   1.00
C139   C     0.78620   0.44170   0.00000   0.00000  Uiso   1.00
C140   C     0.55830   0.34450   0.00000   0.00000  Uiso   1.00
C141   C     0.65550   0.21380   0.00000   0.00000  Uiso   1.00
C142   C     0.21380   0.55830   0.00000   0.00000  Uiso   1.00
C143   C     0.44170   0.65550   0.00000   0.00000  Uiso   1.00
C144   C     0.34450   0.78620   0.00000   0.00000  Uiso   1.00
C145   C     0.76430   0.37310   0.00000   0.00000  Uiso   1.00
C146   C     0.62690   0.39120   0.00000   0.00000  Uiso   1.00
C147   C     0.60880   0.23570   0.00000   0.00000  Uiso   1.00
C148   C     0.23570   0.62690   0.00000   0.00000  Uiso   1.00
C149   C     0.37310   0.60880   0.00000   0.00000  Uiso   1.00
C150   C     0.39120   0.76430   0.00000   0.00000  Uiso   1.00
C151   C     0.75170   0.41830   0.00000   0.00000  Uiso   1.00
C152   C     0.58170   0.33340   0.00000   0.00000  Uiso   1.00
C153   C     0.66660   0.24830   0.00000   0.00000  Uiso   1.00
C154   C     0.24830   0.58170   0.00000   0.00000  Uiso   1.00
C155   C     0.41830   0.66660   0.00000   0.00000  Uiso   1.00
C156   C     0.33340   0.75170   0.00000   0.00000  Uiso   1.00
C157   C     0.57010   0.59020   0.00000   0.00000  Uiso   1.00
C158   C     0.40980   0.97990   0.00000   0.00000  Uiso   1.00
C159   C     0.02010   0.42990   0.00000   0.00000  Uiso   1.00
C160   C     0.42990   0.40980   0.00000   0.00000  Uiso   1.00
C161   C     0.59020   0.02010   0.00000   0.00000  Uiso   1.00
C162   C     0.97990   0.57010   0.00000   0.00000  Uiso   1.00
C163   C     0.58090   0.62720   0.00000   0.00000  Uiso   1.00
C164   C     0.37280   0.95370   0.00000   0.00000  Uiso   1.00
C165   C     0.04630   0.41910   0.00000   0.00000  Uiso   1.00
C166   C     0.41910   0.37280   0.00000   0.00000  Uiso   1.00
C167   C     0.62720   0.04630   0.00000   0.00000  Uiso   1.00
C168   C     0.95370   0.58090   0.00000   0.00000  Uiso   1.00
O169   O     0.42880   0.51410   0.00000   0.00000  Uiso   1.00
O170   O     0.48590   0.91470   0.00000   0.00000  Uiso   1.00
O171   O     0.08530   0.57120   0.00000   0.00000  Uiso   1.00
O172   O     0.57120   0.48590   0.00000   0.00000  Uiso   1.00
O173   O     0.51410   0.08530   0.00000   0.00000  Uiso   1.00
O174   O     0.91470   0.42880   0.00000   0.00000  Uiso   1.00
O175   O     0.53420   0.57120   0.00000   0.00000  Uiso   1.00
O176   O     0.42880   0.96300   0.00000   0.00000  Uiso   1.00
O177   O     0.03700   0.46580   0.00000   0.00000  Uiso   1.00
O178   O     0.46580   0.42880   0.00000   0.00000  Uiso   1.00
O179   O     0.57120   0.03700   0.00000   0.00000  Uiso   1.00
O180   O     0.96300   0.53420   0.00000   0.00000  Uiso   1.00
N181   N     0.47040   0.56710   0.00000   0.00000  Uiso   1.00
N182   N     0.43290   0.90330   0.00000   0.00000  Uiso   1.00
N183   N     0.09670   0.52960   0.00000   0.00000  Uiso   1.00
N184   N     0.52960   0.43290   0.00000   0.00000  Uiso   1.00
N185   N     0.56710   0.09670   0.00000   0.00000  Uiso   1.00
N186   N     0.90330   0.47040   0.00000   0.00000  Uiso   1.00
N187   N     0.44710   0.57860   0.00000   0.00000  Uiso   1.00
N188   N     0.42140   0.86850   0.00000   0.00000  Uiso   1.00
N189   N     0.13150   0.55290   0.00000   0.00000  Uiso   1.00
N190   N     0.55290   0.42140   0.00000   0.00000  Uiso   1.00
N191   N     0.57860   0.13150   0.00000   0.00000  Uiso   1.00
N192   N     0.86850   0.44710   0.00000   0.00000  Uiso   1.00
loop_
_geom_bond_atom_site_label_1
_geom_bond_atom_site_label_2
_geom_bond_distance
_geom_bond_site_symmetry_2
_ccdc_geom_bond_type
H1     C163    1.106   .     S
H2     C164    1.106   .     S
H3     C165    1.106   .     S
H4     C166    1.106   .     S
H5     C167    1.106   .     S
H6     C168    1.106   .     S
H7     C166    1.106   .     S
H8     C167    1.106   .     S
H9     C168    1.106   .     S
H10    C163    1.106   .     S
H11    C164    1.106   .     S
H12    C165    1.106   .     S
H13    C157    1.108   .     S
H14    C158    1.108   .     S
H15    C159    1.108   .     S
H16    C160    1.108   .     S
H17    C161    1.108   .     S
H18    C162    1.108   .     S
H19    C160    1.108   .     S
H20    C161    1.108   .     S
H21    C162    1.108   .     S
H22    C157    1.108   .     S
H23    C158    1.108   .     S
H24    C159    1.108   .     S
H25    C138    1.082   .     S
H26    C136    1.082   .     S
H27    C137    1.082   .     S
H28    C135    1.082   .     S
H29    C133    1.082   .     S
H30    C134    1.082   .     S
H31    C150    1.072   .     S
H32    C148    1.072   .     S
H33    C149    1.072   .     S
H34    C147    1.072   .     S
H35    C145    1.072   .     S
H36    C146    1.072   .     S
H37    C144    1.088   .     S
H38    C142    1.088   .     S
H39    C143    1.088   .     S
H40    C141    1.088   .     S
H41    C139    1.088   .     S
H42    C140    1.088   .     S
H43    C156    1.073   .     S
H44    C154    1.073   .     S
H45    C155    1.073   .     S
H46    C153    1.073   .     S
H47    C151    1.073   .     S
H48    C152    1.073   .     S
H49    C104    1.082   .     S
H50    C105    1.082   .     S
H51    C103    1.082   .     S
H52    C107    1.082   .     S
H53    C108    1.082   .     S
H54    C106    1.082   .     S
H55    N182    1.033   .     S
H56    N183    1.033   .     S
H57    N181    1.033   .     S
H58    N185    1.033   .     S
H59    N186    1.033   .     S
H60    N184    1.033   .     S
H61    C109    1.056   .     S
H62    C110    1.056   .     S
H63    C111    1.056   .     S
H64    C112    1.056   .     S
H65    C113    1.056   .     S
H66    C114    1.056   .     S
H67    C82     1.081   .     S
H68    C83     1.081   .     S
H69    C84     1.081   .     S
H70    C79     1.081   .     S
H71    C80     1.081   .     S
H72    C81     1.081   .     S
H73    C163    1.111   .     S
H74    C164    1.111   .     S
H75    C165    1.111   .     S
H76    C166    1.111   .     S
H77    C167    1.111   .     S
H78    C168    1.111   .     S
C79    C85     1.417   .     D
C79    C100    1.407   .     S
C80    C86     1.417   .     D
C80    C101    1.407   1_565 S
C81    C87     1.417   .     D
C81    C102    1.407   1_455 S
C82    C88     1.417   .     S
C82    C97     1.407   .     D
C83    C89     1.417   .     S
C83    C98     1.407   1_545 D
C84    C90     1.417   .     S
C84    C99     1.407   1_655 D
C85    C91     1.514   .     S
C85    C97     1.415   .     S
C86    C92     1.514   .     S
C86    C98     1.415   .     S
C87    C93     1.514   .     S
C87    C99     1.415   .     S
C88    C94     1.514   .     S
C88    C100    1.415   .     D
C89    C95     1.514   .     S
C89    C101    1.415   .     D
C90    C96     1.514   .     S
C90    C102    1.415   .     D
C91    O169    1.221   .     D
C91    N181    1.373   .     S
C92    O170    1.221   .     D
C92    N182    1.373   .     S
C93    O171    1.221   .     D
C93    N183    1.373   .     S
C94    O172    1.221   .     D
C94    N184    1.373   .     S
C95    O173    1.221   .     D
C95    N185    1.373   .     S
C96    O174    1.221   .     D
C96    N186    1.373   .     S
C97    O175    1.407   .     S
C98    C83     1.407   1_565 D
C98    O176    1.407   .     S
C99    C84     1.407   1_455 D
C99    O177    1.407   .     S
C100   O178    1.407   .     S
C101   C80     1.407   1_545 S
C101   O179    1.407   .     S
C102   C81     1.407   1_655 S
C102   O180    1.407   .     S
C103   C125    1.475   .     S
C103   N187    1.295   .     D
C104   C126    1.475   .     S
C104   N188    1.295   .     D
C105   C124    1.475   .     S
C105   N189    1.295   .     D
C106   C122    1.475   .     S
C106   N190    1.295   .     D
C107   C123    1.475   .     S
C107   N191    1.295   .     D
C108   C121    1.475   .     S
C108   N192    1.295   .     D
C109   C115    1.414   .     S
C109   C117    1.409   .     D
C110   C115    1.409   .     D
C110   C116    1.414   .     S
C111   C116    1.409   .     D
C111   C117    1.414   .     S
C112   C118    1.414   .     S
C112   C120    1.409   .     D
C113   C118    1.409   .     D
C113   C119    1.414   .     S
C114   C119    1.409   .     D
C114   C120    1.414   .     S
C115   C132    1.527   .     S
C116   C130    1.527   .     S
C117   C131    1.527   .     S
C118   C129    1.527   .     S
C119   C127    1.527   .     S
C120   C128    1.527   .     S
C121   C133    1.399   .     D
C121   C139    1.392   .     S
C122   C134    1.399   .     D
C122   C140    1.392   .     S
C123   C135    1.399   .     D
C123   C141    1.392   .     S
C124   C136    1.399   .     D
C124   C142    1.392   .     S
C125   C137    1.399   .     D
C125   C143    1.392   .     S
C126   C138    1.399   .     D
C126   C144    1.392   .     S
C127   C145    1.424   .     D
C127   C151    1.421   .     S
C128   C146    1.424   .     D
C128   C152    1.421   .     S
C129   C147    1.424   .     D
C129   C153    1.421   .     S
C130   C148    1.424   .     D
C130   C154    1.421   .     S
C131   C149    1.424   .     D
C131   C155    1.421   .     S
C132   C150    1.424   .     D
C132   C156    1.421   .     S
C133   C145    1.398   .     S
C134   C146    1.398   .     S
C135   C147    1.398   .     S
C136   C148    1.398   .     S
C137   C149    1.398   .     S
C138   C150    1.398   .     S
C139   C151    1.400   .     D
C140   C152    1.400   .     D
C141   C153    1.400   .     D
C142   C154    1.400   .     D
C143   C155    1.400   .     D
C144   C156    1.400   .     D
C157   C163    1.512   .     S
C157   O175    1.427   .     S
C158   C164    1.512   .     S
C158   O176    1.427   .     S
C159   C165    1.512   .     S
C159   O177    1.427   .     S
C160   C166    1.512   .     S
C160   O178    1.427   .     S
C161   C167    1.512   .     S
C161   O179    1.427   .     S
C162   C168    1.512   .     S
C162   O180    1.427   .     S
N181   N187    1.409   .     S
N182   N188    1.409   .     S
N183   N189    1.409   .     S
N184   N190    1.409   .     S
N185   N191    1.409   .     S
N186   N192    1.409   .     S
