data_1210
_audit_creation_date              2023-09-08
_audit_creation_method            'Materials Studio'
_symmetry_space_group_name_H-M    'P1'
_symmetry_Int_Tables_number       1
_symmetry_cell_setting            triclinic
loop_
_symmetry_equiv_pos_as_xyz
  x,y,z
_cell_length_a                    18.1590
_cell_length_b                    18.1590
_cell_length_c                    3.4970
_cell_angle_alpha                 90.0000
_cell_angle_beta                  90.0000
_cell_angle_gamma                 120.0000
loop_
_atom_site_label
_atom_site_type_symbol
_atom_site_fract_x
_atom_site_fract_y
_atom_site_fract_z
_atom_site_U_iso_or_equiv
_atom_site_adp_type
_atom_site_occupancy
H1     H     0.13431   0.66018   0.49265   0.00000  Uiso   1.00
H2     H     0.33982   0.47413   0.49265   0.00000  Uiso   1.00
H3     H     0.52587   0.86569   0.49265   0.00000  Uiso   1.00
H4     H     0.13431   0.66018   0.50735   0.00000  Uiso   1.00
H5     H     0.33982   0.47413   0.50735   0.00000  Uiso   1.00
H6     H     0.52587   0.86569   0.50735   0.00000  Uiso   1.00
C7     C     0.15464   0.56364   0.50000   0.00000  Uiso   1.00
N8     N     0.10738   0.59749   0.50000   0.00000  Uiso   1.00
C9     C     0.84309   0.43862   0.50000   0.00000  Uiso   1.00
C10    C     0.89765   0.40528   0.50000   0.00000  Uiso   1.00
H11    H     0.87439   0.34534   0.50000   0.00000  Uiso   1.00
C12    C     0.98333   0.45691   0.50000   0.00000  Uiso   1.00
H13    H     0.01947   0.43286   0.50000   0.00000  Uiso   1.00
C14    C     0.01824   0.54298   0.50000   0.00000  Uiso   1.00
C15    C     0.96426   0.57862   0.50000   0.00000  Uiso   1.00
H16    H     0.98782   0.63874   0.50000   0.00000  Uiso   1.00
C17    C     0.87742   0.52527   0.50000   0.00000  Uiso   1.00
H18    H     0.84080   0.54868   0.50000   0.00000  Uiso   1.00
C19    C     0.43636   0.59100   0.50000   0.00000  Uiso   1.00
N20    N     0.40251   0.50989   0.50000   0.00000  Uiso   1.00
C21    C     0.56138   0.40447   0.50000   0.00000  Uiso   1.00
C22    C     0.59472   0.49237   0.50000   0.00000  Uiso   1.00
H23    H     0.65466   0.52905   0.50000   0.00000  Uiso   1.00
C24    C     0.54309   0.52642   0.50000   0.00000  Uiso   1.00
H25    H     0.56714   0.58661   0.50000   0.00000  Uiso   1.00
C26    C     0.45702   0.47526   0.50000   0.00000  Uiso   1.00
C27    C     0.42138   0.38564   0.50000   0.00000  Uiso   1.00
H28    H     0.36126   0.34908   0.50000   0.00000  Uiso   1.00
C29    C     0.47473   0.35215   0.50000   0.00000  Uiso   1.00
H30    H     0.45132   0.29212   0.50000   0.00000  Uiso   1.00
C31    C     0.40900   0.84536   0.50000   0.00000  Uiso   1.00
N32    N     0.49011   0.89262   0.50000   0.00000  Uiso   1.00
C33    C     0.59553   0.15691   0.50000   0.00000  Uiso   1.00
C34    C     0.50763   0.10235   0.50000   0.00000  Uiso   1.00
H35    H     0.47095   0.12561   0.50000   0.00000  Uiso   1.00
C36    C     0.47358   0.01667   0.50000   0.00000  Uiso   1.00
H37    H     0.41339   0.98053   0.50000   0.00000  Uiso   1.00
C38    C     0.52474   0.98176   0.50000   0.00000  Uiso   1.00
C39    C     0.61436   0.03574   0.50000   0.00000  Uiso   1.00
H40    H     0.65092   0.01218   0.50000   0.00000  Uiso   1.00
C41    C     0.64785   0.12258   0.50000   0.00000  Uiso   1.00
H42    H     0.70788   0.15920   0.50000   0.00000  Uiso   1.00
C43    C     0.36741   0.75401   0.50000   0.00000  Uiso   1.00
C44    C     0.28036   0.70135   0.50000   0.00000  Uiso   1.00
O45    O     0.23669   0.72988   0.50000   0.00000  Uiso   1.00
C46    C     0.61655   0.36657   0.50000   0.00000  Uiso   1.00
N47    N     0.70015   0.41959   0.50000   0.00000  Uiso   1.00
C48    C     0.24599   0.61340   0.50000   0.00000  Uiso   1.00
C49    C     0.29865   0.57901   0.50000   0.00000  Uiso   1.00
O50    O     0.27012   0.50681   0.50000   0.00000  Uiso   1.00
C51    C     0.63343   0.24998   0.50000   0.00000  Uiso   1.00
N52    N     0.58041   0.28056   0.50000   0.00000  Uiso   1.00
C53    C     0.38660   0.63259   0.50000   0.00000  Uiso   1.00
C54    C     0.42099   0.71964   0.50000   0.00000  Uiso   1.00
O55    O     0.49319   0.76331   0.50000   0.00000  Uiso   1.00
C56    C     0.75002   0.38345   0.50000   0.00000  Uiso   1.00
N57    N     0.71944   0.29985   0.50000   0.00000  Uiso   1.00
loop_
_geom_bond_atom_site_label_1
_geom_bond_atom_site_label_2
_geom_bond_distance
_geom_bond_site_symmetry_2
_ccdc_geom_bond_type
H1     N8      0.989   .     S
H2     N20     0.989   .     S
H3     N32     0.989   .     S
H4     N8      0.989   .     S
H5     N20     0.989   .     S
H6     N32     0.989   .     S
C7     N8      1.281   .     S
C7     C48     1.438   .     D
N8     C14     1.413   .     S
C9     C10     1.396   .     D
C9     C17     1.372   .     S
C9     C56     1.472   .     S
C10    H11     0.950   .     S
C10    C12     1.357   .     S
C12    H13     0.953   1_655 S
C12    C14     1.362   1_655 D
H13    C12     0.953   1_455 S
C14    C12     1.362   1_455 D
C14    C15     1.419   1_455 S
C15    H16     0.953   .     S
C15    C17     1.378   .     D
C15    C14     1.419   1_655 S
C17    H18     0.952   .     S
C19    N20     1.281   .     S
C19    C53     1.438   .     D
N20    C26     1.413   .     S
C21    C22     1.396   .     D
C21    C29     1.372   .     S
C21    C46     1.472   .     S
C22    H23     0.950   .     S
C22    C24     1.357   .     S
C24    H25     0.953   .     S
C24    C26     1.362   .     D
C26    C27     1.419   .     S
C27    H28     0.953   .     S
C27    C29     1.378   .     D
C29    H30     0.952   .     S
C31    N32     1.281   .     S
C31    C43     1.438   .     D
N32    C38     1.413   .     S
C33    C34     1.396   .     D
C33    C41     1.372   .     S
C33    C51     1.472   .     S
C34    H35     0.950   .     S
C34    C36     1.357   .     S
C36    H37     0.953   1_545 S
C36    C38     1.362   1_545 D
H37    C36     0.953   1_565 S
C38    C36     1.362   1_565 D
C38    C39     1.419   1_565 S
C39    H40     0.953   .     S
C39    C41     1.378   .     D
C39    C38     1.419   1_545 S
C41    H42     0.952   .     S
C43    C44     1.379   .     S
C43    C54     1.394   .     S
C44    O45     1.144   .     D
C44    C48     1.394   .     S
C46    N47     1.330   .     D
C46    N52     1.358   .     S
N47    C56     1.358   .     S
C48    C49     1.379   .     S
C49    O50     1.144   .     D
C49    C53     1.394   .     S
C51    N52     1.330   .     D
C51    N57     1.358   .     S
C53    C54     1.379   .     S
C54    O55     1.144   .     D
C56    N57     1.330   .     D
