data_1211
_audit_creation_date              2023-09-08
_audit_creation_method            'Materials Studio'
_symmetry_space_group_name_H-M    'P1'
_symmetry_Int_Tables_number       1
_symmetry_cell_setting            triclinic
loop_
_symmetry_equiv_pos_as_xyz
  x,y,z
_cell_length_a                    18.3892
_cell_length_b                    18.3892
_cell_length_c                    9.1919
_cell_angle_alpha                 90.0000
_cell_angle_beta                  90.0000
_cell_angle_gamma                 120.0000
loop_
_atom_site_label
_atom_site_type_symbol
_atom_site_fract_x
_atom_site_fract_y
_atom_site_fract_z
_atom_site_U_iso_or_equiv
_atom_site_adp_type
_atom_site_occupancy
C1     C     0.42072   0.70086   0.31068   0.00000  Uiso   1.00
C2     C     0.38620   0.75355   0.31023   0.00000  Uiso   1.00
C3     C     0.51200   0.73695   0.30146   0.00000  Uiso   1.00
C4     C     0.54570   0.69631   0.22415   0.00000  Uiso   1.00
C5     C     0.63216   0.73276   0.20607   0.00000  Uiso   1.00
C6     C     0.68664   0.81253   0.26488   0.00000  Uiso   1.00
C7     C     0.65257   0.85164   0.35090   0.00000  Uiso   1.00
C8     C     0.56574   0.81360   0.36571   0.00000  Uiso   1.00
N9     N     0.77486   0.84969   0.23984   0.00000  Uiso   1.00
C10    C     0.82258   0.92820   0.21005   0.00000  Uiso   1.00
C11    C     0.91274   0.96393   0.19300   0.00000  Uiso   1.00
C12    C     0.94903   0.91282   0.19358   0.00000  Uiso   1.00
O13    O     0.82789   0.93610   0.81291   0.00000  Uiso   1.00
H14    H     0.42914   0.82462   0.30949   0.00000  Uiso   1.00
H15    H     0.50256   0.63205   0.17415   0.00000  Uiso   1.00
H16    H     0.65895   0.69793   0.14346   0.00000  Uiso   1.00
H17    H     0.69596   0.91373   0.40746   0.00000  Uiso   1.00
H18    H     0.53727   0.84558   0.43203   0.00000  Uiso   1.00
H19    H     0.79422   0.97055   0.19674   0.00000  Uiso   1.00
C20    C     0.29914   0.71986   0.31068   0.00000  Uiso   1.00
C21    C     0.24645   0.63265   0.31023   0.00000  Uiso   1.00
C22    C     0.26305   0.77505   0.30146   0.00000  Uiso   1.00
C23    C     0.30369   0.84939   0.22415   0.00000  Uiso   1.00
C24    C     0.26724   0.89940   0.20607   0.00000  Uiso   1.00
C25    C     0.18747   0.87411   0.26488   0.00000  Uiso   1.00
C26    C     0.14836   0.80093   0.35090   0.00000  Uiso   1.00
C27    C     0.18640   0.75214   0.36571   0.00000  Uiso   1.00
N28    N     0.15031   0.92517   0.23984   0.00000  Uiso   1.00
C29    C     0.07180   0.89438   0.21005   0.00000  Uiso   1.00
C30    C     0.03607   0.94881   0.19300   0.00000  Uiso   1.00
C31    C     0.08718   0.03621   0.19358   0.00000  Uiso   1.00
O32    O     0.06390   0.89179   0.81291   0.00000  Uiso   1.00
H33    H     0.17538   0.60452   0.30949   0.00000  Uiso   1.00
H34    H     0.36795   0.87051   0.17415   0.00000  Uiso   1.00
H35    H     0.30207   0.96102   0.14346   0.00000  Uiso   1.00
H36    H     0.08627   0.78222   0.40746   0.00000  Uiso   1.00
H37    H     0.15442   0.69168   0.43203   0.00000  Uiso   1.00
H38    H     0.02945   0.82367   0.19674   0.00000  Uiso   1.00
C39    C     0.28014   0.57928   0.31068   0.00000  Uiso   1.00
C40    C     0.36735   0.61380   0.31023   0.00000  Uiso   1.00
C41    C     0.22495   0.48800   0.30146   0.00000  Uiso   1.00
C42    C     0.15061   0.45430   0.22415   0.00000  Uiso   1.00
C43    C     0.10060   0.36784   0.20607   0.00000  Uiso   1.00
C44    C     0.12589   0.31336   0.26488   0.00000  Uiso   1.00
C45    C     0.19907   0.34743   0.35090   0.00000  Uiso   1.00
C46    C     0.24786   0.43426   0.36571   0.00000  Uiso   1.00
N47    N     0.07483   0.22514   0.23984   0.00000  Uiso   1.00
C48    C     0.10562   0.17742   0.21005   0.00000  Uiso   1.00
C49    C     0.05119   0.08726   0.19300   0.00000  Uiso   1.00
C50    C     0.96379   0.05097   0.19358   0.00000  Uiso   1.00
O51    O     0.10821   0.17211   0.81291   0.00000  Uiso   1.00
H52    H     0.39548   0.57086   0.30949   0.00000  Uiso   1.00
H53    H     0.12949   0.49744   0.17415   0.00000  Uiso   1.00
H54    H     0.03898   0.34105   0.14346   0.00000  Uiso   1.00
H55    H     0.21778   0.30404   0.40746   0.00000  Uiso   1.00
H56    H     0.30832   0.46273   0.43203   0.00000  Uiso   1.00
H57    H     0.17633   0.20578   0.19674   0.00000  Uiso   1.00
C58    C     0.57928   0.29914   0.68932   0.00000  Uiso   1.00
C59    C     0.61380   0.24645   0.68977   0.00000  Uiso   1.00
C60    C     0.48800   0.26305   0.69854   0.00000  Uiso   1.00
C61    C     0.45430   0.30369   0.77585   0.00000  Uiso   1.00
C62    C     0.36784   0.26724   0.79393   0.00000  Uiso   1.00
C63    C     0.31336   0.18747   0.73512   0.00000  Uiso   1.00
C64    C     0.34743   0.14836   0.64910   0.00000  Uiso   1.00
C65    C     0.43426   0.18640   0.63429   0.00000  Uiso   1.00
N66    N     0.22514   0.15031   0.76016   0.00000  Uiso   1.00
C67    C     0.17742   0.07180   0.78995   0.00000  Uiso   1.00
C68    C     0.08726   0.03607   0.80700   0.00000  Uiso   1.00
C69    C     0.05097   0.08718   0.80642   0.00000  Uiso   1.00
O70    O     0.17211   0.06390   0.18709   0.00000  Uiso   1.00
H71    H     0.57086   0.17538   0.69051   0.00000  Uiso   1.00
H72    H     0.49744   0.36795   0.82585   0.00000  Uiso   1.00
H73    H     0.34105   0.30207   0.85654   0.00000  Uiso   1.00
H74    H     0.30404   0.08627   0.59254   0.00000  Uiso   1.00
H75    H     0.46273   0.15442   0.56797   0.00000  Uiso   1.00
H76    H     0.20578   0.02945   0.80326   0.00000  Uiso   1.00
C77    C     0.70086   0.28014   0.68932   0.00000  Uiso   1.00
C78    C     0.75355   0.36735   0.68977   0.00000  Uiso   1.00
C79    C     0.73695   0.22495   0.69854   0.00000  Uiso   1.00
C80    C     0.69631   0.15061   0.77585   0.00000  Uiso   1.00
C81    C     0.73276   0.10060   0.79393   0.00000  Uiso   1.00
C82    C     0.81253   0.12589   0.73512   0.00000  Uiso   1.00
C83    C     0.85164   0.19907   0.64910   0.00000  Uiso   1.00
C84    C     0.81360   0.24786   0.63429   0.00000  Uiso   1.00
N85    N     0.84969   0.07483   0.76016   0.00000  Uiso   1.00
C86    C     0.92820   0.10562   0.78995   0.00000  Uiso   1.00
C87    C     0.96393   0.05119   0.80700   0.00000  Uiso   1.00
C88    C     0.91282   0.96379   0.80642   0.00000  Uiso   1.00
O89    O     0.93610   0.10821   0.18709   0.00000  Uiso   1.00
H90    H     0.82462   0.39548   0.69051   0.00000  Uiso   1.00
H91    H     0.63205   0.12949   0.82585   0.00000  Uiso   1.00
H92    H     0.69793   0.03898   0.85654   0.00000  Uiso   1.00
H93    H     0.91373   0.21778   0.59254   0.00000  Uiso   1.00
H94    H     0.84558   0.30832   0.56797   0.00000  Uiso   1.00
H95    H     0.97055   0.17633   0.80326   0.00000  Uiso   1.00
C96    C     0.71986   0.42072   0.68932   0.00000  Uiso   1.00
C97    C     0.63265   0.38620   0.68977   0.00000  Uiso   1.00
C98    C     0.77505   0.51200   0.69854   0.00000  Uiso   1.00
C99    C     0.84939   0.54570   0.77585   0.00000  Uiso   1.00
C100   C     0.89940   0.63216   0.79393   0.00000  Uiso   1.00
C101   C     0.87411   0.68664   0.73512   0.00000  Uiso   1.00
C102   C     0.80093   0.65257   0.64910   0.00000  Uiso   1.00
C103   C     0.75214   0.56574   0.63429   0.00000  Uiso   1.00
N104   N     0.92517   0.77486   0.76016   0.00000  Uiso   1.00
C105   C     0.89438   0.82258   0.78995   0.00000  Uiso   1.00
C106   C     0.94881   0.91274   0.80700   0.00000  Uiso   1.00
C107   C     0.03621   0.94903   0.80642   0.00000  Uiso   1.00
O108   O     0.89179   0.82789   0.18709   0.00000  Uiso   1.00
H109   H     0.60452   0.42914   0.69051   0.00000  Uiso   1.00
H110   H     0.87051   0.50256   0.82585   0.00000  Uiso   1.00
H111   H     0.96102   0.65895   0.85654   0.00000  Uiso   1.00
H112   H     0.78222   0.69596   0.59254   0.00000  Uiso   1.00
H113   H     0.69168   0.53727   0.56797   0.00000  Uiso   1.00
H114   H     0.82367   0.79422   0.80326   0.00000  Uiso   1.00
loop_
_geom_bond_atom_site_label_1
_geom_bond_atom_site_label_2
_geom_bond_distance
_geom_bond_site_symmetry_2
_ccdc_geom_bond_type
C1     C2      1.399   .     D
C1     C3      1.467   .     S
C1     C40     1.398   .     S
C2     C20     1.398   .     S
C2     H14     1.140   .     S
C3     C4      1.382   .     S
C3     C8      1.385   .     D
C4     C5      1.393   .     D
C4     H15     1.140   .     S
C5     C6      1.406   .     S
C5     H16     1.140   .     S
C6     C7      1.409   .     D
C6     N9      1.429   .     S
C7     C8      1.393   .     S
C7     H17     1.140   .     S
C8     H18     1.140   .     S
N9     C10     1.289   .     S
C10    C11     1.455   .     D
C10    H19     1.140   .     S
C11    C12     1.399   .     S
C11    C50     1.393   1_565 S
C12    O108    1.381   .     D
C12    C30     1.393   1_655 S
O13    C88     1.381   .     D
C20    C21     1.399   .     D
C20    C22     1.467   .     S
C21    C39     1.398   .     S
C21    H33     1.140   .     S
C22    C23     1.382   .     S
C22    C27     1.385   .     S
C23    C24     1.393   .     D
C23    H34     1.140   .     S
C24    C25     1.406   .     S
C24    H35     1.140   .     S
C25    C26     1.409   .     S
C25    N28     1.429   .     D
C26    C27     1.393   .     D
C26    H36     1.140   .     S
C27    H37     1.140   .     S
N28    C29     1.289   .     S
C29    C30     1.455   .     D
C29    H38     1.140   .     S
C30    C12     1.393   1_455 S
C30    C31     1.399   1_565 S
C31    C49     1.393   .     S
C31    O70     1.381   .     D
C31    C30     1.399   1_545 S
O32    C107    1.381   .     D
C39    C40     1.399   .     D
C39    C41     1.467   .     S
C40    H52     1.140   .     S
C41    C42     1.382   .     D
C41    C46     1.385   .     S
C42    C43     1.393   .     S
C42    H53     1.140   .     S
C43    C44     1.406   .     D
C43    H54     1.140   .     S
C44    C45     1.409   .     S
C44    N47     1.429   .     S
C45    C46     1.393   .     D
C45    H55     1.140   .     S
C46    H56     1.140   .     S
N47    C48     1.289   .     S
C48    C49     1.455   .     D
C48    H57     1.140   .     S
C49    C50     1.399   1_455 S
C50    O89     1.381   .     D
C50    C11     1.393   1_545 S
C50    C49     1.399   1_655 S
O51    C69     1.381   .     D
C58    C59     1.399   .     S
C58    C60     1.467   .     S
C58    C97     1.398   .     D
C59    C77     1.398   .     D
C59    H71     1.140   .     S
C60    C61     1.382   .     S
C60    C65     1.385   .     D
C61    C62     1.393   .     D
C61    H72     1.140   .     S
C62    C63     1.406   .     S
C62    H73     1.140   .     S
C63    C64     1.409   .     D
C63    N66     1.429   .     S
C64    C65     1.393   .     S
C64    H74     1.140   .     S
C65    H75     1.140   .     S
N66    C67     1.289   .     S
C67    C68     1.455   .     D
C67    H76     1.140   .     S
C68    C69     1.399   .     S
C68    C107    1.393   1_545 S
C69    C87     1.393   1_455 S
C77    C78     1.399   .     S
C77    C79     1.467   .     S
C78    C96     1.398   .     D
C78    H90     1.140   .     S
C79    C80     1.382   .     S
C79    C84     1.385   .     D
C80    C81     1.393   .     D
C80    H91     1.140   .     S
C81    C82     1.406   .     S
C81    H92     1.140   .     S
C82    C83     1.409   .     D
C82    N85     1.429   .     S
C83    C84     1.393   .     S
C83    H93     1.140   .     S
C84    H94     1.140   .     S
N85    C86     1.289   .     S
C86    C87     1.455   .     D
C86    H95     1.140   .     S
C87    C69     1.393   1_655 S
C87    C88     1.399   1_545 S
C88    C106    1.393   .     S
C88    C87     1.399   1_565 S
C96    C97     1.399   .     S
C96    C98     1.467   .     S
C97    H109    1.140   .     S
C98    C99     1.382   .     D
C98    C103    1.385   .     S
C99    C100    1.393   .     S
C99    H110    1.140   .     S
C100   C101    1.406   .     D
C100   H111    1.140   .     S
C101   C102    1.409   .     S
C101   N104    1.429   .     S
C102   C103    1.393   .     D
C102   H112    1.140   .     S
C103   H113    1.140   .     S
N104   C105    1.289   .     S
C105   C106    1.455   .     D
C105   H114    1.140   .     S
C106   C107    1.399   1_655 S
C107   C68     1.393   1_565 S
C107   C106    1.399   1_455 S
