data_1212
_audit_creation_date              2023-09-08
_audit_creation_method            'Materials Studio'
_symmetry_space_group_name_H-M    'P1'
_symmetry_Int_Tables_number       1
_symmetry_cell_setting            triclinic
loop_
_symmetry_equiv_pos_as_xyz
  x,y,z
_cell_length_a                    52.0050
_cell_length_b                    52.0050
_cell_length_c                    8.0140
_cell_angle_alpha                 90.0000
_cell_angle_beta                  90.0000
_cell_angle_gamma                 120.0000
loop_
_atom_site_label
_atom_site_type_symbol
_atom_site_fract_x
_atom_site_fract_y
_atom_site_fract_z
_atom_site_U_iso_or_equiv
_atom_site_adp_type
_atom_site_occupancy
C1     C     0.40917   0.73267   0.06777   0.00000  Uiso   1.00
C2     C     0.43998   0.75044   0.08149   0.00000  Uiso   1.00
C3     C     0.45808   0.73767   0.09144   0.00000  Uiso   1.00
C4     C     0.44475   0.70651   0.08738   0.00000  Uiso   1.00
C5     C     0.41393   0.68870   0.07356   0.00000  Uiso   1.00
C6     C     0.39576   0.70155   0.06467   0.00000  Uiso   1.00
N7     N     0.48948   0.75710   0.11317   0.00000  Uiso   1.00
C8     C     0.51006   0.74995   0.10301   0.00000  Uiso   1.00
C9     C     0.54142   0.77218   0.13623   0.00000  Uiso   1.00
C10    C     0.56303   0.76357   0.13094   0.00000  Uiso   1.00
C11    C     0.59270   0.78404   0.16647   0.00000  Uiso   1.00
C12    C     0.60111   0.81325   0.21180   0.00000  Uiso   1.00
C13    C     0.57979   0.82227   0.20998   0.00000  Uiso   1.00
C14    C     0.55011   0.80183   0.17451   0.00000  Uiso   1.00
C15    C     0.63257   0.83510   0.24425   0.00000  Uiso   1.00
C16    C     0.64903   0.83365   0.38090   0.00000  Uiso   1.00
C17    C     0.67935   0.85279   0.39309   0.00000  Uiso   1.00
C18    C     0.69508   0.87427   0.26902   0.00000  Uiso   1.00
C19    C     0.67862   0.87706   0.13840   0.00000  Uiso   1.00
C20    C     0.64786   0.85791   0.12673   0.00000  Uiso   1.00
C21    C     0.72767   0.89165   0.25981   0.00000  Uiso   1.00
C22    C     0.74386   0.87754   0.22057   0.00000  Uiso   1.00
C23    C     0.77479   0.89396   0.20973   0.00000  Uiso   1.00
C24    C     0.78995   0.92483   0.23680   0.00000  Uiso   1.00
C25    C     0.77356   0.93892   0.27276   0.00000  Uiso   1.00
C26    C     0.74259   0.92247   0.28322   0.00000  Uiso   1.00
C27    C     0.82266   0.94264   0.22895   0.00000  Uiso   1.00
N28    N     0.63990   0.81559   0.51682   0.00000  Uiso   1.00
C29    C     0.66490   0.82407   0.60655   0.00000  Uiso   1.00
N30    N     0.68928   0.84676   0.53618   0.00000  Uiso   1.00
N31    N     0.83842   0.93008   0.19961   0.00000  Uiso   1.00
C32    C     0.87028   0.94453   0.19017   0.00000  Uiso   1.00
C33    C     0.88342   0.92673   0.18850   0.00000  Uiso   1.00
C34    C     0.91426   0.93947   0.18163   0.00000  Uiso   1.00
C35    C     0.93268   0.97047   0.17538   0.00000  Uiso   1.00
C36    C     0.91947   0.98838   0.17403   0.00000  Uiso   1.00
C37    C     0.88861   0.97561   0.18083   0.00000  Uiso   1.00
C38    C     0.61016   0.79296   0.57131   0.00000  Uiso   1.00
C39    C     0.71815   0.86265   0.62024   0.00000  Uiso   1.00
C40    C     0.59179   0.80699   0.62506   0.00000  Uiso   1.00
C41    C     0.73355   0.84426   0.61893   0.00000  Uiso   1.00
Au42   Au    0.66615   0.80576   0.82239   0.00000  Uiso   1.00
C43    C     0.36301   0.68257   0.05714   0.00000  Uiso   1.00
C44    C     0.96541   0.98400   0.17164   0.00000  Uiso   1.00
C45    C     0.34545   0.69495   0.05722   0.00000  Uiso   1.00
C46    C     0.98319   0.01391   0.17170   0.00000  Uiso   1.00
H47    H     0.39471   0.74338   0.05899   0.00000  Uiso   1.00
H48    H     0.45065   0.77565   0.08469   0.00000  Uiso   1.00
H49    H     0.45911   0.69568   0.09538   0.00000  Uiso   1.00
H50    H     0.40331   0.66350   0.06940   0.00000  Uiso   1.00
H51    H     0.50399   0.72632   0.06817   0.00000  Uiso   1.00
H52    H     0.55643   0.73974   0.09750   0.00000  Uiso   1.00
H53    H     0.61022   0.77703   0.15868   0.00000  Uiso   1.00
H54    H     0.58665   0.84637   0.23752   0.00000  Uiso   1.00
H55    H     0.53279   0.80915   0.17649   0.00000  Uiso   1.00
H56    H     0.69026   0.89508   0.03999   0.00000  Uiso   1.00
H57    H     0.63480   0.86067   0.02079   0.00000  Uiso   1.00
H58    H     0.73178   0.85257   0.19737   0.00000  Uiso   1.00
H59    H     0.78788   0.88236   0.17882   0.00000  Uiso   1.00
H60    H     0.78550   0.96395   0.29367   0.00000  Uiso   1.00
H61    H     0.72948   0.93418   0.31085   0.00000  Uiso   1.00
H62    H     0.83436   0.96769   0.24873   0.00000  Uiso   1.00
H63    H     0.86893   0.90152   0.19277   0.00000  Uiso   1.00
H64    H     0.92467   0.92469   0.18106   0.00000  Uiso   1.00
H65    H     0.93396   0.01357   0.16734   0.00000  Uiso   1.00
H66    H     0.87816   0.99035   0.17883   0.00000  Uiso   1.00
H67    H     0.60357   0.76850   0.56944   0.00000  Uiso   1.00
H68    H     0.72607   0.88562   0.67528   0.00000  Uiso   1.00
H69    H     0.56709   0.79551   0.59451   0.00000  Uiso   1.00
H70    H     0.60276   0.82895   0.69577   0.00000  Uiso   1.00
H71    H     0.72150   0.82065   0.56766   0.00000  Uiso   1.00
H72    H     0.75712   0.85411   0.66922   0.00000  Uiso   1.00
H73    H     0.97581   0.96922   0.16868   0.00000  Uiso   1.00
H74    H     0.35586   0.72014   0.05737   0.00000  Uiso   1.00
H75    H     0.00590   0.02445   0.10906   0.00000  Uiso   1.00
H76    H     0.97544   0.02853   0.23439   0.00000  Uiso   1.00
C77    C     0.26733   0.67650   0.06777   0.00000  Uiso   1.00
C78    C     0.24956   0.68954   0.08149   0.00000  Uiso   1.00
C79    C     0.26233   0.72041   0.09144   0.00000  Uiso   1.00
C80    C     0.29349   0.73824   0.08738   0.00000  Uiso   1.00
C81    C     0.31130   0.72523   0.07356   0.00000  Uiso   1.00
C82    C     0.29845   0.69421   0.06467   0.00000  Uiso   1.00
N83    N     0.24290   0.73238   0.11317   0.00000  Uiso   1.00
C84    C     0.25005   0.76011   0.10301   0.00000  Uiso   1.00
C85    C     0.22782   0.76924   0.13623   0.00000  Uiso   1.00
C86    C     0.23643   0.79946   0.13094   0.00000  Uiso   1.00
C87    C     0.21596   0.80866   0.16647   0.00000  Uiso   1.00
C88    C     0.18675   0.78786   0.21180   0.00000  Uiso   1.00
C89    C     0.17773   0.75752   0.20998   0.00000  Uiso   1.00
C90    C     0.19817   0.74828   0.17451   0.00000  Uiso   1.00
C91    C     0.16490   0.79747   0.24425   0.00000  Uiso   1.00
C92    C     0.16635   0.81538   0.38090   0.00000  Uiso   1.00
C93    C     0.14721   0.82656   0.39309   0.00000  Uiso   1.00
C94    C     0.12573   0.82081   0.26902   0.00000  Uiso   1.00
C95    C     0.12294   0.80156   0.13840   0.00000  Uiso   1.00
C96    C     0.14209   0.78995   0.12673   0.00000  Uiso   1.00
C97    C     0.10835   0.83602   0.25981   0.00000  Uiso   1.00
C98    C     0.12246   0.86632   0.22057   0.00000  Uiso   1.00
C99    C     0.10604   0.88083   0.20973   0.00000  Uiso   1.00
C100   C     0.07517   0.86512   0.23680   0.00000  Uiso   1.00
C101   C     0.06108   0.83464   0.27276   0.00000  Uiso   1.00
C102   C     0.07753   0.82012   0.28322   0.00000  Uiso   1.00
C103   C     0.05736   0.88002   0.22895   0.00000  Uiso   1.00
N104   N     0.18441   0.82431   0.51682   0.00000  Uiso   1.00
C105   C     0.17593   0.84083   0.60655   0.00000  Uiso   1.00
N106   N     0.15324   0.84252   0.53618   0.00000  Uiso   1.00
N107   N     0.06992   0.90834   0.19961   0.00000  Uiso   1.00
C108   C     0.05547   0.92575   0.19017   0.00000  Uiso   1.00
C109   C     0.07327   0.95669   0.18850   0.00000  Uiso   1.00
C110   C     0.06053   0.97479   0.18163   0.00000  Uiso   1.00
C111   C     0.02953   0.96221   0.17538   0.00000  Uiso   1.00
C112   C     0.01162   0.93109   0.17403   0.00000  Uiso   1.00
C113   C     0.02439   0.91300   0.18083   0.00000  Uiso   1.00
C114   C     0.20704   0.81720   0.57131   0.00000  Uiso   1.00
C115   C     0.13735   0.85550   0.62024   0.00000  Uiso   1.00
C116   C     0.19301   0.78480   0.62506   0.00000  Uiso   1.00
C117   C     0.15574   0.88929   0.61893   0.00000  Uiso   1.00
Au118  Au    0.19424   0.86039   0.82239   0.00000  Uiso   1.00
C119   C     0.31743   0.68044   0.05714   0.00000  Uiso   1.00
C120   C     0.01600   0.98141   0.17164   0.00000  Uiso   1.00
C121   C     0.30505   0.65050   0.05722   0.00000  Uiso   1.00
C122   C     0.98609   0.96928   0.17170   0.00000  Uiso   1.00
H123   H     0.25662   0.65133   0.05899   0.00000  Uiso   1.00
H124   H     0.22435   0.67500   0.08469   0.00000  Uiso   1.00
H125   H     0.30432   0.76343   0.09538   0.00000  Uiso   1.00
H126   H     0.33650   0.73980   0.06940   0.00000  Uiso   1.00
H127   H     0.27368   0.77767   0.06817   0.00000  Uiso   1.00
H128   H     0.26026   0.81668   0.09750   0.00000  Uiso   1.00
H129   H     0.22297   0.83319   0.15868   0.00000  Uiso   1.00
H130   H     0.15363   0.74028   0.23752   0.00000  Uiso   1.00
H131   H     0.19085   0.72364   0.17649   0.00000  Uiso   1.00
H132   H     0.10492   0.79517   0.03999   0.00000  Uiso   1.00
H133   H     0.13933   0.77414   0.02079   0.00000  Uiso   1.00
H134   H     0.14743   0.87921   0.19737   0.00000  Uiso   1.00
H135   H     0.11764   0.90552   0.17882   0.00000  Uiso   1.00
H136   H     0.03605   0.82155   0.29367   0.00000  Uiso   1.00
H137   H     0.06582   0.79530   0.31085   0.00000  Uiso   1.00
H138   H     0.03231   0.86667   0.24873   0.00000  Uiso   1.00
H139   H     0.09848   0.96741   0.19277   0.00000  Uiso   1.00
H140   H     0.07531   0.99998   0.18106   0.00000  Uiso   1.00
H141   H     0.98643   0.92039   0.16734   0.00000  Uiso   1.00
H142   H     0.00965   0.88781   0.17883   0.00000  Uiso   1.00
H143   H     0.23150   0.83507   0.56944   0.00000  Uiso   1.00
H144   H     0.11438   0.84045   0.67528   0.00000  Uiso   1.00
H145   H     0.20449   0.77158   0.59451   0.00000  Uiso   1.00
H146   H     0.17105   0.77381   0.69577   0.00000  Uiso   1.00
H147   H     0.17935   0.90085   0.56766   0.00000  Uiso   1.00
H148   H     0.14589   0.90301   0.66922   0.00000  Uiso   1.00
H149   H     0.03078   0.00659   0.16868   0.00000  Uiso   1.00
H150   H     0.27986   0.63573   0.05737   0.00000  Uiso   1.00
H151   H     0.97555   0.98145   0.10906   0.00000  Uiso   1.00
H152   H     0.97147   0.94691   0.23439   0.00000  Uiso   1.00
C153   C     0.32350   0.59083   0.06777   0.00000  Uiso   1.00
C154   C     0.31046   0.56002   0.08149   0.00000  Uiso   1.00
C155   C     0.27959   0.54192   0.09144   0.00000  Uiso   1.00
C156   C     0.26176   0.55525   0.08738   0.00000  Uiso   1.00
C157   C     0.27477   0.58607   0.07356   0.00000  Uiso   1.00
C158   C     0.30579   0.60424   0.06467   0.00000  Uiso   1.00
N159   N     0.26762   0.51052   0.11317   0.00000  Uiso   1.00
C160   C     0.23989   0.48994   0.10301   0.00000  Uiso   1.00
C161   C     0.23076   0.45858   0.13623   0.00000  Uiso   1.00
C162   C     0.20054   0.43697   0.13094   0.00000  Uiso   1.00
C163   C     0.19134   0.40730   0.16647   0.00000  Uiso   1.00
C164   C     0.21214   0.39889   0.21180   0.00000  Uiso   1.00
C165   C     0.24248   0.42021   0.20998   0.00000  Uiso   1.00
C166   C     0.25172   0.44989   0.17451   0.00000  Uiso   1.00
C167   C     0.20253   0.36743   0.24425   0.00000  Uiso   1.00
C168   C     0.18462   0.35097   0.38090   0.00000  Uiso   1.00
C169   C     0.17344   0.32065   0.39309   0.00000  Uiso   1.00
C170   C     0.17919   0.30492   0.26902   0.00000  Uiso   1.00
C171   C     0.19844   0.32138   0.13840   0.00000  Uiso   1.00
C172   C     0.21005   0.35214   0.12673   0.00000  Uiso   1.00
C173   C     0.16398   0.27233   0.25981   0.00000  Uiso   1.00
C174   C     0.13368   0.25614   0.22057   0.00000  Uiso   1.00
C175   C     0.11917   0.22521   0.20973   0.00000  Uiso   1.00
C176   C     0.13488   0.21005   0.23680   0.00000  Uiso   1.00
C177   C     0.16536   0.22644   0.27276   0.00000  Uiso   1.00
C178   C     0.17988   0.25741   0.28322   0.00000  Uiso   1.00
C179   C     0.11998   0.17734   0.22895   0.00000  Uiso   1.00
N180   N     0.17569   0.36010   0.51682   0.00000  Uiso   1.00
C181   C     0.15917   0.33510   0.60655   0.00000  Uiso   1.00
N182   N     0.15748   0.31072   0.53618   0.00000  Uiso   1.00
N183   N     0.09166   0.16158   0.19961   0.00000  Uiso   1.00
C184   C     0.07425   0.12972   0.19017   0.00000  Uiso   1.00
C185   C     0.04331   0.11658   0.18850   0.00000  Uiso   1.00
C186   C     0.02521   0.08574   0.18163   0.00000  Uiso   1.00
C187   C     0.03779   0.06732   0.17538   0.00000  Uiso   1.00
C188   C     0.06891   0.08053   0.17403   0.00000  Uiso   1.00
C189   C     0.08700   0.11139   0.18083   0.00000  Uiso   1.00
C190   C     0.18280   0.38984   0.57131   0.00000  Uiso   1.00
C191   C     0.14450   0.28185   0.62024   0.00000  Uiso   1.00
C192   C     0.21520   0.40821   0.62506   0.00000  Uiso   1.00
C193   C     0.11071   0.26645   0.61893   0.00000  Uiso   1.00
Au194  Au    0.13961   0.33385   0.82239   0.00000  Uiso   1.00
C195   C     0.31956   0.63699   0.05714   0.00000  Uiso   1.00
C196   C     0.01859   0.03459   0.17164   0.00000  Uiso   1.00
C197   C     0.34950   0.65455   0.05722   0.00000  Uiso   1.00
C198   C     0.03072   0.01681   0.17170   0.00000  Uiso   1.00
H199   H     0.34867   0.60529   0.05899   0.00000  Uiso   1.00
H200   H     0.32500   0.54935   0.08469   0.00000  Uiso   1.00
H201   H     0.23657   0.54089   0.09538   0.00000  Uiso   1.00
H202   H     0.26020   0.59669   0.06940   0.00000  Uiso   1.00
H203   H     0.22233   0.49601   0.06817   0.00000  Uiso   1.00
H204   H     0.18332   0.44357   0.09750   0.00000  Uiso   1.00
H205   H     0.16681   0.38978   0.15868   0.00000  Uiso   1.00
H206   H     0.25972   0.41335   0.23752   0.00000  Uiso   1.00
H207   H     0.27636   0.46721   0.17649   0.00000  Uiso   1.00
H208   H     0.20483   0.30974   0.03999   0.00000  Uiso   1.00
H209   H     0.22586   0.36520   0.02079   0.00000  Uiso   1.00
H210   H     0.12079   0.26822   0.19737   0.00000  Uiso   1.00
H211   H     0.09448   0.21212   0.17882   0.00000  Uiso   1.00
H212   H     0.17845   0.21450   0.29367   0.00000  Uiso   1.00
H213   H     0.20470   0.27052   0.31085   0.00000  Uiso   1.00
H214   H     0.13333   0.16564   0.24873   0.00000  Uiso   1.00
H215   H     0.03259   0.13107   0.19277   0.00000  Uiso   1.00
H216   H     0.00002   0.07533   0.18106   0.00000  Uiso   1.00
H217   H     0.07961   0.06604   0.16734   0.00000  Uiso   1.00
H218   H     0.11219   0.12184   0.17883   0.00000  Uiso   1.00
H219   H     0.16493   0.39643   0.56944   0.00000  Uiso   1.00
H220   H     0.15955   0.27393   0.67528   0.00000  Uiso   1.00
H221   H     0.22842   0.43291   0.59451   0.00000  Uiso   1.00
H222   H     0.22619   0.39724   0.69577   0.00000  Uiso   1.00
H223   H     0.09915   0.27850   0.56766   0.00000  Uiso   1.00
H224   H     0.09699   0.24288   0.66922   0.00000  Uiso   1.00
H225   H     0.99341   0.02419   0.16868   0.00000  Uiso   1.00
H226   H     0.36427   0.64414   0.05737   0.00000  Uiso   1.00
H227   H     0.01855   0.99410   0.10906   0.00000  Uiso   1.00
H228   H     0.05309   0.02456   0.23439   0.00000  Uiso   1.00
loop_
_geom_bond_atom_site_label_1
_geom_bond_atom_site_label_2
_geom_bond_distance
_geom_bond_site_symmetry_2
_ccdc_geom_bond_type
C1     C2      1.397   .     S
C1     C6      1.406   .     D
C1     H47     1.140   .     S
C2     C3      1.399   .     D
C2     H48     1.140   .     S
C3     C4      1.409   .     S
C3     N7      1.438   .     S
C4     C5      1.398   .     D
C4     H49     1.140   .     S
C5     C6      1.406   .     S
C5     H50     1.140   .     S
C6     C43     1.482   .     S
N7     C8      1.299   .     D
C8     C9      1.477   .     S
C8     H51     1.140   .     S
C9     C10     1.403   .     D
C9     C14     1.407   .     S
C10    C11     1.397   .     S
C10    H52     1.140   .     S
C11    C12     1.402   .     D
C11    H53     1.140   .     S
C12    C13     1.403   .     S
C12    C15     1.475   .     S
C13    C14     1.397   .     D
C13    H54     1.140   .     S
C14    H55     1.140   .     S
C15    C16     1.415   .     D
C15    C20     1.408   .     S
C16    C17     1.385   .     S
C16    N28     1.359   .     S
C17    C18     1.411   .     D
C17    N30     1.357   .     S
C18    C19     1.405   .     S
C18    C21     1.471   .     S
C19    C20     1.402   .     D
C19    H56     1.140   .     S
C20    H57     1.140   .     S
C21    C22     1.401   .     D
C21    C26     1.401   .     S
C22    C23     1.397   .     S
C22    H58     1.140   .     S
C23    C24     1.407   .     D
C23    H59     1.140   .     S
C24    C25     1.404   .     S
C24    C27     1.476   .     S
C25    C26     1.398   .     D
C25    H60     1.140   .     S
C26    H61     1.140   .     S
C27    N31     1.300   .     D
C27    H62     1.140   .     S
N28    C29     1.352   .     D
N28    C38     1.465   .     S
C29    N30     1.350   .     S
C29    Au42    1.991   .     S
N30    C39     1.466   .     S
N31    C32     1.439   .     S
C32    C33     1.399   .     D
C32    C37     1.409   .     S
C33    C34     1.397   .     S
C33    H63     1.140   .     S
C34    C35     1.405   .     D
C34    H64     1.140   .     S
C35    C36     1.407   .     S
C35    C44     1.482   .     S
C36    C37     1.398   .     D
C36    H65     1.140   1_565 S
C37    H66     1.140   .     S
C38    C40     1.526   .     D
C38    H67     1.140   .     S
C39    C41     1.524   .     D
C39    H68     1.140   .     S
C40    H69     1.140   .     S
C40    H70     1.140   .     S
C41    H71     1.140   .     S
C41    H72     1.140   .     S
C43    C45     1.355   .     D
C43    C197    1.262   .     S
C44    H73     1.140   .     S
C44    H151    0.786   .     S
C44    C46     1.355   1_565 S
C44    C122    1.602   .     S
C45    C119    1.262   .     S
C45    H74     1.140   .     S
C46    H76     1.140   .     S
C46    C44     1.355   1_545 S
C46    H75     1.140   1_655 S
C46    C196    1.602   1_655 S
H65    C36     1.140   1_545 S
H73    H151    0.801   .     S
H75    C196    0.786   .     S
H75    C46     1.140   1_455 S
H75    H225    0.801   1_455 S
C77    C78     1.397   .     S
C77    C82     1.406   .     D
C77    H123    1.140   .     S
C78    C79     1.399   .     D
C78    H124    1.140   .     S
C79    C80     1.409   .     S
C79    N83     1.438   .     S
C80    C81     1.398   .     D
C80    H125    1.140   .     S
C81    C82     1.406   .     S
C81    H126    1.140   .     S
C82    C119    1.482   .     S
N83    C84     1.299   .     D
C84    C85     1.477   .     S
C84    H127    1.140   .     S
C85    C86     1.403   .     D
C85    C90     1.407   .     S
C86    C87     1.397   .     S
C86    H128    1.140   .     S
C87    C88     1.402   .     D
C87    H129    1.140   .     S
C88    C89     1.403   .     S
C88    C91     1.475   .     S
C89    C90     1.397   .     D
C89    H130    1.140   .     S
C90    H131    1.140   .     S
C91    C92     1.415   .     D
C91    C96     1.408   .     S
C92    C93     1.385   .     S
C92    N104    1.359   .     S
C93    C94     1.411   .     D
C93    N106    1.357   .     S
C94    C95     1.405   .     S
C94    C97     1.471   .     S
C95    C96     1.402   .     D
C95    H132    1.140   .     S
C96    H133    1.140   .     S
C97    C98     1.401   .     D
C97    C102    1.401   .     S
C98    C99     1.397   .     S
C98    H134    1.140   .     S
C99    C100    1.407   .     D
C99    H135    1.140   .     S
C100   C101    1.404   .     S
C100   C103    1.476   .     S
C101   C102    1.398   .     D
C101   H136    1.140   .     S
C102   H137    1.140   .     S
C103   N107    1.300   .     D
C103   H138    1.140   .     S
N104   C105    1.352   .     D
N104   C114    1.465   .     S
C105   N106    1.350   .     S
C105   Au118   1.991   .     S
N106   C115    1.466   .     S
N107   C108    1.439   .     S
C108   C109    1.399   .     D
C108   C113    1.409   .     S
C109   C110    1.397   .     S
C109   H139    1.140   .     S
C110   C111    1.405   .     D
C110   H140    1.140   .     S
C111   C112    1.407   .     S
C111   C120    1.482   .     S
C112   C113    1.398   .     D
C112   H141    1.140   1_455 S
C113   H142    1.140   .     S
C114   C116    1.526   .     D
C114   H143    1.140   .     S
C115   C117    1.524   .     D
C115   H144    1.140   .     S
C116   H145    1.140   .     S
C116   H146    1.140   .     S
C117   H147    1.140   .     S
C117   H148    1.140   .     S
C119   C121    1.355   .     D
C120   H227    0.786   .     S
C120   C122    1.355   1_455 S
C120   H149    1.140   1_565 S
C120   C198    1.602   1_565 S
C121   C195    1.262   .     S
C121   H150    1.140   .     S
C122   H151    1.140   .     S
C122   H152    1.140   .     S
C122   C120    1.355   1_655 S
H141   C112    1.140   1_655 S
H149   C120    1.140   1_545 S
H149   H227    0.801   1_545 S
C153   C154    1.397   .     D
C153   C158    1.406   .     S
C153   H199    1.140   .     S
C154   C155    1.399   .     S
C154   H200    1.140   .     S
C155   C156    1.409   .     D
C155   N159    1.438   .     S
C156   C157    1.398   .     S
C156   H201    1.140   .     S
C157   C158    1.406   .     D
C157   H202    1.140   .     S
C158   C195    1.482   .     S
N159   C160    1.299   .     D
C160   C161    1.477   .     S
C160   H203    1.140   .     S
C161   C162    1.403   .     S
C161   C166    1.407   .     D
C162   C163    1.397   .     D
C162   H204    1.140   .     S
C163   C164    1.402   .     S
C163   H205    1.140   .     S
C164   C165    1.403   .     D
C164   C167    1.475   .     S
C165   C166    1.397   .     S
C165   H206    1.140   .     S
C166   H207    1.140   .     S
C167   C168    1.415   .     D
C167   C172    1.408   .     S
C168   C169    1.385   .     S
C168   N180    1.359   .     S
C169   C170    1.411   .     D
C169   N182    1.357   .     S
C170   C171    1.405   .     S
C170   C173    1.471   .     S
C171   C172    1.402   .     D
C171   H208    1.140   .     S
C172   H209    1.140   .     S
C173   C174    1.401   .     D
C173   C178    1.401   .     S
C174   C175    1.397   .     S
C174   H210    1.140   .     S
C175   C176    1.407   .     D
C175   H211    1.140   .     S
C176   C177    1.404   .     S
C176   C179    1.476   .     S
C177   C178    1.398   .     D
C177   H212    1.140   .     S
C178   H213    1.140   .     S
C179   N183    1.300   .     D
C179   H214    1.140   .     S
N180   C181    1.352   .     D
N180   C190    1.465   .     S
C181   N182    1.350   .     S
C181   Au194   1.991   .     S
N182   C191    1.466   .     S
N183   C184    1.439   .     S
C184   C185    1.399   .     D
C184   C189    1.409   .     S
C185   C186    1.397   .     S
C185   H215    1.140   .     S
C186   C187    1.405   .     D
C186   H216    1.140   .     S
C187   C188    1.407   .     S
C187   C196    1.482   .     S
C188   C189    1.398   .     D
C188   H217    1.140   .     S
C189   H218    1.140   .     S
C190   C192    1.526   .     D
C190   H219    1.140   .     S
C191   C193    1.524   .     D
C191   H220    1.140   .     S
C192   H221    1.140   .     S
C192   H222    1.140   .     S
C193   H223    1.140   .     S
C193   H224    1.140   .     S
C195   C197    1.355   .     D
C196   C198    1.355   .     S
C196   H225    1.140   1_455 S
C196   C46     1.602   1_455 S
C197   H226    1.140   .     S
C198   H228    1.140   .     S
C198   H227    1.140   1_545 S
C198   C120    1.602   1_545 S
H225   C196    1.140   1_655 S
H225   H75     0.801   1_655 S
H227   C198    1.140   1_565 S
H227   H149    0.801   1_565 S
