data_1215
_audit_creation_date              2023-09-08
_audit_creation_method            'Materials Studio'
_symmetry_space_group_name_H-M    'P1'
_symmetry_Int_Tables_number       1
_symmetry_cell_setting            triclinic
loop_
_symmetry_equiv_pos_as_xyz
  x,y,z
_cell_length_a                    11.2325
_cell_length_b                    11.2332
_cell_length_c                    20.0000
_cell_angle_alpha                 90.0000
_cell_angle_beta                  90.0000
_cell_angle_gamma                 120.0099
loop_
_atom_site_label
_atom_site_type_symbol
_atom_site_fract_x
_atom_site_fract_y
_atom_site_fract_z
_atom_site_U_iso_or_equiv
_atom_site_adp_type
_atom_site_occupancy
N1     N     0.27671   0.02521   0.21870   0.00000  Uiso   1.00
N2     N     0.81115   0.95497   0.21896   0.00000  Uiso   1.00
N3     N     0.20650   0.42059   0.21863   0.00000  Uiso   1.00
C4     C     0.18247   0.07353   0.21879   0.00000  Uiso   1.00
C5     C     0.95360   0.04911   0.21895   0.00000  Uiso   1.00
C6     C     0.33678   0.84790   0.22099   0.00000  Uiso   1.00
C7     C     0.47948   0.94172   0.22112   0.00000  Uiso   1.00
C8     C     0.57384   0.89497   0.22121   0.00000  Uiso   1.00
C9     C     0.52492   0.75228   0.22130   0.00000  Uiso   1.00
C10    C     0.38380   0.65792   0.22116   0.00000  Uiso   1.00
C11    C     0.28998   0.70681   0.22105   0.00000  Uiso   1.00
C12    C     0.23734   0.89618   0.22099   0.00000  Uiso   1.00
C13    C     0.72157   0.99448   0.22132   0.00000  Uiso   1.00
C14    C     0.33557   0.51020   0.22129   0.00000  Uiso   1.00
C15    C     0.15817   0.27802   0.21875   0.00000  Uiso   1.00
C16    C     0.01491   0.19356   0.21872   0.00000  Uiso   1.00
C17    C     0.03823   0.99049   0.21881   0.00000  Uiso   1.00
C18    C     0.24126   0.21678   0.21858   0.00000  Uiso   1.00
H19    H     0.51383   0.05145   0.22114   0.00000  Uiso   1.00
H20    H     0.60015   0.71768   0.22145   0.00000  Uiso   1.00
H21    H     0.18014   0.63158   0.22103   0.00000  Uiso   1.00
H22    H     0.74884   0.10363   0.22361   0.00000  Uiso   1.00
H23    H     0.41737   0.48281   0.22392   0.00000  Uiso   1.00
H24    H     0.12811   0.81432   0.22318   0.00000  Uiso   1.00
H25    H     0.95362   0.24414   0.21831   0.00000  Uiso   1.00
H26    H     0.98735   0.87843   0.21848   0.00000  Uiso   1.00
H27    H     0.35322   0.27799   0.21804   0.00000  Uiso   1.00
loop_
_geom_bond_atom_site_label_1
_geom_bond_atom_site_label_2
_geom_bond_distance
_geom_bond_site_symmetry_2
_ccdc_geom_bond_type
N1     C4      1.411   .     S
N1     C12     1.287   1_545 D
N2     C13     1.288   .     D
N2     C5      1.409   1_565 S
N3     C14     1.288   .     D
N3     C15     1.411   .     S
C4     C18     1.401   .     S
C4     C17     1.408   1_545 D
C5     N2      1.409   1_545 S
C5     C16     1.410   1_655 D
C5     C17     1.401   1_645 S
C6     C7      1.411   .     D
C6     C11     1.398   .     S
C6     C12     1.465   .     S
C7     C8      1.399   .     S
C7     H19     1.092   1_565 S
C8     C9      1.411   .     D
C8     C13     1.465   .     S
C9     C10     1.398   .     S
C9     H20     1.093   .     S
C10    C11     1.411   .     D
C10    C14     1.466   .     S
C11    H21     1.092   .     S
C12    H24     1.106   .     S
C12    N1      1.287   1_565 D
C13    H22     1.106   1_565 S
C14    H23     1.107   .     S
C15    C16     1.401   .     S
C15    C18     1.409   .     D
C16    C5      1.410   1_455 D
C16    H25     1.090   1_455 S
C17    C4      1.408   1_565 D
C17    C5      1.401   1_465 S
C17    H26     1.092   1_455 S
C18    H27     1.091   .     S
H19    C7      1.092   1_545 S
H22    C13     1.106   1_545 S
H25    C16     1.090   1_655 S
H26    C17     1.092   1_655 S
