data_1217
_audit_creation_date              2023-09-08
_audit_creation_method            'Materials Studio'
_symmetry_space_group_name_H-M    'P1'
_symmetry_Int_Tables_number       1
_symmetry_cell_setting            triclinic
loop_
_symmetry_equiv_pos_as_xyz
  x,y,z
_cell_length_a                    10.9383
_cell_length_b                    10.9888
_cell_length_c                    20.0000
_cell_angle_alpha                 90.0000
_cell_angle_beta                  90.0000
_cell_angle_gamma                 118.2057
loop_
_atom_site_label
_atom_site_type_symbol
_atom_site_fract_x
_atom_site_fract_y
_atom_site_fract_z
_atom_site_U_iso_or_equiv
_atom_site_adp_type
_atom_site_occupancy
N1     N     0.03184   0.98893   0.21929   0.00000  Uiso   1.00
N2     N     0.28413   0.04209   0.21923   0.00000  Uiso   1.00
N3     N     0.80835   0.95284   0.21906   0.00000  Uiso   1.00
N4     N     0.23954   0.22737   0.21918   0.00000  Uiso   1.00
N5     N     0.19247   0.42001   0.21909   0.00000  Uiso   1.00
C6     C     0.18455   0.08923   0.21925   0.00000  Uiso   1.00
C7     C     0.96513   0.06302   0.21916   0.00000  Uiso   1.00
C8     C     0.32540   0.84972   0.21973   0.00000  Uiso   1.00
C9     C     0.46921   0.94025   0.21987   0.00000  Uiso   1.00
C10    C     0.56458   0.88922   0.21990   0.00000  Uiso   1.00
C11    C     0.51623   0.74524   0.21986   0.00000  Uiso   1.00
C12    C     0.37363   0.65417   0.21975   0.00000  Uiso   1.00
C13    C     0.27875   0.70744   0.21971   0.00000  Uiso   1.00
C14    C     0.22542   0.90298   0.21968   0.00000  Uiso   1.00
C15    C     0.71213   0.98898   0.22008   0.00000  Uiso   1.00
C16    C     0.32384   0.50489   0.21974   0.00000  Uiso   1.00
C17    C     0.14792   0.27709   0.21910   0.00000  Uiso   1.00
C18    C     0.00470   0.19028   0.21897   0.00000  Uiso   1.00
H19    H     0.52061   0.05912   0.21991   0.00000  Uiso   1.00
H20    H     0.59186   0.70677   0.21995   0.00000  Uiso   1.00
H21    H     0.16794   0.63459   0.21967   0.00000  Uiso   1.00
H22    H     0.74975   0.10565   0.22115   0.00000  Uiso   1.00
H23    H     0.40212   0.46849   0.22031   0.00000  Uiso   1.00
H24    H     0.11408   0.82713   0.22005   0.00000  Uiso   1.00
H25    H     0.94409   0.25335   0.21871   0.00000  Uiso   1.00
loop_
_geom_bond_atom_site_label_1
_geom_bond_atom_site_label_2
_geom_bond_distance
_geom_bond_site_symmetry_2
_ccdc_geom_bond_type
N1     C6      1.505   1_565 D
N1     C7      1.325   1_465 S
N2     C6      1.410   .     S
N2     C14     1.350   1_545 D
N3     C15     1.289   .     D
N3     C7      1.563   1_565 S
N4     C6      1.343   .     S
N4     C17     1.349   .     D
N5     C16     1.292   .     D
N5     C17     1.407   .     S
C6     N1      1.505   1_545 D
C7     N1      1.325   1_645 S
C7     N3      1.563   1_545 S
C7     C18     1.253   1_655 D
C8     C9      1.409   .     S
C8     C13     1.397   .     D
C8     C14     1.464   .     S
C9     C10     1.398   .     D
C9     H19     1.152   1_565 S
C10    C11     1.411   .     S
C10    C15     1.461   .     S
C11    C12     1.400   .     D
C11    H20     1.093   .     S
C12    C13     1.412   .     S
C12    C16     1.464   .     S
C13    H21     1.092   .     S
C14    H24     1.104   .     S
C14    N2      1.350   1_565 D
C15    H22     1.147   1_565 S
C16    H23     1.103   .     S
C17    C18     1.397   .     S
C18    C7      1.253   1_455 D
C18    H25     1.164   1_455 S
H19    C9      1.152   1_545 S
H22    C15     1.147   1_545 S
H25    C18     1.164   1_655 S
