data_1220
_audit_creation_date              2023-09-08
_audit_creation_method            'Materials Studio'
_symmetry_space_group_name_H-M    'P1'
_symmetry_Int_Tables_number       1
_symmetry_cell_setting            triclinic
loop_
_symmetry_equiv_pos_as_xyz
  x,y,z
_cell_length_a                    54.5843
_cell_length_b                    54.5843
_cell_length_c                    3.2388
_cell_angle_alpha                 90.0000
_cell_angle_beta                  90.0000
_cell_angle_gamma                 120.0000
loop_
_atom_site_label
_atom_site_type_symbol
_atom_site_fract_x
_atom_site_fract_y
_atom_site_fract_z
_atom_site_U_iso_or_equiv
_atom_site_adp_type
_atom_site_occupancy
C1     C     0.51131   0.51544   0.50000   0.00000  Uiso   1.00
C2     C     0.54341   0.52482   0.50000   0.00000  Uiso   1.00
C3     C     0.49083   0.45633   0.50000   0.00000  Uiso   1.00
C4     C     0.56966   0.54853   0.50000   0.00000  Uiso   1.00
C5     C     0.59401   0.54947   0.50000   0.00000  Uiso   1.00
C6     C     0.59553   0.52699   0.50000   0.00000  Uiso   1.00
C7     C     0.57171   0.50447   0.50000   0.00000  Uiso   1.00
C8     C     0.54855   0.50543   0.50000   0.00000  Uiso   1.00
C9     C     0.51146   0.44910   0.50000   0.00000  Uiso   1.00
C10    C     0.50933   0.42441   0.50000   0.00000  Uiso   1.00
C11    C     0.48556   0.40192   0.50000   0.00000  Uiso   1.00
C12    C     0.46478   0.40611   0.50000   0.00000  Uiso   1.00
C13    C     0.46833   0.43137   0.50000   0.00000  Uiso   1.00
C14    C     0.62095   0.52683   0.50000   0.00000  Uiso   1.00
C15    C     0.48270   0.37513   0.50000   0.00000  Uiso   1.00
C16    C     0.64526   0.54999   0.50000   0.00000  Uiso   1.00
C17    C     0.66862   0.54962   0.50000   0.00000  Uiso   1.00
C18    C     0.66874   0.52603   0.50000   0.00000  Uiso   1.00
C19    C     0.64462   0.50305   0.50000   0.00000  Uiso   1.00
C20    C     0.62140   0.50334   0.50000   0.00000  Uiso   1.00
C21    C     0.50459   0.37183   0.50000   0.00000  Uiso   1.00
C22    C     0.50220   0.34732   0.50000   0.00000  Uiso   1.00
C23    C     0.47776   0.32460   0.50000   0.00000  Uiso   1.00
C24    C     0.45585   0.32773   0.50000   0.00000  Uiso   1.00
C25    C     0.45817   0.35231   0.50000   0.00000  Uiso   1.00
C26    C     0.69223   0.52284   0.50000   0.00000  Uiso   1.00
C27    C     0.47304   0.29726   0.50000   0.00000  Uiso   1.00
C28    C     0.71799   0.54060   0.50000   0.00000  Uiso   1.00
C29    C     0.73847   0.53253   0.50000   0.00000  Uiso   1.00
C30    C     0.72699   0.56806   0.50000   0.00000  Uiso   1.00
C31    C     0.76509   0.55145   0.50000   0.00000  Uiso   1.00
C32    C     0.78445   0.54463   0.50000   0.00000  Uiso   1.00
C33    C     0.77816   0.51839   0.50000   0.00000  Uiso   1.00
C34    C     0.75156   0.49956   0.50000   0.00000  Uiso   1.00
C35    C     0.73231   0.50633   0.50000   0.00000  Uiso   1.00
C36    C     0.79824   0.50981   0.50000   0.00000  Uiso   1.00
C37    C     0.51785   0.30613   0.50000   0.00000  Uiso   1.00
N38    N     0.54012   0.31978   0.50000   0.00000  Uiso   1.00
N39    N     0.73468   0.59017   0.50000   0.00000  Uiso   1.00
H40    H     0.57772   0.56901   0.50000   0.00000  Uiso   1.00
H41    H     0.61164   0.56815   0.50000   0.00000  Uiso   1.00
H42    H     0.57056   0.48600   0.50000   0.00000  Uiso   1.00
H43    H     0.53181   0.49123   0.50000   0.00000  Uiso   1.00
H44    H     0.53168   0.45989   0.50000   0.00000  Uiso   1.00
H45    H     0.52703   0.42352   0.50000   0.00000  Uiso   1.00
H46    H     0.44510   0.39007   0.50000   0.00000  Uiso   1.00
H47    H     0.45147   0.42887   0.50000   0.00000  Uiso   1.00
H48    H     0.64695   0.56885   0.50000   0.00000  Uiso   1.00
H49    H     0.68601   0.56812   0.50000   0.00000  Uiso   1.00
H50    H     0.64352   0.48433   0.50000   0.00000  Uiso   1.00
H51    H     0.60415   0.48458   0.50000   0.00000  Uiso   1.00
H52    H     0.52415   0.38784   0.50000   0.00000  Uiso   1.00
H53    H     0.52011   0.34734   0.50000   0.00000  Uiso   1.00
H54    H     0.43653   0.31092   0.50000   0.00000  Uiso   1.00
H55    H     0.44033   0.35277   0.50000   0.00000  Uiso   1.00
H56    H     0.68679   0.50277   0.50000   0.00000  Uiso   1.00
H57    H     0.45273   0.28309   0.50000   0.00000  Uiso   1.00
H58    H     0.77137   0.57192   0.50000   0.00000  Uiso   1.00
H59    H     0.80415   0.56047   0.50000   0.00000  Uiso   1.00
H60    H     0.74505   0.47905   0.50000   0.00000  Uiso   1.00
H61    H     0.71278   0.49025   0.50000   0.00000  Uiso   1.00
C62    C     0.48456   0.99587   0.50000   0.00000  Uiso   1.00
C63    C     0.47518   0.01859   0.50000   0.00000  Uiso   1.00
C64    C     0.54367   0.03450   0.50000   0.00000  Uiso   1.00
C65    C     0.45147   0.02113   0.50000   0.00000  Uiso   1.00
C66    C     0.45053   0.04454   0.50000   0.00000  Uiso   1.00
C67    C     0.47301   0.06854   0.50000   0.00000  Uiso   1.00
C68    C     0.49553   0.06724   0.50000   0.00000  Uiso   1.00
C69    C     0.49457   0.04312   0.50000   0.00000  Uiso   1.00
C70    C     0.55090   0.06236   0.50000   0.00000  Uiso   1.00
C71    C     0.57559   0.08492   0.50000   0.00000  Uiso   1.00
C72    C     0.59808   0.08364   0.50000   0.00000  Uiso   1.00
C73    C     0.59389   0.05867   0.50000   0.00000  Uiso   1.00
C74    C     0.56863   0.03696   0.50000   0.00000  Uiso   1.00
C75    C     0.47317   0.09412   0.50000   0.00000  Uiso   1.00
C76    C     0.62487   0.10757   0.50000   0.00000  Uiso   1.00
C77    C     0.45001   0.09527   0.50000   0.00000  Uiso   1.00
C78    C     0.45038   0.11900   0.50000   0.00000  Uiso   1.00
C79    C     0.47397   0.14271   0.50000   0.00000  Uiso   1.00
C80    C     0.49695   0.14157   0.50000   0.00000  Uiso   1.00
C81    C     0.49666   0.11806   0.50000   0.00000  Uiso   1.00
C82    C     0.62817   0.13276   0.50000   0.00000  Uiso   1.00
C83    C     0.65268   0.15488   0.50000   0.00000  Uiso   1.00
C84    C     0.67540   0.15316   0.50000   0.00000  Uiso   1.00
C85    C     0.67227   0.12812   0.50000   0.00000  Uiso   1.00
C86    C     0.64769   0.10586   0.50000   0.00000  Uiso   1.00
C87    C     0.47716   0.16939   0.50000   0.00000  Uiso   1.00
C88    C     0.70274   0.17578   0.50000   0.00000  Uiso   1.00
C89    C     0.45940   0.17739   0.50000   0.00000  Uiso   1.00
C90    C     0.46747   0.20594   0.50000   0.00000  Uiso   1.00
C91    C     0.43194   0.15893   0.50000   0.00000  Uiso   1.00
C92    C     0.44855   0.21364   0.50000   0.00000  Uiso   1.00
C93    C     0.45537   0.23982   0.50000   0.00000  Uiso   1.00
C94    C     0.48161   0.25977   0.50000   0.00000  Uiso   1.00
C95    C     0.50044   0.25200   0.50000   0.00000  Uiso   1.00
C96    C     0.49367   0.22598   0.50000   0.00000  Uiso   1.00
C97    C     0.49019   0.28843   0.50000   0.00000  Uiso   1.00
C98    C     0.69387   0.21172   0.50000   0.00000  Uiso   1.00
N99    N     0.68022   0.22034   0.50000   0.00000  Uiso   1.00
N100   N     0.40983   0.14451   0.50000   0.00000  Uiso   1.00
H101   H     0.43099   0.00871   0.50000   0.00000  Uiso   1.00
H102   H     0.43185   0.04349   0.50000   0.00000  Uiso   1.00
H103   H     0.51400   0.08456   0.50000   0.00000  Uiso   1.00
H104   H     0.50877   0.04058   0.50000   0.00000  Uiso   1.00
H105   H     0.54011   0.07179   0.50000   0.00000  Uiso   1.00
H106   H     0.57648   0.10351   0.50000   0.00000  Uiso   1.00
H107   H     0.60993   0.05503   0.50000   0.00000  Uiso   1.00
H108   H     0.57113   0.02260   0.50000   0.00000  Uiso   1.00
H109   H     0.43115   0.07810   0.50000   0.00000  Uiso   1.00
H110   H     0.43188   0.11789   0.50000   0.00000  Uiso   1.00
H111   H     0.51567   0.15919   0.50000   0.00000  Uiso   1.00
H112   H     0.51542   0.11957   0.50000   0.00000  Uiso   1.00
H113   H     0.61216   0.13631   0.50000   0.00000  Uiso   1.00
H114   H     0.65266   0.17277   0.50000   0.00000  Uiso   1.00
H115   H     0.68908   0.12561   0.50000   0.00000  Uiso   1.00
H116   H     0.64723   0.08756   0.50000   0.00000  Uiso   1.00
H117   H     0.49723   0.18402   0.50000   0.00000  Uiso   1.00
H118   H     0.71691   0.16964   0.50000   0.00000  Uiso   1.00
H119   H     0.42808   0.19945   0.50000   0.00000  Uiso   1.00
H120   H     0.43953   0.24368   0.50000   0.00000  Uiso   1.00
H121   H     0.52095   0.26600   0.50000   0.00000  Uiso   1.00
H122   H     0.50975   0.22253   0.50000   0.00000  Uiso   1.00
C123   C     0.00413   0.48869   0.50000   0.00000  Uiso   1.00
C124   C     0.98141   0.45659   0.50000   0.00000  Uiso   1.00
C125   C     0.96550   0.50917   0.50000   0.00000  Uiso   1.00
C126   C     0.97887   0.43034   0.50000   0.00000  Uiso   1.00
C127   C     0.95546   0.40599   0.50000   0.00000  Uiso   1.00
C128   C     0.93146   0.40447   0.50000   0.00000  Uiso   1.00
C129   C     0.93276   0.42829   0.50000   0.00000  Uiso   1.00
C130   C     0.95688   0.45145   0.50000   0.00000  Uiso   1.00
C131   C     0.93764   0.48854   0.50000   0.00000  Uiso   1.00
C132   C     0.91508   0.49067   0.50000   0.00000  Uiso   1.00
C133   C     0.91636   0.51444   0.50000   0.00000  Uiso   1.00
C134   C     0.94133   0.53522   0.50000   0.00000  Uiso   1.00
C135   C     0.96304   0.53167   0.50000   0.00000  Uiso   1.00
C136   C     0.90588   0.37905   0.50000   0.00000  Uiso   1.00
C137   C     0.89243   0.51730   0.50000   0.00000  Uiso   1.00
C138   C     0.90473   0.35474   0.50000   0.00000  Uiso   1.00
C139   C     0.88100   0.33138   0.50000   0.00000  Uiso   1.00
C140   C     0.85729   0.33126   0.50000   0.00000  Uiso   1.00
C141   C     0.85843   0.35538   0.50000   0.00000  Uiso   1.00
C142   C     0.88194   0.37860   0.50000   0.00000  Uiso   1.00
C143   C     0.86724   0.49541   0.50000   0.00000  Uiso   1.00
C144   C     0.84512   0.49780   0.50000   0.00000  Uiso   1.00
C145   C     0.84684   0.52224   0.50000   0.00000  Uiso   1.00
C146   C     0.87188   0.54415   0.50000   0.00000  Uiso   1.00
C147   C     0.89414   0.54183   0.50000   0.00000  Uiso   1.00
C148   C     0.83061   0.30777   0.50000   0.00000  Uiso   1.00
C149   C     0.82422   0.52696   0.50000   0.00000  Uiso   1.00
C150   C     0.82261   0.28201   0.50000   0.00000  Uiso   1.00
C151   C     0.79406   0.26153   0.50000   0.00000  Uiso   1.00
C152   C     0.84107   0.27301   0.50000   0.00000  Uiso   1.00
C153   C     0.78636   0.23491   0.50000   0.00000  Uiso   1.00
C154   C     0.76018   0.21555   0.50000   0.00000  Uiso   1.00
C155   C     0.74023   0.22184   0.50000   0.00000  Uiso   1.00
C156   C     0.74800   0.24844   0.50000   0.00000  Uiso   1.00
C157   C     0.77402   0.26769   0.50000   0.00000  Uiso   1.00
C158   C     0.71157   0.20176   0.50000   0.00000  Uiso   1.00
C159   C     0.78828   0.48215   0.50000   0.00000  Uiso   1.00
N160   N     0.77966   0.45988   0.50000   0.00000  Uiso   1.00
N161   N     0.85549   0.26532   0.50000   0.00000  Uiso   1.00
H162   H     0.99129   0.42228   0.50000   0.00000  Uiso   1.00
H163   H     0.95651   0.38836   0.50000   0.00000  Uiso   1.00
H164   H     0.91544   0.42944   0.50000   0.00000  Uiso   1.00
H165   H     0.95942   0.46819   0.50000   0.00000  Uiso   1.00
H166   H     0.92821   0.46832   0.50000   0.00000  Uiso   1.00
H167   H     0.89649   0.47297   0.50000   0.00000  Uiso   1.00
H168   H     0.94497   0.55490   0.50000   0.00000  Uiso   1.00
H169   H     0.97740   0.54853   0.50000   0.00000  Uiso   1.00
H170   H     0.92190   0.35305   0.50000   0.00000  Uiso   1.00
H171   H     0.88211   0.31399   0.50000   0.00000  Uiso   1.00
H172   H     0.84081   0.35648   0.50000   0.00000  Uiso   1.00
H173   H     0.88043   0.39585   0.50000   0.00000  Uiso   1.00
H174   H     0.86369   0.47585   0.50000   0.00000  Uiso   1.00
H175   H     0.82723   0.47989   0.50000   0.00000  Uiso   1.00
H176   H     0.87439   0.56347   0.50000   0.00000  Uiso   1.00
H177   H     0.91244   0.55967   0.50000   0.00000  Uiso   1.00
H178   H     0.81598   0.31321   0.50000   0.00000  Uiso   1.00
H179   H     0.83036   0.54727   0.50000   0.00000  Uiso   1.00
H180   H     0.80055   0.22863   0.50000   0.00000  Uiso   1.00
H181   H     0.75632   0.19585   0.50000   0.00000  Uiso   1.00
H182   H     0.73400   0.25495   0.50000   0.00000  Uiso   1.00
H183   H     0.77747   0.28722   0.50000   0.00000  Uiso   1.00
C184   C     0.48869   0.48456   0.50000   0.00000  Uiso   1.00
C185   C     0.45659   0.47518   0.50000   0.00000  Uiso   1.00
C186   C     0.50917   0.54367   0.50000   0.00000  Uiso   1.00
C187   C     0.43034   0.45147   0.50000   0.00000  Uiso   1.00
C188   C     0.40599   0.45053   0.50000   0.00000  Uiso   1.00
C189   C     0.40447   0.47301   0.50000   0.00000  Uiso   1.00
C190   C     0.42829   0.49553   0.50000   0.00000  Uiso   1.00
C191   C     0.45145   0.49457   0.50000   0.00000  Uiso   1.00
C192   C     0.48854   0.55090   0.50000   0.00000  Uiso   1.00
C193   C     0.49067   0.57559   0.50000   0.00000  Uiso   1.00
C194   C     0.51444   0.59808   0.50000   0.00000  Uiso   1.00
C195   C     0.53522   0.59389   0.50000   0.00000  Uiso   1.00
C196   C     0.53167   0.56863   0.50000   0.00000  Uiso   1.00
C197   C     0.37905   0.47317   0.50000   0.00000  Uiso   1.00
C198   C     0.51730   0.62487   0.50000   0.00000  Uiso   1.00
C199   C     0.35474   0.45001   0.50000   0.00000  Uiso   1.00
C200   C     0.33138   0.45038   0.50000   0.00000  Uiso   1.00
C201   C     0.33126   0.47397   0.50000   0.00000  Uiso   1.00
C202   C     0.35538   0.49695   0.50000   0.00000  Uiso   1.00
C203   C     0.37860   0.49666   0.50000   0.00000  Uiso   1.00
C204   C     0.49541   0.62817   0.50000   0.00000  Uiso   1.00
C205   C     0.49780   0.65268   0.50000   0.00000  Uiso   1.00
C206   C     0.52224   0.67540   0.50000   0.00000  Uiso   1.00
C207   C     0.54415   0.67227   0.50000   0.00000  Uiso   1.00
C208   C     0.54183   0.64769   0.50000   0.00000  Uiso   1.00
C209   C     0.30777   0.47716   0.50000   0.00000  Uiso   1.00
C210   C     0.52696   0.70274   0.50000   0.00000  Uiso   1.00
C211   C     0.28201   0.45940   0.50000   0.00000  Uiso   1.00
C212   C     0.26153   0.46747   0.50000   0.00000  Uiso   1.00
C213   C     0.27301   0.43194   0.50000   0.00000  Uiso   1.00
C214   C     0.23491   0.44855   0.50000   0.00000  Uiso   1.00
C215   C     0.21555   0.45537   0.50000   0.00000  Uiso   1.00
C216   C     0.22184   0.48161   0.50000   0.00000  Uiso   1.00
C217   C     0.24844   0.50044   0.50000   0.00000  Uiso   1.00
C218   C     0.26769   0.49367   0.50000   0.00000  Uiso   1.00
C219   C     0.20176   0.49019   0.50000   0.00000  Uiso   1.00
C220   C     0.48215   0.69387   0.50000   0.00000  Uiso   1.00
N221   N     0.45988   0.68022   0.50000   0.00000  Uiso   1.00
N222   N     0.26532   0.40983   0.50000   0.00000  Uiso   1.00
H223   H     0.42228   0.43099   0.50000   0.00000  Uiso   1.00
H224   H     0.38836   0.43185   0.50000   0.00000  Uiso   1.00
H225   H     0.42944   0.51400   0.50000   0.00000  Uiso   1.00
H226   H     0.46819   0.50877   0.50000   0.00000  Uiso   1.00
H227   H     0.46832   0.54011   0.50000   0.00000  Uiso   1.00
H228   H     0.47297   0.57648   0.50000   0.00000  Uiso   1.00
H229   H     0.55490   0.60993   0.50000   0.00000  Uiso   1.00
H230   H     0.54853   0.57113   0.50000   0.00000  Uiso   1.00
H231   H     0.35305   0.43115   0.50000   0.00000  Uiso   1.00
H232   H     0.31399   0.43188   0.50000   0.00000  Uiso   1.00
H233   H     0.35648   0.51567   0.50000   0.00000  Uiso   1.00
H234   H     0.39585   0.51542   0.50000   0.00000  Uiso   1.00
H235   H     0.47585   0.61216   0.50000   0.00000  Uiso   1.00
H236   H     0.47989   0.65266   0.50000   0.00000  Uiso   1.00
H237   H     0.56347   0.68908   0.50000   0.00000  Uiso   1.00
H238   H     0.55967   0.64723   0.50000   0.00000  Uiso   1.00
H239   H     0.31321   0.49723   0.50000   0.00000  Uiso   1.00
H240   H     0.54727   0.71691   0.50000   0.00000  Uiso   1.00
H241   H     0.22863   0.42808   0.50000   0.00000  Uiso   1.00
H242   H     0.19585   0.43953   0.50000   0.00000  Uiso   1.00
H243   H     0.25495   0.52095   0.50000   0.00000  Uiso   1.00
H244   H     0.28722   0.50975   0.50000   0.00000  Uiso   1.00
C245   C     0.51544   0.00413   0.50000   0.00000  Uiso   1.00
C246   C     0.52482   0.98141   0.50000   0.00000  Uiso   1.00
C247   C     0.45633   0.96550   0.50000   0.00000  Uiso   1.00
C248   C     0.54853   0.97887   0.50000   0.00000  Uiso   1.00
C249   C     0.54947   0.95546   0.50000   0.00000  Uiso   1.00
C250   C     0.52699   0.93146   0.50000   0.00000  Uiso   1.00
C251   C     0.50447   0.93276   0.50000   0.00000  Uiso   1.00
C252   C     0.50543   0.95688   0.50000   0.00000  Uiso   1.00
C253   C     0.44910   0.93764   0.50000   0.00000  Uiso   1.00
C254   C     0.42441   0.91508   0.50000   0.00000  Uiso   1.00
C255   C     0.40192   0.91636   0.50000   0.00000  Uiso   1.00
C256   C     0.40611   0.94133   0.50000   0.00000  Uiso   1.00
C257   C     0.43137   0.96304   0.50000   0.00000  Uiso   1.00
C258   C     0.52683   0.90588   0.50000   0.00000  Uiso   1.00
C259   C     0.37513   0.89243   0.50000   0.00000  Uiso   1.00
C260   C     0.54999   0.90473   0.50000   0.00000  Uiso   1.00
C261   C     0.54962   0.88100   0.50000   0.00000  Uiso   1.00
C262   C     0.52603   0.85729   0.50000   0.00000  Uiso   1.00
C263   C     0.50305   0.85843   0.50000   0.00000  Uiso   1.00
C264   C     0.50334   0.88194   0.50000   0.00000  Uiso   1.00
C265   C     0.37183   0.86724   0.50000   0.00000  Uiso   1.00
C266   C     0.34732   0.84512   0.50000   0.00000  Uiso   1.00
C267   C     0.32460   0.84684   0.50000   0.00000  Uiso   1.00
C268   C     0.32773   0.87188   0.50000   0.00000  Uiso   1.00
C269   C     0.35231   0.89414   0.50000   0.00000  Uiso   1.00
C270   C     0.52284   0.83061   0.50000   0.00000  Uiso   1.00
C271   C     0.29726   0.82422   0.50000   0.00000  Uiso   1.00
C272   C     0.54060   0.82261   0.50000   0.00000  Uiso   1.00
C273   C     0.53253   0.79406   0.50000   0.00000  Uiso   1.00
C274   C     0.56806   0.84107   0.50000   0.00000  Uiso   1.00
C275   C     0.55145   0.78636   0.50000   0.00000  Uiso   1.00
C276   C     0.54463   0.76018   0.50000   0.00000  Uiso   1.00
C277   C     0.51839   0.74023   0.50000   0.00000  Uiso   1.00
C278   C     0.49956   0.74800   0.50000   0.00000  Uiso   1.00
C279   C     0.50633   0.77402   0.50000   0.00000  Uiso   1.00
C280   C     0.50981   0.71157   0.50000   0.00000  Uiso   1.00
C281   C     0.30613   0.78828   0.50000   0.00000  Uiso   1.00
N282   N     0.31978   0.77966   0.50000   0.00000  Uiso   1.00
N283   N     0.59017   0.85549   0.50000   0.00000  Uiso   1.00
H284   H     0.56901   0.99129   0.50000   0.00000  Uiso   1.00
H285   H     0.56815   0.95651   0.50000   0.00000  Uiso   1.00
H286   H     0.48600   0.91544   0.50000   0.00000  Uiso   1.00
H287   H     0.49123   0.95942   0.50000   0.00000  Uiso   1.00
H288   H     0.45989   0.92821   0.50000   0.00000  Uiso   1.00
H289   H     0.42352   0.89649   0.50000   0.00000  Uiso   1.00
H290   H     0.39007   0.94497   0.50000   0.00000  Uiso   1.00
H291   H     0.42887   0.97740   0.50000   0.00000  Uiso   1.00
H292   H     0.56885   0.92190   0.50000   0.00000  Uiso   1.00
H293   H     0.56812   0.88211   0.50000   0.00000  Uiso   1.00
H294   H     0.48433   0.84081   0.50000   0.00000  Uiso   1.00
H295   H     0.48458   0.88043   0.50000   0.00000  Uiso   1.00
H296   H     0.38784   0.86369   0.50000   0.00000  Uiso   1.00
H297   H     0.34734   0.82723   0.50000   0.00000  Uiso   1.00
H298   H     0.31092   0.87439   0.50000   0.00000  Uiso   1.00
H299   H     0.35277   0.91244   0.50000   0.00000  Uiso   1.00
H300   H     0.50277   0.81598   0.50000   0.00000  Uiso   1.00
H301   H     0.28309   0.83036   0.50000   0.00000  Uiso   1.00
H302   H     0.57192   0.80055   0.50000   0.00000  Uiso   1.00
H303   H     0.56047   0.75632   0.50000   0.00000  Uiso   1.00
H304   H     0.47905   0.73400   0.50000   0.00000  Uiso   1.00
H305   H     0.49025   0.77747   0.50000   0.00000  Uiso   1.00
C306   C     0.99587   0.51131   0.50000   0.00000  Uiso   1.00
C307   C     0.01859   0.54341   0.50000   0.00000  Uiso   1.00
C308   C     0.03450   0.49083   0.50000   0.00000  Uiso   1.00
C309   C     0.02113   0.56966   0.50000   0.00000  Uiso   1.00
C310   C     0.04454   0.59401   0.50000   0.00000  Uiso   1.00
C311   C     0.06854   0.59553   0.50000   0.00000  Uiso   1.00
C312   C     0.06724   0.57171   0.50000   0.00000  Uiso   1.00
C313   C     0.04312   0.54855   0.50000   0.00000  Uiso   1.00
C314   C     0.06236   0.51146   0.50000   0.00000  Uiso   1.00
C315   C     0.08492   0.50933   0.50000   0.00000  Uiso   1.00
C316   C     0.08364   0.48556   0.50000   0.00000  Uiso   1.00
C317   C     0.05867   0.46478   0.50000   0.00000  Uiso   1.00
C318   C     0.03696   0.46833   0.50000   0.00000  Uiso   1.00
C319   C     0.09412   0.62095   0.50000   0.00000  Uiso   1.00
C320   C     0.10757   0.48270   0.50000   0.00000  Uiso   1.00
C321   C     0.09527   0.64526   0.50000   0.00000  Uiso   1.00
C322   C     0.11900   0.66862   0.50000   0.00000  Uiso   1.00
C323   C     0.14271   0.66874   0.50000   0.00000  Uiso   1.00
C324   C     0.14157   0.64462   0.50000   0.00000  Uiso   1.00
C325   C     0.11806   0.62140   0.50000   0.00000  Uiso   1.00
C326   C     0.13276   0.50459   0.50000   0.00000  Uiso   1.00
C327   C     0.15488   0.50220   0.50000   0.00000  Uiso   1.00
C328   C     0.15316   0.47776   0.50000   0.00000  Uiso   1.00
C329   C     0.12812   0.45585   0.50000   0.00000  Uiso   1.00
C330   C     0.10586   0.45817   0.50000   0.00000  Uiso   1.00
C331   C     0.16939   0.69223   0.50000   0.00000  Uiso   1.00
C332   C     0.17578   0.47304   0.50000   0.00000  Uiso   1.00
C333   C     0.17739   0.71799   0.50000   0.00000  Uiso   1.00
C334   C     0.20594   0.73847   0.50000   0.00000  Uiso   1.00
C335   C     0.15893   0.72699   0.50000   0.00000  Uiso   1.00
C336   C     0.21364   0.76509   0.50000   0.00000  Uiso   1.00
C337   C     0.23982   0.78445   0.50000   0.00000  Uiso   1.00
C338   C     0.25977   0.77816   0.50000   0.00000  Uiso   1.00
C339   C     0.25200   0.75156   0.50000   0.00000  Uiso   1.00
C340   C     0.22598   0.73231   0.50000   0.00000  Uiso   1.00
C341   C     0.28843   0.79824   0.50000   0.00000  Uiso   1.00
C342   C     0.21172   0.51785   0.50000   0.00000  Uiso   1.00
N343   N     0.22034   0.54012   0.50000   0.00000  Uiso   1.00
N344   N     0.14451   0.73468   0.50000   0.00000  Uiso   1.00
H345   H     0.00871   0.57772   0.50000   0.00000  Uiso   1.00
H346   H     0.04349   0.61164   0.50000   0.00000  Uiso   1.00
H347   H     0.08456   0.57056   0.50000   0.00000  Uiso   1.00
H348   H     0.04058   0.53181   0.50000   0.00000  Uiso   1.00
H349   H     0.07179   0.53168   0.50000   0.00000  Uiso   1.00
H350   H     0.10351   0.52703   0.50000   0.00000  Uiso   1.00
H351   H     0.05503   0.44510   0.50000   0.00000  Uiso   1.00
H352   H     0.02260   0.45147   0.50000   0.00000  Uiso   1.00
H353   H     0.07810   0.64695   0.50000   0.00000  Uiso   1.00
H354   H     0.11789   0.68601   0.50000   0.00000  Uiso   1.00
H355   H     0.15919   0.64352   0.50000   0.00000  Uiso   1.00
H356   H     0.11957   0.60415   0.50000   0.00000  Uiso   1.00
H357   H     0.13631   0.52415   0.50000   0.00000  Uiso   1.00
H358   H     0.17277   0.52011   0.50000   0.00000  Uiso   1.00
H359   H     0.12561   0.43653   0.50000   0.00000  Uiso   1.00
H360   H     0.08756   0.44033   0.50000   0.00000  Uiso   1.00
H361   H     0.18402   0.68679   0.50000   0.00000  Uiso   1.00
H362   H     0.16964   0.45273   0.50000   0.00000  Uiso   1.00
H363   H     0.19945   0.77137   0.50000   0.00000  Uiso   1.00
H364   H     0.24368   0.80415   0.50000   0.00000  Uiso   1.00
H365   H     0.26600   0.74505   0.50000   0.00000  Uiso   1.00
H366   H     0.22253   0.71278   0.50000   0.00000  Uiso   1.00
loop_
_geom_bond_atom_site_label_1
_geom_bond_atom_site_label_2
_geom_bond_distance
_geom_bond_site_symmetry_2
_ccdc_geom_bond_type
C1     C2      1.560   .     D
C1     C186    1.603   .     S
C1     C184    1.511   .     S
C2     C4      1.369   .     S
C2     C8      1.223   .     S
C3     C9      1.367   .     D
C3     C13     1.300   .     S
C3     C184    1.603   .     S
C4     C5      1.304   .     D
C4     H40     0.975   .     S
C5     C6      1.271   .     S
C5     H41     0.992   .     S
C6     C7      1.266   .     S
C6     C14     1.392   .     D
C7     C8      1.291   .     D
C7     H42     0.978   .     S
C8     H43     0.853   .     S
C9     C10     1.293   .     S
C9     H44     0.957   .     S
C10    C11     1.264   .     D
C10    H45     0.991   .     S
C11    C12     1.264   .     S
C11    C15     1.391   .     S
C12    C13     1.293   .     D
C12    H46     0.990   .     S
C13    H47     0.860   .     S
C14    C16     1.297   .     S
C14    C20     1.295   .     S
C15    C21     1.294   .     D
C15    C25     1.295   .     S
C16    C17     1.285   .     D
C16    H48     0.987   .     S
C17    C18     1.291   .     S
C17    H49     0.981   .     S
C18    C19     1.287   .     S
C18    C26     1.378   .     D
C19    C20     1.275   .     D
C19    H50     0.993   .     S
C20    H51     0.985   .     S
C21    C22     1.278   .     S
C21    H52     0.985   .     S
C22    C23     1.290   .     D
C22    H53     0.977   .     S
C23    C24     1.290   .     S
C23    C27     1.382   .     S
C24    C25     1.283   .     D
C24    H54     0.993   .     S
C25    H55     0.987   .     S
C26    C28     1.247   .     S
C26    H56     0.981   .     S
C27    H57     0.985   .     S
C27    C97     1.249   .     D
C28    C29     1.391   .     D
C28    C30     1.323   .     S
C29    C31     1.295   .     S
C29    C35     1.295   .     S
C30    N39     1.061   .     T
C31    C32     1.284   .     D
C31    H58     0.991   .     S
C32    C33     1.295   .     S
C32    H59     0.987   .     S
C33    C34     1.293   .     S
C33    C36     1.391   .     D
C34    C35     1.276   .     D
C34    H60     0.991   .     S
C35    H61     0.985   .     S
C36    C149    1.249   .     S
C36    C159    1.324   .     S
C37    N38     1.062   .     T
C37    C97     1.324   .     S
C62    C247    1.603   .     S
C62    C63     1.560   1_565 S
C62    C245    1.511   1_565 D
C63    C65     1.369   .     D
C63    C69     1.223   .     S
C63    C62     1.560   1_545 S
C64    C70     1.367   .     D
C64    C74     1.300   .     S
C64    C245    1.603   .     S
C65    C66     1.304   .     S
C65    H101    0.975   .     S
C66    C67     1.271   .     D
C66    H102    0.992   .     S
C67    C68     1.266   .     S
C67    C75     1.392   .     S
C68    C69     1.291   .     D
C68    H103    0.978   .     S
C69    H104    0.853   .     S
C70    C71     1.293   .     S
C70    H105    0.957   .     S
C71    C72     1.264   .     D
C71    H106    0.991   .     S
C72    C73     1.264   .     S
C72    C76     1.391   .     S
C73    C74     1.293   .     D
C73    H107    0.990   .     S
C74    H108    0.860   .     S
C75    C77     1.297   .     D
C75    C81     1.295   .     S
C76    C82     1.294   .     D
C76    C86     1.295   .     S
C77    C78     1.285   .     S
C77    H109    0.987   .     S
C78    C79     1.291   .     D
C78    H110    0.981   .     S
C79    C80     1.287   .     S
C79    C87     1.378   .     S
C80    C81     1.275   .     D
C80    H111    0.993   .     S
C81    H112    0.985   .     S
C82    C83     1.278   .     S
C82    H113    0.985   .     S
C83    C84     1.290   .     D
C83    H114    0.977   .     S
C84    C85     1.290   .     S
C84    C88     1.382   .     S
C85    C86     1.283   .     D
C85    H115    0.993   .     S
C86    H116    0.987   .     S
C87    C89     1.247   .     D
C87    H117    0.981   .     S
C88    H118    0.985   .     S
C88    C158    1.249   .     D
C89    C90     1.391   .     S
C89    C91     1.323   .     S
C90    C92     1.295   .     D
C90    C96     1.295   .     S
C91    N100    1.061   .     T
C92    C93     1.284   .     S
C92    H119    0.991   .     S
C93    C94     1.295   .     D
C93    H120    0.987   .     S
C94    C95     1.293   .     S
C94    C97     1.391   .     S
C95    C96     1.276   .     D
C95    H121    0.991   .     S
C96    H122    0.985   .     S
C98    N99     1.062   .     T
C98    C158    1.324   .     S
C123   C308    1.603   .     D
C123   C124    1.560   1_455 S
C123   C306    1.511   1_455 S
C124   C126    1.369   .     D
C124   C130    1.223   .     S
C124   C123    1.560   1_655 S
C125   C131    1.367   .     S
C125   C135    1.300   .     S
C125   C306    1.603   .     D
C126   C127    1.304   .     S
C126   H162    0.975   .     S
C127   C128    1.271   .     D
C127   H163    0.992   .     S
C128   C129    1.266   .     S
C128   C136    1.392   .     S
C129   C130    1.291   .     D
C129   H164    0.978   .     S
C130   H165    0.853   .     S
C131   C132    1.293   .     D
C131   H166    0.957   .     S
C132   C133    1.264   .     S
C132   H167    0.991   .     S
C133   C134    1.264   .     S
C133   C137    1.391   .     D
C134   C135    1.293   .     D
C134   H168    0.990   .     S
C135   H169    0.860   .     S
C136   C138    1.297   .     D
C136   C142    1.295   .     S
C137   C143    1.294   .     S
C137   C147    1.295   .     S
C138   C139    1.285   .     S
C138   H170    0.987   .     S
C139   C140    1.291   .     D
C139   H171    0.981   .     S
C140   C141    1.287   .     S
C140   C148    1.378   .     S
C141   C142    1.275   .     D
C141   H172    0.993   .     S
C142   H173    0.985   .     S
C143   C144    1.278   .     D
C143   H174    0.985   .     S
C144   C145    1.290   .     S
C144   H175    0.977   .     S
C145   C146    1.290   .     S
C145   C149    1.382   .     D
C146   C147    1.283   .     D
C146   H176    0.993   .     S
C147   H177    0.987   .     S
C148   C150    1.247   .     D
C148   H178    0.981   .     S
C149   H179    0.985   .     S
C150   C151    1.391   .     S
C150   C152    1.323   .     S
C151   C153    1.295   .     D
C151   C157    1.295   .     S
C152   N161    1.061   .     T
C153   C154    1.284   .     S
C153   H180    0.991   .     S
C154   C155    1.295   .     D
C154   H181    0.987   .     S
C155   C156    1.293   .     S
C155   C158    1.391   .     S
C156   C157    1.276   .     D
C156   H182    0.991   .     S
C157   H183    0.985   .     S
C159   N160    1.062   .     T
C184   C185    1.560   .     D
C185   C187    1.369   .     S
C185   C191    1.223   .     S
C186   C192    1.367   .     D
C186   C196    1.300   .     S
C187   C188    1.304   .     D
C187   H223    0.975   .     S
C188   C189    1.271   .     S
C188   H224    0.992   .     S
C189   C190    1.266   .     S
C189   C197    1.392   .     D
C190   C191    1.291   .     D
C190   H225    0.978   .     S
C191   H226    0.853   .     S
C192   C193    1.293   .     S
C192   H227    0.957   .     S
C193   C194    1.264   .     D
C193   H228    0.991   .     S
C194   C195    1.264   .     S
C194   C198    1.391   .     S
C195   C196    1.293   .     D
C195   H229    0.990   .     S
C196   H230    0.860   .     S
C197   C199    1.297   .     S
C197   C203    1.295   .     S
C198   C204    1.294   .     D
C198   C208    1.295   .     S
C199   C200    1.285   .     D
C199   H231    0.987   .     S
C200   C201    1.291   .     S
C200   H232    0.981   .     S
C201   C202    1.287   .     S
C201   C209    1.378   .     D
C202   C203    1.275   .     D
C202   H233    0.993   .     S
C203   H234    0.985   .     S
C204   C205    1.278   .     S
C204   H235    0.985   .     S
C205   C206    1.290   .     D
C205   H236    0.977   .     S
C206   C207    1.290   .     S
C206   C210    1.382   .     S
C207   C208    1.283   .     D
C207   H237    0.993   .     S
C208   H238    0.987   .     S
C209   C211    1.247   .     S
C209   H239    0.981   .     S
C210   H240    0.985   .     S
C210   C280    1.249   .     D
C211   C212    1.391   .     D
C211   C213    1.323   .     S
C212   C214    1.295   .     S
C212   C218    1.295   .     S
C213   N222    1.061   .     T
C214   C215    1.284   .     D
C214   H241    0.991   .     S
C215   C216    1.295   .     S
C215   H242    0.987   .     S
C216   C217    1.293   .     S
C216   C219    1.391   .     D
C217   C218    1.276   .     D
C217   H243    0.991   .     S
C218   H244    0.985   .     S
C219   C332    1.249   .     S
C219   C342    1.324   .     S
C220   N221    1.062   .     T
C220   C280    1.324   .     S
C245   C62     1.511   1_545 D
C245   C246    1.560   1_545 S
C246   C248    1.369   .     D
C246   C252    1.223   .     S
C246   C245    1.560   1_565 S
C247   C253    1.367   .     D
C247   C257    1.300   .     S
C248   C249    1.304   .     S
C248   H284    0.975   .     S
C249   C250    1.271   .     D
C249   H285    0.992   .     S
C250   C251    1.266   .     S
C250   C258    1.392   .     S
C251   C252    1.291   .     D
C251   H286    0.978   .     S
C252   H287    0.853   .     S
C253   C254    1.293   .     S
C253   H288    0.957   .     S
C254   C255    1.264   .     D
C254   H289    0.991   .     S
C255   C256    1.264   .     S
C255   C259    1.391   .     S
C256   C257    1.293   .     D
C256   H290    0.990   .     S
C257   H291    0.860   .     S
C258   C260    1.297   .     D
C258   C264    1.295   .     S
C259   C265    1.294   .     D
C259   C269    1.295   .     S
C260   C261    1.285   .     S
C260   H292    0.987   .     S
C261   C262    1.291   .     D
C261   H293    0.981   .     S
C262   C263    1.287   .     S
C262   C270    1.378   .     S
C263   C264    1.275   .     D
C263   H294    0.993   .     S
C264   H295    0.985   .     S
C265   C266    1.278   .     S
C265   H296    0.985   .     S
C266   C267    1.290   .     D
C266   H297    0.977   .     S
C267   C268    1.290   .     S
C267   C271    1.382   .     S
C268   C269    1.283   .     D
C268   H298    0.993   .     S
C269   H299    0.987   .     S
C270   C272    1.247   .     D
C270   H300    0.981   .     S
C271   H301    0.985   .     S
C271   C341    1.249   .     D
C272   C273    1.391   .     S
C272   C274    1.323   .     S
C273   C275    1.295   .     D
C273   C279    1.295   .     S
C274   N283    1.061   .     T
C275   C276    1.284   .     S
C275   H302    0.991   .     S
C276   C277    1.295   .     D
C276   H303    0.987   .     S
C277   C278    1.293   .     S
C277   C280    1.391   .     S
C278   C279    1.276   .     D
C278   H304    0.991   .     S
C279   H305    0.985   .     S
C281   N282    1.062   .     T
C281   C341    1.324   .     S
C306   C123    1.511   1_655 S
C306   C307    1.560   1_655 S
C307   C309    1.369   .     D
C307   C313    1.223   .     S
C307   C306    1.560   1_455 S
C308   C314    1.367   .     S
C308   C318    1.300   .     S
C309   C310    1.304   .     S
C309   H345    0.975   .     S
C310   C311    1.271   .     D
C310   H346    0.992   .     S
C311   C312    1.266   .     S
C311   C319    1.392   .     S
C312   C313    1.291   .     D
C312   H347    0.978   .     S
C313   H348    0.853   .     S
C314   C315    1.293   .     D
C314   H349    0.957   .     S
C315   C316    1.264   .     S
C315   H350    0.991   .     S
C316   C317    1.264   .     S
C316   C320    1.391   .     D
C317   C318    1.293   .     D
C317   H351    0.990   .     S
C318   H352    0.860   .     S
C319   C321    1.297   .     D
C319   C325    1.295   .     S
C320   C326    1.294   .     S
C320   C330    1.295   .     S
C321   C322    1.285   .     S
C321   H353    0.987   .     S
C322   C323    1.291   .     D
C322   H354    0.981   .     S
C323   C324    1.287   .     S
C323   C331    1.378   .     S
C324   C325    1.275   .     D
C324   H355    0.993   .     S
C325   H356    0.985   .     S
C326   C327    1.278   .     D
C326   H357    0.985   .     S
C327   C328    1.290   .     S
C327   H358    0.977   .     S
C328   C329    1.290   .     S
C328   C332    1.382   .     D
C329   C330    1.283   .     D
C329   H359    0.993   .     S
C330   H360    0.987   .     S
C331   C333    1.247   .     D
C331   H361    0.981   .     S
C332   H362    0.985   .     S
C333   C334    1.391   .     S
C333   C335    1.323   .     S
C334   C336    1.295   .     D
C334   C340    1.295   .     S
C335   N344    1.061   .     T
C336   C337    1.284   .     S
C336   H363    0.991   .     S
C337   C338    1.295   .     D
C337   H364    0.987   .     S
C338   C339    1.293   .     S
C338   C341    1.391   .     S
C339   C340    1.276   .     D
C339   H365    0.991   .     S
C340   H366    0.985   .     S
C342   N343    1.062   .     T
