data_1221
_audit_creation_date              2023-09-08
_audit_creation_method            'Materials Studio'
_symmetry_space_group_name_H-M    'P1'
_symmetry_Int_Tables_number       1
_symmetry_cell_setting            triclinic
loop_
_symmetry_equiv_pos_as_xyz
  x,y,z
_cell_length_a                    27.2545
_cell_length_b                    27.3419
_cell_length_c                    4.2925
_cell_angle_alpha                 76.3100
_cell_angle_beta                  100.9200
_cell_angle_gamma                 95.7700
loop_
_atom_site_label
_atom_site_type_symbol
_atom_site_fract_x
_atom_site_fract_y
_atom_site_fract_z
_atom_site_U_iso_or_equiv
_atom_site_adp_type
_atom_site_occupancy
C11    C     0.37214   0.39465   0.55632   0.00000  Uiso   1.00
C22    C     0.40717   0.36303   0.54415   0.00000  Uiso   1.00
C33    C     0.45400   0.39248   0.52246   0.00000  Uiso   1.00
N44    N     0.44710   0.44177   0.52512   0.00000  Uiso   1.00
C55    C     0.39749   0.44373   0.54619   0.00000  Uiso   1.00
C66    C     0.37376   0.48687   0.54974   0.00000  Uiso   1.00
C77    C     0.50042   0.68242   0.48061   0.00000  Uiso   1.00
C88    C     0.28851   0.51740   0.31301   0.00000  Uiso   1.00
C99    C     0.23745   0.51774   0.31060   0.00000  Uiso   1.00
C1010  C     0.21438   0.48388   0.55197   0.00000  Uiso   1.00
C1111  C     0.24468   0.44919   0.78876   0.00000  Uiso   1.00
C1212  C     0.29582   0.44912   0.78945   0.00000  Uiso   1.00
C1313  C     0.04174   0.53918   0.24738   0.00000  Uiso   1.00
C1414  C     0.99680   0.52152   0.36733   0.00000  Uiso   1.00
S1515  S     0.06400   0.46077   0.73050   0.00000  Uiso   1.00
C1616  C     0.08134   0.50966   0.42037   0.00000  Uiso   1.00
C1717  C     0.13293   0.51485   0.37712   0.00000  Uiso   1.00
N1818  N     0.16323   0.48256   0.57080   0.00000  Uiso   1.00
C1919  C     0.62786   0.60540   0.44473   0.00000  Uiso   1.00
C2020  C     0.59287   0.63692   0.45657   0.00000  Uiso   1.00
C2121  C     0.54602   0.60750   0.47831   0.00000  Uiso   1.00
N2222  N     0.55294   0.55822   0.47587   0.00000  Uiso   1.00
C2323  C     0.60249   0.55628   0.45497   0.00000  Uiso   1.00
C2424  C     0.62626   0.51309   0.45090   0.00000  Uiso   1.00
C2525  C     0.49956   0.31759   0.51961   0.00000  Uiso   1.00
C2626  C     0.71146   0.48257   0.68721   0.00000  Uiso   1.00
C2727  C     0.76256   0.48221   0.68949   0.00000  Uiso   1.00
C2828  C     0.78562   0.51608   0.44805   0.00000  Uiso   1.00
C2929  C     0.75531   0.55081   0.21133   0.00000  Uiso   1.00
C3030  C     0.70412   0.55087   0.21104   0.00000  Uiso   1.00
C3131  C     0.95822   0.46074   0.75195   0.00000  Uiso   1.00
C3232  C     0.00315   0.47836   0.63199   0.00000  Uiso   1.00
S3333  S     0.93596   0.53914   0.26878   0.00000  Uiso   1.00
C3434  C     0.91864   0.49026   0.57919   0.00000  Uiso   1.00
C3535  C     0.86704   0.48511   0.62270   0.00000  Uiso   1.00
N3636  N     0.83672   0.51737   0.42889   0.00000  Uiso   1.00
C3737  C     0.58845   0.38321   0.43290   0.00000  Uiso   1.00
C3838  C     0.62368   0.42253   0.41750   0.00000  Uiso   1.00
C3939  C     0.60074   0.46567   0.45659   0.00000  Uiso   1.00
N4040  N     0.55141   0.45249   0.48767   0.00000  Uiso   1.00
C4141  C     0.54356   0.40217   0.48118   0.00000  Uiso   1.00
C4242  C     0.49866   0.37240   0.50745   0.00000  Uiso   1.00
C4343  C     0.31899   0.48348   0.55223   0.00000  Uiso   1.00
C4444  C     0.46570   0.29461   0.29833   0.00000  Uiso   1.00
C4545  C     0.46611   0.24341   0.30613   0.00000  Uiso   1.00
C4646  C     0.50056   0.21253   0.53979   0.00000  Uiso   1.00
C4747  C     0.53478   0.23565   0.76128   0.00000  Uiso   1.00
C4848  C     0.53421   0.28683   0.75128   0.00000  Uiso   1.00
C4949  C     0.45560   0.04608   0.26954   0.00000  Uiso   1.00
C5050  C     0.47824   0.99928   0.37803   0.00000  Uiso   1.00
S5151  S     0.53392   0.05930   0.71261   0.00000  Uiso   1.00
C5252  C     0.48185   0.08224   0.42911   0.00000  Uiso   1.00
C5353  C     0.47236   0.13450   0.38968   0.00000  Uiso   1.00
N5454  N     0.50418   0.16085   0.56042   0.00000  Uiso   1.00
C5555  C     0.41151   0.61684   0.56688   0.00000  Uiso   1.00
C5656  C     0.37626   0.57750   0.58232   0.00000  Uiso   1.00
C5757  C     0.39921   0.53435   0.54343   0.00000  Uiso   1.00
N5858  N     0.44856   0.54749   0.51223   0.00000  Uiso   1.00
C5959  C     0.45639   0.59789   0.51865   0.00000  Uiso   1.00
C6060  C     0.50130   0.62761   0.49296   0.00000  Uiso   1.00
C6161  C     0.68102   0.51650   0.44843   0.00000  Uiso   1.00
C6262  C     0.53427   0.70542   0.70183   0.00000  Uiso   1.00
C6363  C     0.53390   0.75662   0.69411   0.00000  Uiso   1.00
C6464  C     0.49947   0.78748   0.46011   0.00000  Uiso   1.00
C6565  C     0.46526   0.76441   0.23859   0.00000  Uiso   1.00
C6666  C     0.46581   0.71320   0.24872   0.00000  Uiso   1.00
C6767  C     0.54453   0.95400   0.72962   0.00000  Uiso   1.00
C6868  C     0.52189   0.00081   0.62097   0.00000  Uiso   1.00
S6969  S     0.46620   0.94078   0.28657   0.00000  Uiso   1.00
C7070  C     0.51825   0.91783   0.57011   0.00000  Uiso   1.00
C7171  C     0.52773   0.86556   0.60991   0.00000  Uiso   1.00
N7272  N     0.49585   0.83920   0.43917   0.00000  Uiso   1.00
Zn737  Zn    0.50000   0.49999   0.50030   0.00000  Uiso   1.00
H7474  H     0.33305   0.38410   0.57422   0.00000  Uiso   1.00
H7575  H     0.40063   0.32301   0.55090   0.00000  Uiso   1.00
H7676  H     0.30508   0.54393   0.11958   0.00000  Uiso   1.00
H7777  H     0.21510   0.54472   0.11781   0.00000  Uiso   1.00
H7878  H     0.22785   0.42255   0.97960   0.00000  Uiso   1.00
H7979  H     0.31862   0.42253   0.98140   0.00000  Uiso   1.00
H8080  H     0.04440   0.57140   0.04362   0.00000  Uiso   1.00
H8181  H     0.14453   0.54655   0.18292   0.00000  Uiso   1.00
H8282  H     0.66696   0.61589   0.42658   0.00000  Uiso   1.00
H8383  H     0.59940   0.67701   0.44976   0.00000  Uiso   1.00
H8484  H     0.69495   0.45602   0.88073   0.00000  Uiso   1.00
H8585  H     0.78490   0.45521   0.88202   0.00000  Uiso   1.00
H8686  H     0.77210   0.57743   0.02053   0.00000  Uiso   1.00
H8787  H     0.68136   0.57749   0.01930   0.00000  Uiso   1.00
H8888  H     0.95557   0.42850   0.95592   0.00000  Uiso   1.00
H8989  H     0.85548   0.45346   0.81736   0.00000  Uiso   1.00
H9090  H     0.59337   0.34546   0.40606   0.00000  Uiso   1.00
H9191  H     0.66161   0.42169   0.37391   0.00000  Uiso   1.00
H9292  H     0.43925   0.31757   0.10798   0.00000  Uiso   1.00
H9393  H     0.43969   0.22729   0.12395   0.00000  Uiso   1.00
H9494  H     0.56191   0.21264   0.94577   0.00000  Uiso   1.00
H9595  H     0.56107   0.30365   0.92745   0.00000  Uiso   1.00
H9696  H     0.42208   0.05255   0.08284   0.00000  Uiso   1.00
H9797  H     0.43839   0.14983   0.21748   0.00000  Uiso   1.00
H9898  H     0.40661   0.65457   0.59369   0.00000  Uiso   1.00
H9999  H     0.33837   0.57835   0.62589   0.00000  Uiso   1.00
H1001  H     0.56073   0.68243   0.89251   0.00000  Uiso   1.00
H1011  H     0.56030   0.77273   0.87626   0.00000  Uiso   1.00
H1021  H     0.43818   0.78740   0.05388   0.00000  Uiso   1.00
H1031  H     0.43895   0.69637   0.07250   0.00000  Uiso   1.00
H1041  H     0.57803   0.94751   0.91638   0.00000  Uiso   1.00
H1051  H     0.56166   0.85022   0.78215   0.00000  Uiso   1.00
loop_
_geom_bond_atom_site_label_1
_geom_bond_atom_site_label_2
_geom_bond_distance
_geom_bond_site_symmetry_2
_ccdc_geom_bond_type
C11    C55     1.441   .     S
C11    C22     1.367   .     D
C11    H7474   1.088   .     S
C22    H7575   1.085   .     S
C22    C33     1.445   .     S
C33    N44     1.382   .     D
C33    C4242   1.403   .     S
N44    C55     1.379   .     S
N44    Zn737   2.035   .     S
C55    C66     1.406   .     D
C66    C4343   1.488   .     S
C66    C5757   1.406   .     S
C77    C6060   1.489   .     S
C77    C6666   1.413   .     S
C77    C6262   1.408   .     D
C88    H7676   1.100   .     S
C88    C99     1.391   .     S
C88    C4343   1.409   .     D
C99    H7777   1.100   .     S
C99    C1010   1.415   .     D
C1010  N1818   1.408   .     S
C1010  C1111   1.413   .     S
C1111  H7878   1.098   .     S
C1111  C1212   1.393   .     D
C1212  H7979   1.099   .     S
C1212  C4343   1.411   .     S
C1313  H8080   1.092   .     S
C1313  C1616   1.398   .     D
C1313  C1414   1.414   1_455 S
C1414  S3333   1.720   .     S
C1414  C1313   1.414   1_655 S
C1414  C3232   1.430   1_655 D
S1515  C1616   1.747   .     S
S1515  C3232   1.720   .     S
C1616  C1717   1.441   .     S
C1717  H8181   1.118   .     S
C1717  N1818   1.301   .     D
C1919  C2020   1.363   .     D
C1919  H8282   1.088   .     S
C1919  C2323   1.442   .     S
C2020  H8383   1.087   .     S
C2020  C2121   1.445   .     S
C2121  C6060   1.404   .     S
C2121  N2222   1.382   .     D
N2222  Zn737   2.036   .     S
N2222  C2323   1.377   .     S
C2323  C2424   1.408   .     D
C2424  C6161   1.488   .     S
C2424  C3939   1.406   .     S
C2525  C4242   1.490   .     S
C2525  C4444   1.408   .     S
C2525  C4848   1.413   .     D
C2626  C2727   1.392   .     D
C2626  H8484   1.100   .     S
C2626  C6161   1.408   .     S
C2727  H8585   1.100   .     S
C2727  C2828   1.415   .     S
C2828  N3636   1.407   .     S
C2828  C2929   1.414   .     D
C2929  C3030   1.395   .     S
C2929  H8686   1.097   .     S
C3030  C6161   1.410   .     D
C3030  H8787   1.098   .     S
C3131  H8888   1.093   .     S
C3131  C3434   1.398   .     D
C3131  C3232   1.414   1_655 S
C3232  C1414   1.430   1_455 D
C3232  C3131   1.414   1_455 S
S3333  C3434   1.747   .     S
C3434  C3535   1.442   .     S
C3535  N3636   1.301   .     D
C3535  H8989   1.118   .     S
C3737  H9090   1.089   .     S
C3737  C3838   1.366   .     D
C3737  C4141   1.443   .     S
C3838  C3939   1.446   .     S
C3838  H9191   1.088   .     S
C3939  N4040   1.380   .     D
N4040  C4141   1.377   .     S
N4040  Zn737   2.020   .     S
C4141  C4242   1.408   .     D
C4444  C4545   1.393   .     D
C4444  H9292   1.098   .     S
C4545  C4646   1.415   .     S
C4545  H9393   1.100   .     S
C4646  N5454   1.407   .     S
C4646  C4747   1.415   .     D
C4747  H9494   1.098   .     S
C4747  C4848   1.391   .     S
C4848  H9595   1.098   .     S
C4949  C5252   1.397   .     D
C4949  H9696   1.094   .     S
C4949  C5050   1.415   1_545 S
C5050  S6969   1.721   .     S
C5050  C4949   1.415   1_565 S
C5050  C6868   1.430   1_565 D
S5151  C5252   1.747   .     S
S5151  C6868   1.721   .     S
C5252  C5353   1.442   .     S
C5353  N5454   1.301   .     D
C5353  H9797   1.119   .     S
C5555  C5959   1.443   .     S
C5555  H9898   1.089   .     S
C5555  C5656   1.366   .     D
C5656  H9999   1.087   .     S
C5656  C5757   1.446   .     S
C5757  N5858   1.380   .     D
N5858  Zn737   2.020   .     S
N5858  C5959   1.379   .     S
C5959  C6060   1.407   .     D
C6262  C6363   1.393   .     S
C6262  H1001   1.100   .     S
C6363  H1011   1.100   .     S
C6363  C6464   1.415   .     D
C6464  C6565   1.415   .     S
C6464  N7272   1.408   .     S
C6565  C6666   1.392   .     D
C6565  H1021   1.097   .     S
C6666  H1031   1.099   .     S
C6767  H1041   1.093   .     S
C6767  C7070   1.397   .     D
C6767  C6868   1.415   1_565 S
C6868  C5050   1.430   1_545 D
C6868  C6767   1.415   1_545 S
S6969  C7070   1.747   .     S
C7070  C7171   1.442   .     S
C7171  N7272   1.302   .     D
C7171  H1051   1.118   .     S
