data_1222
_audit_creation_date              2023-09-08
_audit_creation_method            'Materials Studio'
_symmetry_space_group_name_H-M    'P1'
_symmetry_Int_Tables_number       1
_symmetry_cell_setting            triclinic
loop_
_symmetry_equiv_pos_as_xyz
  x,y,z
_cell_length_a                    43.4000
_cell_length_b                    43.2000
_cell_length_c                    3.6490
_cell_angle_alpha                 90.0000
_cell_angle_beta                  90.0000
_cell_angle_gamma                 120.0000
loop_
_atom_site_label
_atom_site_type_symbol
_atom_site_fract_x
_atom_site_fract_y
_atom_site_fract_z
_atom_site_U_iso_or_equiv
_atom_site_adp_type
_atom_site_occupancy
C11    C     0.48504   0.95082   0.32530   0.00000  Uiso   1.00
C22    C     0.49479   0.92419   0.44905   0.00000  Uiso   1.00
C33    C     0.53090   0.94337   0.58646   0.00000  Uiso   1.00
C44    C     0.43837   0.96020   0.06296   0.00000  Uiso   1.00
C55    C     0.45080   0.93757   0.17442   0.00000  Uiso   1.00
C66    C     0.46543   0.87897   0.47164   0.00000  Uiso   1.00
O77    O     0.54357   0.92174   0.72926   0.00000  Uiso   1.00
N88    N     0.46800   0.84796   0.45399   0.00000  Uiso   1.00
C99    C     0.44291   0.80550   0.46279   0.00000  Uiso   1.00
C1010  C     0.40428   0.78395   0.47854   0.00000  Uiso   1.00
C1111  C     0.38303   0.74365   0.47944   0.00000  Uiso   1.00
C1212  C     0.39712   0.71907   0.46549   0.00000  Uiso   1.00
C1313  C     0.43566   0.74114   0.45023   0.00000  Uiso   1.00
C1414  C     0.45674   0.78105   0.44814   0.00000  Uiso   1.00
C1515  C     0.37371   0.67318   0.46618   0.00000  Uiso   1.00
N1616  N     0.33578   0.65279   0.46578   0.00000  Uiso   1.00
C1717  C     0.31516   0.61472   0.46602   0.00000  Uiso   1.00
N1818  N     0.33557   0.59716   0.46647   0.00000  Uiso   1.00
C1919  C     0.37342   0.61441   0.46687   0.00000  Uiso   1.00
N2020  N     0.39094   0.65243   0.46679   0.00000  Uiso   1.00
C2121  C     0.39587   0.59103   0.46679   0.00000  Uiso   1.00
C2222  C     0.26941   0.59149   0.46630   0.00000  Uiso   1.00
C2323  C     0.24514   0.60589   0.44716   0.00000  Uiso   1.00
C2424  C     0.20499   0.58481   0.44768   0.00000  Uiso   1.00
C2525  C     0.18322   0.54603   0.46854   0.00000  Uiso   1.00
C2626  C     0.20737   0.53190   0.48850   0.00000  Uiso   1.00
C2727  C     0.24713   0.55282   0.48645   0.00000  Uiso   1.00
C2828  C     0.37957   0.55236   0.44476   0.00000  Uiso   1.00
C2929  C     0.39846   0.53140   0.44268   0.00000  Uiso   1.00
C3030  C     0.43665   0.54546   0.46468   0.00000  Uiso   1.00
C3131  C     0.45354   0.58423   0.48750   0.00000  Uiso   1.00
C3232  C     0.43444   0.60535   0.48788   0.00000  Uiso   1.00
N3333  N     0.14085   0.52110   0.47781   0.00000  Uiso   1.00
C3434  C     0.11010   0.52389   0.45467   0.00000  Uiso   1.00
C3535  C     0.06496   0.49447   0.47794   0.00000  Uiso   1.00
C3636  C     0.03856   0.50468   0.59629   0.00000  Uiso   1.00
C3737  C     0.04529   0.45764   0.34889   0.00000  Uiso   1.00
C3838  C     0.05203   0.53936   0.74091   0.00000  Uiso   1.00
C3939  C     0.02977   0.55219   0.85156   0.00000  Uiso   1.00
O4040  O     0.06496   0.44278   0.20491   0.00000  Uiso   1.00
C4141  C     0.99821   0.48132   0.58197   0.00000  Uiso   1.00
C4242  C     0.97875   0.44445   0.45567   0.00000  Uiso   1.00
C4343  C     1.00519   0.43425   0.34620   0.00000  Uiso   1.00
C4444  C     0.99306   0.53095   0.82932   0.00000  Uiso   1.00
C4545  C     0.97752   0.49606   0.70008   0.00000  Uiso   1.00
C4646  C     0.93357   0.41564   0.41805   0.00000  Uiso   1.00
O4747  O     0.99180   0.39934   0.21712   0.00000  Uiso   1.00
N4848  N     0.90273   0.41710   0.49884   0.00000  Uiso   1.00
C4949  C     0.86038   0.39243   0.47701   0.00000  Uiso   1.00
C5050  C     0.83616   0.40589   0.54521   0.00000  Uiso   1.00
C5151  C     0.79640   0.38502   0.53810   0.00000  Uiso   1.00
C5252  C     0.77419   0.34693   0.46799   0.00000  Uiso   1.00
C5353  C     0.79854   0.33315   0.40212   0.00000  Uiso   1.00
C5454  C     0.83868   0.35428   0.40402   0.00000  Uiso   1.00
C5555  C     0.72846   0.32355   0.46647   0.00000  Uiso   1.00
N5656  N     0.70776   0.34078   0.46986   0.00000  Uiso   1.00
C5757  C     0.66987   0.32320   0.47168   0.00000  Uiso   1.00
N5858  N     0.65257   0.28512   0.47283   0.00000  Uiso   1.00
C5959  C     0.67022   0.26477   0.46814   0.00000  Uiso   1.00
N6060  N     0.70810   0.28554   0.46365   0.00000  Uiso   1.00
C6161  C     0.64727   0.34643   0.47065   0.00000  Uiso   1.00
C6262  C     0.64832   0.21898   0.46823   0.00000  Uiso   1.00
C6363  C     0.61357   0.19307   0.49499   0.00000  Uiso   1.00
C664   C     0.60194   0.12909   0.55404   0.00000  Uiso   1.00
C6565  C     0.64290   0.15332   0.43372   0.00000  Uiso   1.00
C6666  C     0.66286   0.19219   0.42051   0.00000  Uiso   1.00
C6767  C     0.66332   0.38486   0.42295   0.00000  Uiso   1.00
C6868  C     0.64441   0.40579   0.41802   0.00000  Uiso   1.00
C6969  C     0.60645   0.39197   0.46416   0.00000  Uiso   1.00
C7070  C     0.58979   0.35345   0.51391   0.00000  Uiso   1.00
C7171  C     0.60889   0.33231   0.51530   0.00000  Uiso   1.00
N7272  N     0.58894   0.41690   0.45041   0.00000  Uiso   1.00
C7373  C     0.55599   0.41496   0.50346   0.00000  Uiso   1.00
C7474  C     0.54037   0.44444   0.48084   0.00000  Uiso   1.00
C7575  C     0.55748   0.48121   0.35328   0.00000  Uiso   1.00
C7676  C     0.54025   0.50440   0.33938   0.00000  Uiso   1.00
C7777  C     0.50359   0.49392   0.45657   0.00000  Uiso   1.00
C7878  C     0.48668   0.45704   0.58504   0.00000  Uiso   1.00
C7979  C     0.50408   0.43402   0.59447   0.00000  Uiso   1.00
C8080  C     0.59279   0.49598   0.23317   0.00000  Uiso   1.00
C8181  C     0.61185   0.53087   0.10380   0.00000  Uiso   1.00
C8282  C     0.59619   0.55204   0.08311   0.00000  Uiso   1.00
C8383  C     0.56117   0.53911   0.19486   0.00000  Uiso   1.00
C8484  C     0.48765   0.52326   0.48068   0.00000  Uiso   1.00
O8585  O     0.48478   0.39918   0.73529   0.00000  Uiso   1.00
O8686  O     0.45202   0.44195   0.72583   0.00000  Uiso   1.00
N8787  N     0.45415   0.52050   0.45495   0.00000  Uiso   1.00
N8888  N     0.57783   0.08780   0.41797   0.00000  Uiso   1.00
C8989  C     0.57051   0.05515   0.57732   0.00000  Uiso   1.00
C9090  C     0.54464   0.01042   0.48246   0.00000  Uiso   1.00
C9191  C     0.50840  -0.00876   0.34450   0.00000  Uiso   1.00
C9292  C     0.55441  -0.01624   0.59907   0.00000  Uiso   1.00
C9393  C     0.49406   0.01235   0.22716   0.00000  Uiso   1.00
C9494  C     0.45957  -0.00295   0.09142   0.00000  Uiso   1.00
O9595  O     0.58876  -0.00312   0.74222   0.00000  Uiso   1.00
C9696  C    -3.41184   0.15701   1.50413   0.00000  Uiso   1.00
H9797  H     0.41194   0.94892  -0.05266   0.00000  Uiso   1.00
H9898  H     0.43316   0.90936   0.13158   0.00000  Uiso   1.00
H9999  H     0.43845   0.87340   0.50637   0.00000  Uiso   1.00
H100100 H     0.56848   0.93603   0.83443   0.00000  Uiso   1.00
H101101 H     0.38972   0.79819   0.48959   0.00000  Uiso   1.00
H102102 H     0.35439   0.73147   0.49194   0.00000  Uiso   1.00
H103103 H     0.45048   0.72713   0.43802   0.00000  Uiso   1.00
H104104 H     0.48539   0.79336   0.43397   0.00000  Uiso   1.00
H105105 H     0.25747   0.63467   0.43049   0.00000  Uiso   1.00
H106106 H     0.19102   0.59962   0.43228   0.00000  Uiso   1.00
H107107 H     0.19498   0.50314   0.50705   0.00000  Uiso   1.00
H108108 H     0.26087   0.53774   0.50302   0.00000  Uiso   1.00
H109109 H     0.35084   0.53735   0.42652   0.00000  Uiso   1.00
H110110 H     0.38219   0.50265   0.42240   0.00000  Uiso   1.00
H111111 H     0.48225   0.59899   0.50451   0.00000  Uiso   1.00
H112112 H     0.45079   0.63413   0.50611   0.00000  Uiso   1.00
H113113 H     0.11581   0.55098   0.41255   0.00000  Uiso   1.00
H114114 H     0.08015   0.55706   0.78039   0.00000  Uiso   1.00
H115115 H     0.04124   0.57895   0.96229   0.00000  Uiso   1.00
H116116 H     0.09164   0.45877   0.22410   0.00000  Uiso   1.00
H117117 H     0.97634   0.54144   0.92068   0.00000  Uiso   1.00
H118118 H     0.94878   0.48039   0.69545   0.00000  Uiso   1.00
H119119 H     0.92795   0.39057   0.29637   0.00000  Uiso   1.00
H120120 H     0.97330   0.38109   0.38866   0.00000  Uiso   1.00
H121121 H     0.84844   0.43407   0.60775   0.00000  Uiso   1.00
H122122 H     0.78261   0.39955   0.59500   0.00000  Uiso   1.00
H123123 H     0.78626   0.30487   0.34396   0.00000  Uiso   1.00
H124124 H     0.85273   0.34001   0.34885   0.00000  Uiso   1.00
H125125 H     0.60350   0.12700   0.85228   0.00000  Uiso   1.00
H126126 H     0.65733   0.13925   0.38660   0.00000  Uiso   1.00
H127127 H     0.69095   0.20460   0.35776   0.00000  Uiso   1.00
H128128 H     0.69186   0.39968   0.38442   0.00000  Uiso   1.00
H129129 H     0.66051   0.43430   0.37574   0.00000  Uiso   1.00
H130130 H     0.56127   0.33892   0.55154   0.00000  Uiso   1.00
H131131 H     0.59275   0.30373   0.55488   0.00000  Uiso   1.00
H132132 H     0.53471   0.38874   0.58259   0.00000  Uiso   1.00
H133133 H     0.60600   0.48036   0.23727   0.00000  Uiso   1.00
H134134 H     0.63900   0.54142   0.01135   0.00000  Uiso   1.00
H135135 H     0.61128   0.57882  -0.02757   0.00000  Uiso   1.00
H136136 H     0.55057   0.55673   0.15590   0.00000  Uiso   1.00
H137137 H     0.50886   0.55030   0.52633   0.00000  Uiso   1.00
H138138 H     0.45998   0.39270   0.82087   0.00000  Uiso   1.00
H139139 H     0.44120   0.45794   0.70598   0.00000  Uiso   1.00
H140140 H     0.58522   0.05832   0.82651   0.00000  Uiso   1.00
H141141 H     0.50980   0.04124   0.23749   0.00000  Uiso   1.00
H142142 H     0.44937   0.01405   0.00010   0.00000  Uiso   1.00
H143143 H     0.60672   0.02160   0.65143   0.00000  Uiso   1.00
H144144 H    -3.43972   0.14858   1.54072   0.00000  Uiso   1.00
loop_
_geom_bond_atom_site_label_1
_geom_bond_atom_site_label_2
_geom_bond_distance
_geom_bond_site_symmetry_2
_ccdc_geom_bond_type
C11    C22     1.481   .     D
C11    C55     1.410   .     S
C11    C9191   1.520   1_565 S
C22    C33     1.448   .     S
C22    C66     1.720   .     S
C33    O77     1.400   .     S
C33    C9292   1.519   1_565 D
C44    C55     1.393   .     D
C44    H9797   1.083   .     S
C44    C9494   1.388   1_565 S
C55    H9898   1.078   .     S
C66    N88     1.400   .     D
C66    H9999   1.079   .     S
O77    H100100  1.015   .     S
N88    C99     1.598   .     S
C99    C1010   1.456   .     D
C99    C1414   1.454   .     S
C1010  C1111   1.509   .     S
C1010  H101101  1.081   .     S
C1111  C1212   1.467   .     D
C1111  H102102  1.082   .     S
C1212  C1313   1.454   .     S
C1212  C1515   1.717   .     S
C1313  C1414   1.494   .     D
C1313  H103103  1.082   .     S
C1414  H104104  1.082   .     S
C1515  N1616   1.427   .     S
C1515  N2020   1.426   .     D
N1616  C1717   1.426   .     D
C1717  N1818   1.426   .     S
C1717  C2222   1.720   .     S
N1818  C1919   1.425   .     D
C1919  N2020   1.424   .     S
C1919  C2121   1.719   .     S
C2121  C2828   1.455   .     D
C2121  C3232   1.468   .     S
C2222  C2323   1.469   .     D
C2222  C2727   1.455   .     S
C2323  C2424   1.510   .     S
C2323  H105105  1.082   .     S
C2424  C2525   1.457   .     D
C2424  H106106  1.081   .     S
C2525  C2626   1.455   .     S
C2525  N3333   1.601   .     S
C2626  C2727   1.495   .     D
C2626  H107107  1.081   .     S
C2727  H108108  1.083   .     S
C2828  C2929   1.495   .     S
C2828  H109109  1.082   .     S
C2929  C3030   1.455   .     D
C2929  H110110  1.082   .     S
C3030  C3131   1.457   .     S
C3030  N8787   1.600   .     S
C3131  C3232   1.509   .     D
C3131  H111111  1.081   .     S
C3232  H112112  1.082   .     S
N3333  C3434   1.401   .     D
C3434  C3535   1.724   .     S
C3434  H113113  1.079   .     S
C3535  C3636   1.483   .     D
C3535  C3737   1.457   .     S
C3636  C3838   1.410   .     S
C3636  C4141   1.523   1_455 S
C3737  O4040   1.402   .     S
C3737  C4343   1.514   1_455 D
C3838  C3939   1.392   .     D
C3838  H114114  1.078   .     S
C3939  H115115  1.083   .     S
C3939  C4444   1.387   1_455 S
O4040  H116116  1.011   .     S
C4141  C4242   1.455   .     D
C4141  C4545   1.403   .     S
C4141  C3636   1.523   1_655 S
C4242  C4343   1.475   .     S
C4242  C4646   1.724   .     S
C4343  O4747   1.399   .     S
C4343  C3737   1.514   1_655 D
C4444  C4545   1.390   .     D
C4444  H117117  1.083   .     S
C4444  C3939   1.387   1_655 S
C4545  H118118  1.082   .     S
C4646  N4848   1.402   .     D
C4646  H119119  1.080   .     S
O4747  H120120  1.012   .     S
N4848  C4949   1.600   .     S
C4949  C5050   1.455   .     D
C4949  C5454   1.457   .     S
C5050  C5151   1.495   .     S
C5050  H121121  1.081   .     S
C5151  C5252   1.455   .     D
C5151  H122122  1.082   .     S
C5252  C5353   1.469   .     S
C5252  C5555   1.719   .     S
C5353  C5454   1.509   .     D
C5353  H123123  1.082   .     S
C5454  H124124  1.081   .     S
C5555  N5656   1.425   .     S
C5555  N6060   1.423   .     D
N5656  C5757   1.426   .     D
C5757  N5858   1.426   .     S
C5757  C6161   1.719   .     S
N5858  C5959   1.426   .     D
C5959  N6060   1.426   .     S
C5959  C6262   1.714   .     S
C6161  C6767   1.454   .     D
C6161  C7171   1.469   .     S
C6262  C6363   1.360   .     D
C6262  C6666   1.581   .     S
C6363  C9696   1.388   1_954 D
C664   C6565   1.609   .     S
C664   N8888   1.630   .     S
C664   H125125  1.097   .     S
C664   C9696   1.602   1_954 S
C6565  C6666   1.455   .     D
C6565  H126126  1.083   .     S
C6666  H127127  1.083   .     S
C6767  C6868   1.494   .     S
C6767  H128128  1.082   .     S
C6868  C6969   1.454   .     D
C6868  H129129  1.081   .     S
C6969  C7070   1.457   .     S
C6969  N7272   1.599   .     S
C7070  C7171   1.509   .     D
C7070  H130130  1.081   .     S
C7171  H131131  1.082   .     S
N7272  C7373   1.403   .     D
C7373  C7474   1.718   .     S
C7373  H132132  1.083   .     S
C7474  C7575   1.453   .     D
C7474  C7979   1.465   .     S
C7575  C7676   1.521   .     S
C7575  C8080   1.404   .     S
C7676  C7777   1.483   .     D
C7676  C8383   1.410   .     S
C7777  C7878   1.459   .     S
C7777  C8484   1.723   .     S
C7878  C7979   1.520   .     D
C7878  O8686   1.404   .     S
C7979  O8585   1.404   .     S
C8080  C8181   1.390   .     D
C8080  H133133  1.082   .     S
C8181  C8282   1.388   .     S
C8181  H134134  1.083   .     S
C8282  C8383   1.393   .     D
C8282  H135135  1.083   .     S
C8383  H136136  1.078   .     S
C8484  N8787   1.401   .     D
C8484  H137137  1.079   .     S
O8585  H138138  1.016   .     S
O8686  H139139  1.014   .     S
N8888  C8989   1.407   .     D
C8989  C9090   1.716   .     S
C8989  H140140  1.080   .     S
C9090  C9191   1.453   .     D
C9090  C9292   1.475   .     S
C9191  C9393   1.404   .     S
C9191  C11     1.520   1_545 S
C9292  O9595   1.404   .     S
C9292  C33     1.519   1_545 D
C9393  C9494   1.390   .     D
C9393  H141141  1.083   .     S
C9494  H142142  1.082   .     S
C9494  C44     1.388   1_545 S
O9595  H143143  1.013   .     S
C9696  H144144  1.083   .     S
C9696  C6363   1.388   1_156 D
C9696  C664    1.602   1_156 S
