data_1223
_audit_creation_date              2023-09-08
_audit_creation_method            'Materials Studio'
_symmetry_space_group_name_H-M    'P1'
_symmetry_Int_Tables_number       1
_symmetry_cell_setting            triclinic
loop_
_symmetry_equiv_pos_as_xyz
  x,y,z
_cell_length_a                    15.3900
_cell_length_b                    3.2800
_cell_length_c                    14.4800
_cell_angle_alpha                 90.0000
_cell_angle_beta                  120.0000
_cell_angle_gamma                 90.0000
loop_
_atom_site_label
_atom_site_type_symbol
_atom_site_fract_x
_atom_site_fract_y
_atom_site_fract_z
_atom_site_U_iso_or_equiv
_atom_site_adp_type
_atom_site_occupancy
N11    N     0.48134   0.51644   0.45564   0.00000  Uiso   1.00
C22    C     0.19877   0.51644   0.62360   0.00000  Uiso   1.00
C33    C     0.38328   0.51644   0.75967   0.00000  Uiso   1.00
C44    C     0.33184   0.51644   0.57101   0.00000  Uiso   1.00
C55    C     0.46218   0.51644   0.86826   0.00000  Uiso   1.00
H66    H     0.54377   0.51644   0.88800   0.00000  Uiso   1.00
C77    C     0.09257   0.51644   0.59569   0.00000  Uiso   1.00
H88    H     0.07227   0.51644   0.66138   0.00000  Uiso   1.00
N99    N     0.02392   0.51644   0.50035   0.00000  Uiso   1.00
C1010  C     0.57458   0.51644   0.48078   0.00000  Uiso   1.00
H1111  H     0.63598   0.51644   0.56822   0.00000  Uiso   1.00
N1212  N     0.49612   0.51644   0.03264   0.00000  Uiso   1.00
C1313  C     0.65645   0.51644   0.23880   0.00000  Uiso   1.00
O1414  O     0.67606   0.51644   0.18086   0.00000  Uiso   1.00
C1515  C     0.70818   0.51644   0.42853   0.00000  Uiso   1.00
C1616  C     0.52263   0.51644   0.29170   0.00000  Uiso   1.00
O1717  O     0.44635   0.51644   0.27165   0.00000  Uiso   1.00
O1818  O     0.16887   0.51644   0.46457   0.00000  Uiso   1.00
N1919  N     0.45238   0.51644   0.51547   0.00000  Uiso   1.00
C2020  C     0.73495   0.51644   0.34750   0.00000  Uiso   1.00
C2121  C     0.55044   0.51644   0.21144   0.00000  Uiso   1.00
C2222  C     0.60188   0.51644   0.40010   0.00000  Uiso   1.00
C2323  C     0.47154   0.51644   0.10284   0.00000  Uiso   1.00
H2424  H     0.38995   0.51644   0.08310   0.00000  Uiso   1.00
C2525  C     0.84115   0.51644   0.37541   0.00000  Uiso   1.00
H2626  H     0.86145   0.51644   0.30972   0.00000  Uiso   1.00
N2727  N     0.90980   0.51644   0.47075   0.00000  Uiso   1.00
C2828  C     0.35914   0.51644   0.49033   0.00000  Uiso   1.00
H2929  H     0.29774   0.51644   0.40288   0.00000  Uiso   1.00
N3030  N     0.43760   0.51644   0.93846   0.00000  Uiso   1.00
C3131  C     0.27727   0.51644   0.73230   0.00000  Uiso   1.00
O3232  O     0.25766   0.51644   0.79025   0.00000  Uiso   1.00
C3333  C     0.22554   0.51644   0.54257   0.00000  Uiso   1.00
C3434  C     0.41109   0.51644   0.67941   0.00000  Uiso   1.00
O3535  O     0.48737   0.51644   0.69945   0.00000  Uiso   1.00
O3636  O     0.76485   0.51644   0.50653   0.00000  Uiso   1.00
H3737  H     0.49003   0.75804   0.56813   0.00000  Uiso   1.00
H3838  H     0.38575   0.74689   0.92565   0.00000  Uiso   1.00
H3939  H     1.01663   0.72331   1.45691   0.00000  Uiso   1.00
H4040  H     0.44369   0.75804   0.40297   0.00000  Uiso   1.00
H4141  H     0.54797   0.74689   0.04545   0.00000  Uiso   1.00
H4242  H     0.90059   0.30957   0.51984   0.00000  Uiso   1.00
loop_
_geom_bond_atom_site_label_1
_geom_bond_atom_site_label_2
_geom_bond_distance
_geom_bond_site_symmetry_2
_ccdc_geom_bond_type
N11    C1010   1.292   .     S
N11    N1919   1.156   .     S
N11    H4040   1.050   .     S
C22    C77     1.474   .     D
C22    C3131   1.427   .     S
C22    C3333   1.425   .     S
C33    C55     1.427   .     D
C33    C3131   1.474   .     S
C33    C3434   1.425   .     S
C44    C2828   1.426   .     D
C44    C3333   1.474   .     S
C44    C3434   1.427   .     S
C55    H66     1.140   .     S
C55    N3030   1.249   .     S
C77    H88     1.140   .     S
C77    N99     1.250   .     S
N99    N2727   1.586   1_455 S
N99    H3939   0.893   1_454 S
C1010  H1111   1.140   .     S
C1010  C2222   1.426   .     D
N1212  C2323   1.249   .     S
N1212  H4141   1.046   .     S
N1212  N3030   1.201   1_554 S
C1313  O1414   1.024   .     D
C1313  C2020   1.427   .     S
C1313  C2121   1.474   .     S
C1515  C2020   1.425   .     S
C1515  C2222   1.474   .     S
C1515  O3636   1.025   .     D
C1616  O1717   1.059   .     D
C1616  C2121   1.425   .     S
C1616  C2222   1.427   .     S
O1818  C3333   1.025   .     D
N1919  C2828   1.292   .     S
N1919  H3737   1.050   .     S
C2020  C2525   1.474   .     D
C2121  C2323   1.428   .     D
C2323  H2424   1.140   .     S
C2525  H2626   1.140   .     S
C2525  N2727   1.250   .     S
N2727  H4242   1.042   .     S
N2727  N99     1.586   1_655 S
C2828  H2929   1.140   .     S
N3030  H3838   1.046   .     S
N3030  N1212   1.201   1_556 S
C3131  O3232   1.024   .     D
C3434  O3535   1.059   .     D
H3939  N99     0.893   1_656 S
