data_1224
_audit_creation_date              2023-09-08
_audit_creation_method            'Materials Studio'
_symmetry_space_group_name_H-M    'P1'
_symmetry_Int_Tables_number       1
_symmetry_cell_setting            triclinic
loop_
_symmetry_equiv_pos_as_xyz
  x,y,z
_cell_length_a                    24.5200
_cell_length_b                    3.7900
_cell_length_c                    24.5200
_cell_angle_alpha                 90.0000
_cell_angle_beta                  88.9200
_cell_angle_gamma                 90.0000
loop_
_atom_site_label
_atom_site_type_symbol
_atom_site_fract_x
_atom_site_fract_y
_atom_site_fract_z
_atom_site_U_iso_or_equiv
_atom_site_adp_type
_atom_site_occupancy
H1     H     0.04498   0.00000   0.00980   0.00000  Uiso   1.00
C2     C     0.07987   0.00000   0.41332   0.00000  Uiso   1.00
C3     C     0.16597   0.00000   0.06219   0.00000  Uiso   1.00
C4     C     0.42882   0.00000   0.90539   0.00000  Uiso   1.00
C5     C     0.06806   0.00000   0.83588   0.00000  Uiso   1.00
C6     C     0.86818   0.00000   0.98461   0.00000  Uiso   1.00
C7     C     0.92212   0.00000   0.90816   0.00000  Uiso   1.00
C8     C     0.86617   0.00000   0.89278   0.00000  Uiso   1.00
N9     N     0.92125   0.00000   0.96464   0.00000  Uiso   1.00
C10    C     0.96377   0.00000   0.86696   0.00000  Uiso   1.00
C11    C     0.94180   0.00000   0.80912   0.00000  Uiso   1.00
C12    C     0.98474   0.00000   0.77212   0.00000  Uiso   1.00
C13    C     0.98255   0.00000   0.71687   0.00000  Uiso   1.00
C14    C     0.93214   0.00000   0.69002   0.00000  Uiso   1.00
C15    C     0.88568   0.00000   0.72376   0.00000  Uiso   1.00
C16    C     0.89048   0.00000   0.78045   0.00000  Uiso   1.00
N17    N     0.93910   0.00000   0.63500   0.00000  Uiso   1.00
C18    C     0.96148   0.00000   0.54379   0.00000  Uiso   1.00
C19    C     0.01923   0.00000   0.55354   0.00000  Uiso   1.00
C20    C     0.05615   0.00000   0.51028   0.00000  Uiso   1.00
O21    O     0.04367   0.00000   0.60308   0.00000  Uiso   1.00
H22    H     0.01557   0.00000   0.63170   0.00000  Uiso   1.00
H23    H     0.02159   0.00000   0.69545   0.00000  Uiso   1.00
H24    H     0.02360   0.00000   0.78934   0.00000  Uiso   1.00
H25    H     0.84458   0.00000   0.70597   0.00000  Uiso   1.00
H26    H     0.84984   0.00000   0.79815   0.00000  Uiso   1.00
H27    H     0.87557   0.00000   0.57479   0.00000  Uiso   1.00
H28    H     0.09995   0.00000   0.51935   0.00000  Uiso   1.00
H29    H     0.07675   0.00000   0.79228   0.00000  Uiso   1.00
H30    H     0.15163   0.00000   0.83839   0.00000  Uiso   1.00
C31    C     0.97695   0.00000   0.12288   0.00000  Uiso   1.00
C32    C     0.89550   0.00000   0.07974   0.00000  Uiso   1.00
C33    C     0.88464   0.00000   0.13721   0.00000  Uiso   1.00
N34    N     0.95204   0.00000   0.07263   0.00000  Uiso   1.00
C35    C     0.85193   0.00000   0.04084   0.00000  Uiso   1.00
C36    C     0.79194   0.00000   0.05662   0.00000  Uiso   1.00
C37    C     0.74779   0.00000   0.01873   0.00000  Uiso   1.00
C38    C     0.69245   0.00000   0.03129   0.00000  Uiso   1.00
C39    C     0.67389   0.00000   0.08564   0.00000  Uiso   1.00
C40    C     0.71618   0.00000   0.12452   0.00000  Uiso   1.00
C41    C     0.77092   0.00000   0.11087   0.00000  Uiso   1.00
N42    N     0.62188   0.00000   0.10766   0.00000  Uiso   1.00
C43    C     0.53807   0.00000   0.04426   0.00000  Uiso   1.00
C44    C     0.55608   0.00000   0.98978   0.00000  Uiso   1.00
C45    C     0.51886   0.00000   0.94714   0.00000  Uiso   1.00
H46    H     0.59952   0.00000   0.97991   0.00000  Uiso   1.00
H47    H     0.66438   0.00000   0.99662   0.00000  Uiso   1.00
H48    H     0.75356   0.00000   0.97523   0.00000  Uiso   1.00
H49    H     0.70544   0.00000   0.16803   0.00000  Uiso   1.00
H50    H     0.79541   0.00000   0.14721   0.00000  Uiso   1.00
H51    H     0.54231   0.00000   0.13080   0.00000  Uiso   1.00
H52    H     0.53429   0.00000   0.90497   0.00000  Uiso   1.00
H53    H     0.79052   0.00000   0.93211   0.00000  Uiso   1.00
H54    H     0.84690   0.00000   0.85385   0.00000  Uiso   1.00
H55    H     0.95502   0.00000   0.99020   0.00000  Uiso   1.00
C56    C     0.92013   0.00000   0.58668   0.00000  Uiso   1.00
C57    C     0.83403   0.00000   0.93781   0.00000  Uiso   1.00
C58    C     0.57118   0.00000   0.09461   0.00000  Uiso   1.00
C59    C     0.93194   0.00000   0.16412   0.00000  Uiso   1.00
C60    C     0.13182   0.00000   0.01539   0.00000  Uiso   1.00
C61    C     0.07788   0.00000   0.09184   0.00000  Uiso   1.00
C62    C     0.13383   0.00000   0.10722   0.00000  Uiso   1.00
N63    N     0.07875   0.00000   0.03536   0.00000  Uiso   1.00
C64    C     0.03623   0.00000   0.13304   0.00000  Uiso   1.00
C65    C     0.05820   0.00000   0.19088   0.00000  Uiso   1.00
C66    C     0.01526   0.00000   0.22788   0.00000  Uiso   1.00
C67    C     0.01745   0.00000   0.28313   0.00000  Uiso   1.00
C68    C     0.06786   0.00000   0.30998   0.00000  Uiso   1.00
C69    C     0.11432   0.00000   0.27624   0.00000  Uiso   1.00
C70    C     0.10952   0.00000   0.21955   0.00000  Uiso   1.00
N71    N     0.06090   0.00000   0.36500   0.00000  Uiso   1.00
C72    C     0.03852   0.00000   0.45621   0.00000  Uiso   1.00
C73    C     0.98077   0.00000   0.44646   0.00000  Uiso   1.00
C74    C     0.94385   0.00000   0.48972   0.00000  Uiso   1.00
O75    O     0.95633   0.00000   0.39692   0.00000  Uiso   1.00
H76    H     0.98443   0.00000   0.36830   0.00000  Uiso   1.00
H77    H     0.97841   0.00000   0.30455   0.00000  Uiso   1.00
H78    H     0.97640   0.00000   0.21066   0.00000  Uiso   1.00
H79    H     0.15542   0.00000   0.29403   0.00000  Uiso   1.00
H80    H     0.15016   0.00000   0.20185   0.00000  Uiso   1.00
H81    H     0.12443   0.00000   0.42521   0.00000  Uiso   1.00
H82    H     0.90005   0.00000   0.48065   0.00000  Uiso   1.00
H83    H     0.92325   0.00000   0.20772   0.00000  Uiso   1.00
H84    H     0.84837   0.00000   0.16161   0.00000  Uiso   1.00
C85    C     0.02305   0.00000   0.87712   0.00000  Uiso   1.00
C86    C     0.10450   0.00000   0.92026   0.00000  Uiso   1.00
C87    C     0.11536   0.00000   0.86279   0.00000  Uiso   1.00
N88    N     0.04796   0.00000   0.92737   0.00000  Uiso   1.00
C89    C     0.14807   0.00000   0.95916   0.00000  Uiso   1.00
C90    C     0.20806   0.00000   0.94338   0.00000  Uiso   1.00
C91    C     0.25221   0.00000   0.98127   0.00000  Uiso   1.00
C92    C     0.30755   0.00000   0.96871   0.00000  Uiso   1.00
C93    C     0.32611   0.00000   0.91436   0.00000  Uiso   1.00
C94    C     0.28382   0.00000   0.87548   0.00000  Uiso   1.00
C95    C     0.22908   0.00000   0.88913   0.00000  Uiso   1.00
N96    N     0.37812   0.00000   0.89234   0.00000  Uiso   1.00
C97    C     0.46193   0.00000   0.95574   0.00000  Uiso   1.00
C98    C     0.44392   0.00000   0.01022   0.00000  Uiso   1.00
C99    C     0.48114   0.00000   0.05286   0.00000  Uiso   1.00
H100   H     0.40048   0.00000   0.02009   0.00000  Uiso   1.00
H101   H     0.33562   0.00000   0.00338   0.00000  Uiso   1.00
H102   H     0.24644   0.00000   0.02477   0.00000  Uiso   1.00
H103   H     0.29456   0.00000   0.83197   0.00000  Uiso   1.00
H104   H     0.20459   0.00000   0.85279   0.00000  Uiso   1.00
H105   H     0.45769   0.00000   0.86920   0.00000  Uiso   1.00
H106   H     0.46571   0.00000   0.09503   0.00000  Uiso   1.00
H107   H     0.20948   0.00000   0.06789   0.00000  Uiso   1.00
H108   H     0.15310   0.00000   0.14615   0.00000  Uiso   1.00
loop_
_geom_bond_atom_site_label_1
_geom_bond_atom_site_label_2
_geom_bond_distance
_geom_bond_site_symmetry_2
_ccdc_geom_bond_type
H1     N63     1.048   .     S
C2     N71     1.281   .     D
C2     H81     1.136   .     S
C2     C72     1.447   .     S
C3     C60     1.433   .     D
C3     C62     1.344   .     S
C3     H107    1.079   .     S
C4     C97     1.490   .     S
C4     H105    1.125   .     S
C4     N96     1.290   .     D
C5     H29     1.086   .     S
C5     C85     1.483   .     S
C5     C87     1.345   .     D
C6     N9      1.382   .     S
C6     C57     1.433   .     S
C6     C35     1.428   1_556 D
C7     C8      1.430   .     S
C7     N9      1.385   .     S
C7     C10     1.423   .     D
C8     H54     1.073   .     S
C8     C57     1.344   .     D
N9     H55     1.048   .     S
C10    C11     1.527   .     S
C10    C85     1.479   1_655 S
C11    C12     1.377   .     S
C11    C16     1.453   .     D
C12    C13     1.357   .     D
C12    H24     1.049   1_655 S
C13    C14     1.411   .     S
C13    H23     1.083   1_655 S
C14    C15     1.395   .     D
C14    N17     1.357   .     S
C15    C16     1.397   .     S
C15    H25     1.106   .     S
C16    H26     1.079   .     S
N17    C56     1.281   .     D
C18    C56     1.447   .     S
C18    C74     1.402   .     S
C18    C19     1.441   1_655 D
C19    C20     1.381   .     S
C19    O21     1.365   .     S
C19    C18     1.441   1_455 D
C20    H28     1.101   .     S
C20    C72     1.402   .     D
O21    H22     0.974   .     S
H23    C13     1.083   1_455 S
H24    C12     1.049   1_455 S
H27    C56     1.136   .     S
H30    C87     1.062   .     S
C31    N34     1.385   .     S
C31    C59     1.483   .     S
C31    C64     1.479   1_655 D
C32    C33     1.429   .     S
C32    N34     1.394   .     D
C32    C35     1.446   .     S
C33    C59     1.345   .     D
C33    H84     1.062   .     S
C35    C36     1.514   .     S
C35    C6      1.428   1_554 D
C36    C37     1.440   .     S
C36    C41     1.417   .     D
C37    C38     1.386   .     D
C37    H48     1.073   1_554 S
C38    C39     1.400   .     S
C38    H47     1.104   1_554 S
C39    C40     1.422   .     D
C39    N42     1.375   .     S
C40    C41     1.377   .     S
C40    H49     1.094   .     S
C41    H50     1.084   .     S
N42    C58     1.290   .     D
C43    C58     1.490   .     S
C43    C99     1.408   .     D
C43    C44     1.399   1_554 S
C44    C45     1.401   .     D
C44    H46     1.088   .     S
C44    C43     1.399   1_556 S
C45    H52     1.094   .     S
C45    C97     1.408   .     S
H47    C38     1.104   1_556 S
H48    C37     1.073   1_556 S
H51    C58     1.125   .     S
H53    C57     1.079   .     S
C59    H83     1.086   .     S
C60    N63     1.382   .     S
C60    C89     1.428   1_554 S
C61    C62     1.430   .     D
C61    N63     1.385   .     S
C61    C64     1.423   .     S
C62    H108    1.073   .     S
C64    C65     1.527   .     S
C64    C31     1.479   1_455 D
C65    C66     1.377   .     S
C65    C70     1.453   .     D
C66    C67     1.357   .     D
C66    H78     1.049   1_455 S
C67    C68     1.411   .     S
C67    H77     1.083   1_455 S
C68    C69     1.395   .     D
C68    N71     1.357   .     S
C69    C70     1.397   .     S
C69    H79     1.106   .     S
C70    H80     1.079   .     S
C72    C73     1.441   1_455 S
C73    C74     1.381   .     D
C73    O75     1.365   .     S
C73    C72     1.441   1_655 S
C74    H82     1.101   .     S
O75    H76     0.974   .     S
H77    C67     1.083   1_655 S
H78    C66     1.049   1_655 S
C85    N88     1.385   .     D
C85    C10     1.479   1_455 S
C86    C87     1.429   .     S
C86    N88     1.394   .     S
C86    C89     1.446   .     D
C89    C90     1.514   .     S
C89    C60     1.428   1_556 S
C90    C91     1.440   .     S
C90    C95     1.417   .     D
C91    C92     1.386   .     D
C91    H102    1.073   1_556 S
C92    C93     1.400   .     S
C92    H101    1.104   1_556 S
C93    C94     1.422   .     D
C93    N96     1.375   .     S
C94    C95     1.377   .     S
C94    H103    1.094   .     S
C95    H104    1.084   .     S
C97    C98     1.399   1_556 D
C98    C99     1.401   .     S
C98    H100    1.088   .     S
C98    C97     1.399   1_554 D
C99    H106    1.094   .     S
H101   C92     1.104   1_554 S
H102   C91     1.073   1_554 S
