data_1225
_audit_creation_date              2023-09-08
_audit_creation_method            'Materials Studio'
_symmetry_space_group_name_H-M    'P1'
_symmetry_Int_Tables_number       1
_symmetry_cell_setting            triclinic
loop_
_symmetry_equiv_pos_as_xyz
  x,y,z
_cell_length_a                    59.3600
_cell_length_b                    59.3600
_cell_length_c                    3.5200
_cell_angle_alpha                 90.0000
_cell_angle_beta                  90.0000
_cell_angle_gamma                 120.0000
loop_
_atom_site_label
_atom_site_type_symbol
_atom_site_fract_x
_atom_site_fract_y
_atom_site_fract_z
_atom_site_U_iso_or_equiv
_atom_site_adp_type
_atom_site_occupancy
C1     C     0.01436   0.50810   0.50000   0.00000  Uiso   1.00
C2     C     0.02994   0.49657   0.50000   0.00000  Uiso   1.00
C3     C     0.05697   0.51217   0.50000   0.00000  Uiso   1.00
N4     N     0.06855   0.53866   0.50000   0.00000  Uiso   1.00
C5     C     0.05358   0.55018   0.50000   0.00000  Uiso   1.00
C6     C     0.02650   0.53526   0.50000   0.00000  Uiso   1.00
C7     C     0.09656   0.55446   0.50000   0.00000  Uiso   1.00
C8     C     0.11224   0.54290   0.50000   0.00000  Uiso   1.00
C9     C     0.13932   0.55818   0.50000   0.00000  Uiso   1.00
C10    C     0.15123   0.58533   0.50000   0.00000  Uiso   1.00
C11    C     0.13587   0.59704   0.50000   0.00000  Uiso   1.00
C12    C     0.10878   0.58176   0.50000   0.00000  Uiso   1.00
C13    C     0.17959   0.60183   0.50000   0.00000  Uiso   1.00
N14    N     0.19467   0.59189   0.50000   0.00000  Uiso   1.00
C15    C     0.22244   0.60733   0.50000   0.00000  Uiso   1.00
C16    C     0.23710   0.59485   0.50000   0.00000  Uiso   1.00
C17    C     0.26424   0.60937   0.50000   0.00000  Uiso   1.00
C18    C     0.27718   0.63665   0.50000   0.00000  Uiso   1.00
C19    C     0.26237   0.64911   0.50000   0.00000  Uiso   1.00
C20    C     0.23525   0.63460   0.50000   0.00000  Uiso   1.00
C21    C     0.30594   0.65203   0.50000   0.00000  Uiso   1.00
C22    C     0.32073   0.63959   0.50000   0.00000  Uiso   1.00
H23    H     0.02056   0.47449   0.50000   0.00000  Uiso   1.00
H24    H     0.06971   0.50284   0.50000   0.00000  Uiso   1.00
H25    H     0.06319   0.57228   0.50000   0.00000  Uiso   1.00
H26    H     0.01431   0.54520   0.50000   0.00000  Uiso   1.00
H27    H     0.10287   0.52082   0.50000   0.00000  Uiso   1.00
H28    H     0.15180   0.54855   0.50000   0.00000  Uiso   1.00
H29    H     0.14542   0.61914   0.50000   0.00000  Uiso   1.00
H30    H     0.09631   0.59140   0.50000   0.00000  Uiso   1.00
H31    H     0.18882   0.62389   0.50000   0.00000  Uiso   1.00
H32    H     0.22692   0.57271   0.50000   0.00000  Uiso   1.00
H33    H     0.27609   0.59908   0.50000   0.00000  Uiso   1.00
H34    H     0.27249   0.67124   0.50000   0.00000  Uiso   1.00
H35    H     0.22341   0.64491   0.50000   0.00000  Uiso   1.00
H36    H     0.31062   0.61746   0.50000   0.00000  Uiso   1.00
C37    C     0.49190   0.50626   0.50000   0.00000  Uiso   1.00
C38    C     0.50343   0.53337   0.50000   0.00000  Uiso   1.00
C39    C     0.48783   0.54480   0.50000   0.00000  Uiso   1.00
N40    N     0.46134   0.52989   0.50000   0.00000  Uiso   1.00
C41    C     0.44982   0.50340   0.50000   0.00000  Uiso   1.00
C42    C     0.46474   0.49124   0.50000   0.00000  Uiso   1.00
C43    C     0.44554   0.54210   0.50000   0.00000  Uiso   1.00
C44    C     0.45710   0.56934   0.50000   0.00000  Uiso   1.00
C45    C     0.44182   0.58114   0.50000   0.00000  Uiso   1.00
C46    C     0.41467   0.56590   0.50000   0.00000  Uiso   1.00
C47    C     0.40296   0.53883   0.50000   0.00000  Uiso   1.00
C48    C     0.41824   0.52702   0.50000   0.00000  Uiso   1.00
C49    C     0.39817   0.57776   0.50000   0.00000  Uiso   1.00
N50    N     0.40811   0.60278   0.50000   0.00000  Uiso   1.00
C51    C     0.39267   0.61511   0.50000   0.00000  Uiso   1.00
C52    C     0.40515   0.64225   0.50000   0.00000  Uiso   1.00
C53    C     0.39063   0.65487   0.50000   0.00000  Uiso   1.00
C54    C     0.36335   0.64053   0.50000   0.00000  Uiso   1.00
C55    C     0.35089   0.61326   0.50000   0.00000  Uiso   1.00
C56    C     0.36540   0.60065   0.50000   0.00000  Uiso   1.00
C57    C     0.34797   0.65391   0.50000   0.00000  Uiso   1.00
C58    C     0.36041   0.68114   0.50000   0.00000  Uiso   1.00
H59    H     0.52551   0.54607   0.50000   0.00000  Uiso   1.00
H60    H     0.49716   0.56687   0.50000   0.00000  Uiso   1.00
H61    H     0.42772   0.49091   0.50000   0.00000  Uiso   1.00
H62    H     0.45480   0.46911   0.50000   0.00000  Uiso   1.00
H63    H     0.47918   0.58205   0.50000   0.00000  Uiso   1.00
H64    H     0.45145   0.60325   0.50000   0.00000  Uiso   1.00
H65    H     0.38086   0.52628   0.50000   0.00000  Uiso   1.00
H66    H     0.40860   0.50491   0.50000   0.00000  Uiso   1.00
H67    H     0.37611   0.56493   0.50000   0.00000  Uiso   1.00
H68    H     0.42729   0.65421   0.50000   0.00000  Uiso   1.00
H69    H     0.40092   0.67701   0.50000   0.00000  Uiso   1.00
H70    H     0.32876   0.60125   0.50000   0.00000  Uiso   1.00
H71    H     0.35509   0.57850   0.50000   0.00000  Uiso   1.00
H72    H     0.38254   0.69316   0.50000   0.00000  Uiso   1.00
C73    C     0.49374   0.98564   0.50000   0.00000  Uiso   1.00
C74    C     0.46663   0.97006   0.50000   0.00000  Uiso   1.00
C75    C     0.45520   0.94303   0.50000   0.00000  Uiso   1.00
N76    N     0.47011   0.93145   0.50000   0.00000  Uiso   1.00
C77    C     0.49660   0.94642   0.50000   0.00000  Uiso   1.00
C78    C     0.50876   0.97350   0.50000   0.00000  Uiso   1.00
C79    C     0.45790   0.90344   0.50000   0.00000  Uiso   1.00
C80    C     0.43066   0.88776   0.50000   0.00000  Uiso   1.00
C81    C     0.41886   0.86068   0.50000   0.00000  Uiso   1.00
C82    C     0.43410   0.84877   0.50000   0.00000  Uiso   1.00
C83    C     0.46117   0.86413   0.50000   0.00000  Uiso   1.00
C84    C     0.47298   0.89122   0.50000   0.00000  Uiso   1.00
C85    C     0.42224   0.82041   0.50000   0.00000  Uiso   1.00
N86    N     0.39722   0.80533   0.50000   0.00000  Uiso   1.00
C87    C     0.38489   0.77756   0.50000   0.00000  Uiso   1.00
C88    C     0.35775   0.76290   0.50000   0.00000  Uiso   1.00
C89    C     0.34513   0.73576   0.50000   0.00000  Uiso   1.00
C90    C     0.35947   0.72282   0.50000   0.00000  Uiso   1.00
C91    C     0.38674   0.73763   0.50000   0.00000  Uiso   1.00
C92    C     0.39935   0.76475   0.50000   0.00000  Uiso   1.00
C93    C     0.34609   0.69406   0.50000   0.00000  Uiso   1.00
C94    C     0.31886   0.67927   0.50000   0.00000  Uiso   1.00
H95    H     0.45393   0.97944   0.50000   0.00000  Uiso   1.00
H96    H     0.43313   0.93029   0.50000   0.00000  Uiso   1.00
H97    H     0.50909   0.93681   0.50000   0.00000  Uiso   1.00
H98    H     0.53089   0.98569   0.50000   0.00000  Uiso   1.00
H99    H     0.41795   0.89713   0.50000   0.00000  Uiso   1.00
H100   H     0.39675   0.84820   0.50000   0.00000  Uiso   1.00
H101   H     0.47372   0.85458   0.50000   0.00000  Uiso   1.00
H102   H     0.49509   0.90369   0.50000   0.00000  Uiso   1.00
H103   H     0.43507   0.81118   0.50000   0.00000  Uiso   1.00
H104   H     0.34579   0.77308   0.50000   0.00000  Uiso   1.00
H105   H     0.32299   0.72391   0.50000   0.00000  Uiso   1.00
H106   H     0.39875   0.72751   0.50000   0.00000  Uiso   1.00
H107   H     0.42150   0.77659   0.50000   0.00000  Uiso   1.00
H108   H     0.30684   0.68938   0.50000   0.00000  Uiso   1.00
C109   C     0.98564   0.49190   0.50000   0.00000  Uiso   1.00
C110   C     0.97006   0.50343   0.50000   0.00000  Uiso   1.00
C111   C     0.94303   0.48783   0.50000   0.00000  Uiso   1.00
N112   N     0.93145   0.46134   0.50000   0.00000  Uiso   1.00
C113   C     0.94642   0.44982   0.50000   0.00000  Uiso   1.00
C114   C     0.97350   0.46474   0.50000   0.00000  Uiso   1.00
C115   C     0.90344   0.44554   0.50000   0.00000  Uiso   1.00
C116   C     0.88776   0.45710   0.50000   0.00000  Uiso   1.00
C117   C     0.86068   0.44182   0.50000   0.00000  Uiso   1.00
C118   C     0.84877   0.41467   0.50000   0.00000  Uiso   1.00
C119   C     0.86413   0.40296   0.50000   0.00000  Uiso   1.00
C120   C     0.89122   0.41824   0.50000   0.00000  Uiso   1.00
C121   C     0.82041   0.39817   0.50000   0.00000  Uiso   1.00
N122   N     0.80533   0.40811   0.50000   0.00000  Uiso   1.00
C123   C     0.77756   0.39267   0.50000   0.00000  Uiso   1.00
C124   C     0.76290   0.40515   0.50000   0.00000  Uiso   1.00
C125   C     0.73576   0.39063   0.50000   0.00000  Uiso   1.00
C126   C     0.72282   0.36335   0.50000   0.00000  Uiso   1.00
C127   C     0.73763   0.35089   0.50000   0.00000  Uiso   1.00
C128   C     0.76475   0.36540   0.50000   0.00000  Uiso   1.00
C129   C     0.69406   0.34797   0.50000   0.00000  Uiso   1.00
C130   C     0.67927   0.36041   0.50000   0.00000  Uiso   1.00
H131   H     0.97944   0.52551   0.50000   0.00000  Uiso   1.00
H132   H     0.93029   0.49716   0.50000   0.00000  Uiso   1.00
H133   H     0.93681   0.42772   0.50000   0.00000  Uiso   1.00
H134   H     0.98569   0.45480   0.50000   0.00000  Uiso   1.00
H135   H     0.89713   0.47918   0.50000   0.00000  Uiso   1.00
H136   H     0.84820   0.45145   0.50000   0.00000  Uiso   1.00
H137   H     0.85458   0.38086   0.50000   0.00000  Uiso   1.00
H138   H     0.90369   0.40860   0.50000   0.00000  Uiso   1.00
H139   H     0.81118   0.37611   0.50000   0.00000  Uiso   1.00
H140   H     0.77308   0.42729   0.50000   0.00000  Uiso   1.00
H141   H     0.72391   0.40092   0.50000   0.00000  Uiso   1.00
H142   H     0.72751   0.32876   0.50000   0.00000  Uiso   1.00
H143   H     0.77659   0.35509   0.50000   0.00000  Uiso   1.00
H144   H     0.68938   0.38254   0.50000   0.00000  Uiso   1.00
C145   C     0.50810   0.49374   0.50000   0.00000  Uiso   1.00
C146   C     0.49657   0.46663   0.50000   0.00000  Uiso   1.00
C147   C     0.51217   0.45520   0.50000   0.00000  Uiso   1.00
N148   N     0.53866   0.47011   0.50000   0.00000  Uiso   1.00
C149   C     0.55018   0.49660   0.50000   0.00000  Uiso   1.00
C150   C     0.53526   0.50876   0.50000   0.00000  Uiso   1.00
C151   C     0.55446   0.45790   0.50000   0.00000  Uiso   1.00
C152   C     0.54290   0.43066   0.50000   0.00000  Uiso   1.00
C153   C     0.55818   0.41886   0.50000   0.00000  Uiso   1.00
C154   C     0.58533   0.43410   0.50000   0.00000  Uiso   1.00
C155   C     0.59704   0.46117   0.50000   0.00000  Uiso   1.00
C156   C     0.58176   0.47298   0.50000   0.00000  Uiso   1.00
C157   C     0.60183   0.42224   0.50000   0.00000  Uiso   1.00
N158   N     0.59189   0.39722   0.50000   0.00000  Uiso   1.00
C159   C     0.60733   0.38489   0.50000   0.00000  Uiso   1.00
C160   C     0.59485   0.35775   0.50000   0.00000  Uiso   1.00
C161   C     0.60937   0.34513   0.50000   0.00000  Uiso   1.00
C162   C     0.63665   0.35947   0.50000   0.00000  Uiso   1.00
C163   C     0.64911   0.38674   0.50000   0.00000  Uiso   1.00
C164   C     0.63460   0.39935   0.50000   0.00000  Uiso   1.00
C165   C     0.65203   0.34609   0.50000   0.00000  Uiso   1.00
C166   C     0.63959   0.31886   0.50000   0.00000  Uiso   1.00
H167   H     0.47449   0.45393   0.50000   0.00000  Uiso   1.00
H168   H     0.50284   0.43313   0.50000   0.00000  Uiso   1.00
H169   H     0.57228   0.50909   0.50000   0.00000  Uiso   1.00
H170   H     0.54520   0.53089   0.50000   0.00000  Uiso   1.00
H171   H     0.52082   0.41795   0.50000   0.00000  Uiso   1.00
H172   H     0.54855   0.39675   0.50000   0.00000  Uiso   1.00
H173   H     0.61914   0.47372   0.50000   0.00000  Uiso   1.00
H174   H     0.59140   0.49509   0.50000   0.00000  Uiso   1.00
H175   H     0.62389   0.43507   0.50000   0.00000  Uiso   1.00
H176   H     0.57271   0.34579   0.50000   0.00000  Uiso   1.00
H177   H     0.59908   0.32299   0.50000   0.00000  Uiso   1.00
H178   H     0.67124   0.39875   0.50000   0.00000  Uiso   1.00
H179   H     0.64491   0.42150   0.50000   0.00000  Uiso   1.00
H180   H     0.61746   0.30684   0.50000   0.00000  Uiso   1.00
C181   C     0.50626   0.01436   0.50000   0.00000  Uiso   1.00
C182   C     0.53337   0.02994   0.50000   0.00000  Uiso   1.00
C183   C     0.54480   0.05697   0.50000   0.00000  Uiso   1.00
N184   N     0.52989   0.06855   0.50000   0.00000  Uiso   1.00
C185   C     0.50340   0.05358   0.50000   0.00000  Uiso   1.00
C186   C     0.49124   0.02650   0.50000   0.00000  Uiso   1.00
C187   C     0.54210   0.09656   0.50000   0.00000  Uiso   1.00
C188   C     0.56934   0.11224   0.50000   0.00000  Uiso   1.00
C189   C     0.58114   0.13932   0.50000   0.00000  Uiso   1.00
C190   C     0.56590   0.15123   0.50000   0.00000  Uiso   1.00
C191   C     0.53883   0.13587   0.50000   0.00000  Uiso   1.00
C192   C     0.52702   0.10878   0.50000   0.00000  Uiso   1.00
C193   C     0.57776   0.17959   0.50000   0.00000  Uiso   1.00
N194   N     0.60278   0.19467   0.50000   0.00000  Uiso   1.00
C195   C     0.61511   0.22244   0.50000   0.00000  Uiso   1.00
C196   C     0.64225   0.23710   0.50000   0.00000  Uiso   1.00
C197   C     0.65487   0.26424   0.50000   0.00000  Uiso   1.00
C198   C     0.64053   0.27718   0.50000   0.00000  Uiso   1.00
C199   C     0.61326   0.26237   0.50000   0.00000  Uiso   1.00
C200   C     0.60065   0.23525   0.50000   0.00000  Uiso   1.00
C201   C     0.65391   0.30594   0.50000   0.00000  Uiso   1.00
C202   C     0.68114   0.32073   0.50000   0.00000  Uiso   1.00
H203   H     0.54607   0.02056   0.50000   0.00000  Uiso   1.00
H204   H     0.56687   0.06971   0.50000   0.00000  Uiso   1.00
H205   H     0.49091   0.06319   0.50000   0.00000  Uiso   1.00
H206   H     0.46911   0.01431   0.50000   0.00000  Uiso   1.00
H207   H     0.58205   0.10287   0.50000   0.00000  Uiso   1.00
H208   H     0.60325   0.15180   0.50000   0.00000  Uiso   1.00
H209   H     0.52628   0.14542   0.50000   0.00000  Uiso   1.00
H210   H     0.50491   0.09631   0.50000   0.00000  Uiso   1.00
H211   H     0.56493   0.18882   0.50000   0.00000  Uiso   1.00
H212   H     0.65421   0.22692   0.50000   0.00000  Uiso   1.00
H213   H     0.67701   0.27609   0.50000   0.00000  Uiso   1.00
H214   H     0.60125   0.27249   0.50000   0.00000  Uiso   1.00
H215   H     0.57850   0.22341   0.50000   0.00000  Uiso   1.00
H216   H     0.69316   0.31062   0.50000   0.00000  Uiso   1.00
loop_
_geom_bond_atom_site_label_1
_geom_bond_atom_site_label_2
_geom_bond_distance
_geom_bond_site_symmetry_2
_ccdc_geom_bond_type
C1     C2      1.399   .     S
C1     C6      1.399   .     S
C1     C109    1.480   1_455 D
C2     C3      1.395   .     D
C2     H23     1.139   .     S
C3     N4      1.365   .     S
C3     H24     1.139   .     S
N4     C5      1.366   .     S
N4     C7      1.444   .     S
C5     C6      1.395   .     D
C5     H25     1.139   .     S
C6     H26     1.140   .     S
C7     C8      1.406   .     D
C7     C12     1.406   .     S
C8     C9      1.396   .     S
C8     H27     1.139   .     S
C9     C10     1.399   .     D
C9     H28     1.140   .     S
C10    C11     1.396   .     S
C10    C13     1.464   .     S
C11    C12     1.396   .     D
C11    H29     1.140   .     S
C12    H30     1.140   .     S
C13    N14     1.295   .     D
C13    H31     1.139   .     S
N14    C15     1.431   .     S
C15    C16     1.397   .     D
C15    C20     1.403   .     S
C16    C17     1.396   .     S
C16    H32     1.139   .     S
C17    C18     1.403   .     D
C17    H33     1.139   .     S
C18    C19     1.404   .     S
C18    C21     1.480   .     S
C19    C20     1.395   .     D
C19    H34     1.139   .     S
C20    H35     1.140   .     S
C21    C22     1.402   .     S
C21    C94     1.401   .     D
C22    H36     1.139   .     S
C22    C57     1.401   .     D
C37    C38     1.399   .     S
C37    C42     1.399   .     S
C37    C145    1.480   .     D
C38    C39     1.395   .     D
C38    H59     1.139   .     S
C39    N40     1.365   .     S
C39    H60     1.139   .     S
N40    C41     1.366   .     S
N40    C43     1.444   .     S
C41    C42     1.395   .     D
C41    H61     1.139   .     S
C42    H62     1.140   .     S
C43    C44     1.406   .     D
C43    C48     1.406   .     S
C44    C45     1.396   .     S
C44    H63     1.139   .     S
C45    C46     1.399   .     D
C45    H64     1.140   .     S
C46    C47     1.396   .     S
C46    C49     1.464   .     S
C47    C48     1.396   .     D
C47    H65     1.140   .     S
C48    H66     1.140   .     S
C49    N50     1.295   .     D
C49    H67     1.139   .     S
N50    C51     1.431   .     S
C51    C52     1.397   .     D
C51    C56     1.403   .     S
C52    C53     1.396   .     S
C52    H68     1.139   .     S
C53    C54     1.403   .     D
C53    H69     1.139   .     S
C54    C55     1.404   .     S
C54    C57     1.480   .     S
C55    C56     1.395   .     D
C55    H70     1.139   .     S
C56    H71     1.140   .     S
C57    C58     1.402   .     S
C58    H72     1.139   .     S
C58    C93     1.401   .     D
C73    C74     1.399   .     S
C73    C78     1.399   .     S
C73    C181    1.480   1_565 D
C74    C75     1.395   .     D
C74    H95     1.139   .     S
C75    N76     1.365   .     S
C75    H96     1.139   .     S
N76    C77     1.366   .     S
N76    C79     1.444   .     S
C77    C78     1.395   .     D
C77    H97     1.139   .     S
C78    H98     1.140   .     S
C79    C80     1.406   .     D
C79    C84     1.406   .     S
C80    C81     1.396   .     S
C80    H99     1.139   .     S
C81    C82     1.399   .     D
C81    H100    1.140   .     S
C82    C83     1.396   .     S
C82    C85     1.464   .     S
C83    C84     1.396   .     D
C83    H101    1.140   .     S
C84    H102    1.140   .     S
C85    N86     1.295   .     D
C85    H103    1.139   .     S
N86    C87     1.431   .     S
C87    C88     1.397   .     D
C87    C92     1.403   .     S
C88    C89     1.396   .     S
C88    H104    1.139   .     S
C89    C90     1.403   .     D
C89    H105    1.139   .     S
C90    C91     1.404   .     S
C90    C93     1.480   .     S
C91    C92     1.395   .     D
C91    H106    1.139   .     S
C92    H107    1.140   .     S
C93    C94     1.402   .     S
C94    H108    1.139   .     S
C109   C110    1.399   .     S
C109   C114    1.399   .     S
C109   C1      1.480   1_655 D
C110   C111    1.395   .     D
C110   H131    1.139   .     S
C111   N112    1.365   .     S
C111   H132    1.139   .     S
N112   C113    1.366   .     S
N112   C115    1.444   .     S
C113   C114    1.395   .     D
C113   H133    1.139   .     S
C114   H134    1.140   .     S
C115   C116    1.406   .     D
C115   C120    1.406   .     S
C116   C117    1.396   .     S
C116   H135    1.139   .     S
C117   C118    1.399   .     D
C117   H136    1.140   .     S
C118   C119    1.396   .     S
C118   C121    1.464   .     S
C119   C120    1.396   .     D
C119   H137    1.140   .     S
C120   H138    1.140   .     S
C121   N122    1.295   .     D
C121   H139    1.139   .     S
N122   C123    1.431   .     S
C123   C124    1.397   .     D
C123   C128    1.403   .     S
C124   C125    1.396   .     S
C124   H140    1.139   .     S
C125   C126    1.403   .     D
C125   H141    1.139   .     S
C126   C127    1.404   .     S
C126   C129    1.480   .     S
C127   C128    1.395   .     D
C127   H142    1.139   .     S
C128   H143    1.140   .     S
C129   C130    1.402   .     S
C129   C202    1.401   .     D
C130   H144    1.139   .     S
C130   C165    1.401   .     D
C145   C146    1.399   .     S
C145   C150    1.399   .     S
C146   C147    1.395   .     D
C146   H167    1.139   .     S
C147   N148    1.365   .     S
C147   H168    1.139   .     S
N148   C149    1.366   .     S
N148   C151    1.444   .     S
C149   C150    1.395   .     D
C149   H169    1.139   .     S
C150   H170    1.140   .     S
C151   C152    1.406   .     D
C151   C156    1.406   .     S
C152   C153    1.396   .     S
C152   H171    1.139   .     S
C153   C154    1.399   .     D
C153   H172    1.140   .     S
C154   C155    1.396   .     S
C154   C157    1.464   .     S
C155   C156    1.396   .     D
C155   H173    1.140   .     S
C156   H174    1.140   .     S
C157   N158    1.295   .     D
C157   H175    1.139   .     S
N158   C159    1.431   .     S
C159   C160    1.397   .     D
C159   C164    1.403   .     S
C160   C161    1.396   .     S
C160   H176    1.139   .     S
C161   C162    1.403   .     D
C161   H177    1.139   .     S
C162   C163    1.404   .     S
C162   C165    1.480   .     S
C163   C164    1.395   .     D
C163   H178    1.139   .     S
C164   H179    1.140   .     S
C165   C166    1.402   .     S
C166   H180    1.139   .     S
C166   C201    1.401   .     D
C181   C182    1.399   .     S
C181   C186    1.399   .     S
C181   C73     1.480   1_545 D
C182   C183    1.395   .     D
C182   H203    1.139   .     S
C183   N184    1.365   .     S
C183   H204    1.139   .     S
N184   C185    1.366   .     S
N184   C187    1.444   .     S
C185   C186    1.395   .     D
C185   H205    1.139   .     S
C186   H206    1.140   .     S
C187   C188    1.406   .     D
C187   C192    1.406   .     S
C188   C189    1.396   .     S
C188   H207    1.139   .     S
C189   C190    1.399   .     D
C189   H208    1.140   .     S
C190   C191    1.396   .     S
C190   C193    1.464   .     S
C191   C192    1.396   .     D
C191   H209    1.140   .     S
C192   H210    1.140   .     S
C193   N194    1.295   .     D
C193   H211    1.139   .     S
N194   C195    1.431   .     S
C195   C196    1.397   .     S
C195   C200    1.403   .     D
C196   C197    1.396   .     D
C196   H212    1.139   .     S
C197   C198    1.403   .     S
C197   H213    1.139   .     S
C198   C199    1.404   .     D
C198   C201    1.480   .     S
C199   C200    1.395   .     S
C199   H214    1.139   .     S
C200   H215    1.140   .     S
C201   C202    1.402   .     S
C202   H216    1.139   .     S
