data_1226
_audit_creation_date              2023-09-08
_audit_creation_method            'Materials Studio'
_symmetry_space_group_name_H-M    'P1'
_symmetry_Int_Tables_number       1
_symmetry_cell_setting            triclinic
loop_
_symmetry_equiv_pos_as_xyz
  x,y,z
_cell_length_a                    20.3572
_cell_length_b                    20.3572
_cell_length_c                    13.2830
_cell_angle_alpha                 90.0000
_cell_angle_beta                  90.0000
_cell_angle_gamma                 90.0000
loop_
_atom_site_label
_atom_site_type_symbol
_atom_site_fract_x
_atom_site_fract_y
_atom_site_fract_z
_atom_site_U_iso_or_equiv
_atom_site_adp_type
_atom_site_occupancy
C1     C     0.54380   0.80320   0.62340   0.00000  Uiso   1.00
C2     C     0.48310   0.71700   0.52900   0.00000  Uiso   1.00
N3     N     0.46790   0.68210   0.43450   0.00000  Uiso   1.00
C4     C     0.52660   0.77160   0.52960   0.00000  Uiso   1.00
C5     C     0.51230   0.68230   0.34770   0.00000  Uiso   1.00
C6     C     0.50620   0.64640   0.25260   0.00000  Uiso   1.00
C7     C     0.56440   0.62890   0.19860   0.00000  Uiso   1.00
C8     C     0.56260   0.58480   0.11410   0.00000  Uiso   1.00
C9     C     0.50190   0.55970   0.07610   0.00000  Uiso   1.00
C10    C     0.44330   0.58130   0.12570   0.00000  Uiso   1.00
C11    C     0.44520   0.62550   0.21020   0.00000  Uiso   1.00
H12    H     0.57630   0.84570   0.61810   0.00000  Uiso   1.00
H13    H     0.54650   0.79200   0.45760   0.00000  Uiso   1.00
H14    H     0.56060   0.70410   0.36110   0.00000  Uiso   1.00
H15    H     0.61230   0.64570   0.22630   0.00000  Uiso   1.00
H16    H     0.60920   0.56790   0.08210   0.00000  Uiso   1.00
H17    H     0.39550   0.56230   0.10140   0.00000  Uiso   1.00
H18    H     0.39840   0.64270   0.24090   0.00000  Uiso   1.00
C19    C     0.41420   0.64070   0.43460   0.00000  Uiso   1.00
N20    N     0.36850   0.60610   0.43550   0.00000  Uiso   1.00
C21    C     0.04380   0.30320   0.12340   0.00000  Uiso   1.00
C22    C     0.98310   0.21700   0.02900   0.00000  Uiso   1.00
N23    N     0.96790   0.18210   0.93450   0.00000  Uiso   1.00
C24    C     0.02660   0.27160   0.02960   0.00000  Uiso   1.00
C25    C     0.01230   0.18230   0.84770   0.00000  Uiso   1.00
C26    C     0.00620   0.14640   0.75260   0.00000  Uiso   1.00
C27    C     0.06440   0.12890   0.69860   0.00000  Uiso   1.00
C28    C     0.06260   0.08480   0.61410   0.00000  Uiso   1.00
C29    C     0.00190   0.05970   0.57610   0.00000  Uiso   1.00
C30    C     0.94330   0.08130   0.62570   0.00000  Uiso   1.00
C31    C     0.94520   0.12550   0.71020   0.00000  Uiso   1.00
H32    H     0.07630   0.34570   0.11810   0.00000  Uiso   1.00
H33    H     0.04650   0.29200   0.95760   0.00000  Uiso   1.00
H34    H     0.06060   0.20410   0.86110   0.00000  Uiso   1.00
H35    H     0.11230   0.14570   0.72630   0.00000  Uiso   1.00
H36    H     0.10920   0.06790   0.58210   0.00000  Uiso   1.00
H37    H     0.89550   0.06230   0.60140   0.00000  Uiso   1.00
H38    H     0.89840   0.14270   0.74090   0.00000  Uiso   1.00
C39    C     0.91420   0.14070   0.93460   0.00000  Uiso   1.00
N40    N     0.86850   0.10610   0.93550   0.00000  Uiso   1.00
C41    C     0.95620   0.69680   0.12340   0.00000  Uiso   1.00
C42    C     0.01690   0.78300   0.02900   0.00000  Uiso   1.00
N43    N     0.03210   0.81790   0.93450   0.00000  Uiso   1.00
C44    C     0.97340   0.72840   0.02960   0.00000  Uiso   1.00
C45    C     0.98770   0.81770   0.84770   0.00000  Uiso   1.00
C46    C     0.99380   0.85360   0.75260   0.00000  Uiso   1.00
C47    C     0.93560   0.87110   0.69860   0.00000  Uiso   1.00
C48    C     0.93740   0.91520   0.61410   0.00000  Uiso   1.00
C49    C     0.99810   0.94030   0.57610   0.00000  Uiso   1.00
C50    C     0.05670   0.91870   0.62570   0.00000  Uiso   1.00
C51    C     0.05480   0.87450   0.71020   0.00000  Uiso   1.00
H52    H     0.92370   0.65430   0.11810   0.00000  Uiso   1.00
H53    H     0.95350   0.70800   0.95760   0.00000  Uiso   1.00
H54    H     0.93940   0.79590   0.86110   0.00000  Uiso   1.00
H55    H     0.88770   0.85430   0.72630   0.00000  Uiso   1.00
H56    H     0.89080   0.93210   0.58210   0.00000  Uiso   1.00
H57    H     0.10450   0.93770   0.60140   0.00000  Uiso   1.00
H58    H     0.10160   0.85730   0.74090   0.00000  Uiso   1.00
C59    C     0.08580   0.85930   0.93460   0.00000  Uiso   1.00
N60    N     0.13150   0.89390   0.93550   0.00000  Uiso   1.00
C61    C     0.45620   0.19680   0.62340   0.00000  Uiso   1.00
C62    C     0.51690   0.28300   0.52900   0.00000  Uiso   1.00
N63    N     0.53210   0.31790   0.43450   0.00000  Uiso   1.00
C64    C     0.47340   0.22840   0.52960   0.00000  Uiso   1.00
C65    C     0.48770   0.31770   0.34770   0.00000  Uiso   1.00
C66    C     0.49380   0.35360   0.25260   0.00000  Uiso   1.00
C67    C     0.43560   0.37110   0.19860   0.00000  Uiso   1.00
C68    C     0.43740   0.41520   0.11410   0.00000  Uiso   1.00
C69    C     0.49810   0.44030   0.07610   0.00000  Uiso   1.00
C70    C     0.55670   0.41870   0.12570   0.00000  Uiso   1.00
C71    C     0.55480   0.37450   0.21020   0.00000  Uiso   1.00
H72    H     0.42370   0.15430   0.61810   0.00000  Uiso   1.00
H73    H     0.45350   0.20800   0.45760   0.00000  Uiso   1.00
H74    H     0.43940   0.29590   0.36110   0.00000  Uiso   1.00
H75    H     0.38770   0.35430   0.22630   0.00000  Uiso   1.00
H76    H     0.39080   0.43210   0.08210   0.00000  Uiso   1.00
H77    H     0.60450   0.43770   0.10140   0.00000  Uiso   1.00
H78    H     0.60160   0.35730   0.24090   0.00000  Uiso   1.00
C79    C     0.58580   0.35930   0.43460   0.00000  Uiso   1.00
N80    N     0.63150   0.39390   0.43550   0.00000  Uiso   1.00
C81    C     0.19680   0.04380   0.87340   0.00000  Uiso   1.00
C82    C     0.28300   0.98310   0.77900   0.00000  Uiso   1.00
N83    N     0.31790   0.96790   0.68450   0.00000  Uiso   1.00
C84    C     0.22840   0.02660   0.77960   0.00000  Uiso   1.00
C85    C     0.31770   0.01230   0.59770   0.00000  Uiso   1.00
C86    C     0.35360   0.00620   0.50260   0.00000  Uiso   1.00
C87    C     0.37110   0.06440   0.44860   0.00000  Uiso   1.00
C88    C     0.41520   0.06260   0.36410   0.00000  Uiso   1.00
C89    C     0.44030   0.00190   0.32610   0.00000  Uiso   1.00
C90    C     0.41870   0.94330   0.37570   0.00000  Uiso   1.00
C91    C     0.37450   0.94520   0.46020   0.00000  Uiso   1.00
H92    H     0.15430   0.07630   0.86810   0.00000  Uiso   1.00
H93    H     0.20800   0.04650   0.70760   0.00000  Uiso   1.00
H94    H     0.29590   0.06060   0.61110   0.00000  Uiso   1.00
H95    H     0.35430   0.11230   0.47630   0.00000  Uiso   1.00
H96    H     0.43210   0.10920   0.33210   0.00000  Uiso   1.00
H97    H     0.43770   0.89550   0.35140   0.00000  Uiso   1.00
H98    H     0.35730   0.89840   0.49090   0.00000  Uiso   1.00
C99    C     0.35930   0.91420   0.68460   0.00000  Uiso   1.00
N100   N     0.39390   0.86850   0.68550   0.00000  Uiso   1.00
C101   C     0.69680   0.54380   0.37340   0.00000  Uiso   1.00
C102   C     0.78300   0.48310   0.27900   0.00000  Uiso   1.00
N103   N     0.81790   0.46790   0.18450   0.00000  Uiso   1.00
C104   C     0.72840   0.52660   0.27960   0.00000  Uiso   1.00
C105   C     0.81770   0.51230   0.09770   0.00000  Uiso   1.00
C106   C     0.85360   0.50620   0.00260   0.00000  Uiso   1.00
C107   C     0.87110   0.56440   0.94860   0.00000  Uiso   1.00
C108   C     0.91520   0.56260   0.86410   0.00000  Uiso   1.00
C109   C     0.94030   0.50190   0.82610   0.00000  Uiso   1.00
C110   C     0.91870   0.44330   0.87570   0.00000  Uiso   1.00
C111   C     0.87450   0.44520   0.96020   0.00000  Uiso   1.00
H112   H     0.65430   0.57630   0.36810   0.00000  Uiso   1.00
H113   H     0.70800   0.54650   0.20760   0.00000  Uiso   1.00
H114   H     0.79590   0.56060   0.11110   0.00000  Uiso   1.00
H115   H     0.85430   0.61230   0.97630   0.00000  Uiso   1.00
H116   H     0.93210   0.60920   0.83210   0.00000  Uiso   1.00
H117   H     0.93770   0.39550   0.85140   0.00000  Uiso   1.00
H118   H     0.85730   0.39840   0.99090   0.00000  Uiso   1.00
C119   C     0.85930   0.41420   0.18460   0.00000  Uiso   1.00
N120   N     0.89390   0.36850   0.18550   0.00000  Uiso   1.00
C121   C     0.30320   0.45620   0.37340   0.00000  Uiso   1.00
C122   C     0.21700   0.51690   0.27900   0.00000  Uiso   1.00
N123   N     0.18210   0.53210   0.18450   0.00000  Uiso   1.00
C124   C     0.27160   0.47340   0.27960   0.00000  Uiso   1.00
C125   C     0.18230   0.48770   0.09770   0.00000  Uiso   1.00
C126   C     0.14640   0.49380   0.00260   0.00000  Uiso   1.00
C127   C     0.12890   0.43560   0.94860   0.00000  Uiso   1.00
C128   C     0.08480   0.43740   0.86410   0.00000  Uiso   1.00
C129   C     0.05970   0.49810   0.82610   0.00000  Uiso   1.00
C130   C     0.08130   0.55670   0.87570   0.00000  Uiso   1.00
C131   C     0.12550   0.55480   0.96020   0.00000  Uiso   1.00
H132   H     0.34570   0.42370   0.36810   0.00000  Uiso   1.00
H133   H     0.29200   0.45350   0.20760   0.00000  Uiso   1.00
H134   H     0.20410   0.43940   0.11110   0.00000  Uiso   1.00
H135   H     0.14570   0.38770   0.97630   0.00000  Uiso   1.00
H136   H     0.06790   0.39080   0.83210   0.00000  Uiso   1.00
H137   H     0.06230   0.60450   0.85140   0.00000  Uiso   1.00
H138   H     0.14270   0.60160   0.99090   0.00000  Uiso   1.00
C139   C     0.14070   0.58580   0.18460   0.00000  Uiso   1.00
N140   N     0.10610   0.63150   0.18550   0.00000  Uiso   1.00
C141   C     0.80320   0.95620   0.87340   0.00000  Uiso   1.00
C142   C     0.71700   0.01690   0.77900   0.00000  Uiso   1.00
N143   N     0.68210   0.03210   0.68450   0.00000  Uiso   1.00
C144   C     0.77160   0.97340   0.77960   0.00000  Uiso   1.00
C145   C     0.68230   0.98770   0.59770   0.00000  Uiso   1.00
C146   C     0.64640   0.99380   0.50260   0.00000  Uiso   1.00
C147   C     0.62890   0.93560   0.44860   0.00000  Uiso   1.00
C148   C     0.58480   0.93740   0.36410   0.00000  Uiso   1.00
C149   C     0.55970   0.99810   0.32610   0.00000  Uiso   1.00
C150   C     0.58130   0.05670   0.37570   0.00000  Uiso   1.00
C151   C     0.62550   0.05480   0.46020   0.00000  Uiso   1.00
H152   H     0.84570   0.92370   0.86810   0.00000  Uiso   1.00
H153   H     0.79200   0.95350   0.70760   0.00000  Uiso   1.00
H154   H     0.70410   0.93940   0.61110   0.00000  Uiso   1.00
H155   H     0.64570   0.88770   0.47630   0.00000  Uiso   1.00
H156   H     0.56790   0.89080   0.33210   0.00000  Uiso   1.00
H157   H     0.56230   0.10450   0.35140   0.00000  Uiso   1.00
H158   H     0.64270   0.10160   0.49090   0.00000  Uiso   1.00
C159   C     0.64070   0.08580   0.68460   0.00000  Uiso   1.00
N160   N     0.60610   0.13150   0.68550   0.00000  Uiso   1.00
C161   C     0.45620   0.69680   0.62660   0.00000  Uiso   1.00
C162   C     0.51690   0.78300   0.72100   0.00000  Uiso   1.00
N163   N     0.53210   0.81790   0.81550   0.00000  Uiso   1.00
C164   C     0.47340   0.72840   0.72040   0.00000  Uiso   1.00
C165   C     0.48770   0.81770   0.90230   0.00000  Uiso   1.00
C166   C     0.49380   0.85360   0.99740   0.00000  Uiso   1.00
C167   C     0.43560   0.87110   0.05140   0.00000  Uiso   1.00
C168   C     0.43740   0.91520   0.13590   0.00000  Uiso   1.00
C169   C     0.49810   0.94030   0.17390   0.00000  Uiso   1.00
C170   C     0.55670   0.91870   0.12430   0.00000  Uiso   1.00
C171   C     0.55480   0.87450   0.03980   0.00000  Uiso   1.00
H172   H     0.42370   0.65430   0.63190   0.00000  Uiso   1.00
H173   H     0.45350   0.70800   0.79240   0.00000  Uiso   1.00
H174   H     0.43940   0.79590   0.88890   0.00000  Uiso   1.00
H175   H     0.38770   0.85430   0.02370   0.00000  Uiso   1.00
H176   H     0.39080   0.93210   0.16790   0.00000  Uiso   1.00
H177   H     0.60450   0.93770   0.14860   0.00000  Uiso   1.00
H178   H     0.60160   0.85730   0.00910   0.00000  Uiso   1.00
C179   C     0.58580   0.85930   0.81540   0.00000  Uiso   1.00
N180   N     0.63150   0.89390   0.81450   0.00000  Uiso   1.00
C181   C     0.95620   0.19680   0.12660   0.00000  Uiso   1.00
C182   C     0.01690   0.28300   0.22100   0.00000  Uiso   1.00
N183   N     0.03210   0.31790   0.31550   0.00000  Uiso   1.00
C184   C     0.97340   0.22840   0.22040   0.00000  Uiso   1.00
C185   C     0.98770   0.31770   0.40230   0.00000  Uiso   1.00
C186   C     0.99380   0.35360   0.49740   0.00000  Uiso   1.00
C187   C     0.93560   0.37110   0.55140   0.00000  Uiso   1.00
C188   C     0.93740   0.41520   0.63590   0.00000  Uiso   1.00
C189   C     0.99810   0.44030   0.67390   0.00000  Uiso   1.00
C190   C     0.05670   0.41870   0.62430   0.00000  Uiso   1.00
C191   C     0.05480   0.37450   0.53980   0.00000  Uiso   1.00
H192   H     0.92370   0.15430   0.13190   0.00000  Uiso   1.00
H193   H     0.95350   0.20800   0.29240   0.00000  Uiso   1.00
H194   H     0.93940   0.29590   0.38890   0.00000  Uiso   1.00
H195   H     0.88770   0.35430   0.52370   0.00000  Uiso   1.00
H196   H     0.89080   0.43210   0.66790   0.00000  Uiso   1.00
H197   H     0.10450   0.43770   0.64860   0.00000  Uiso   1.00
H198   H     0.10160   0.35730   0.50910   0.00000  Uiso   1.00
C199   C     0.08580   0.35930   0.31540   0.00000  Uiso   1.00
N200   N     0.13150   0.39390   0.31450   0.00000  Uiso   1.00
C201   C     0.04380   0.80320   0.12660   0.00000  Uiso   1.00
C202   C     0.98310   0.71700   0.22100   0.00000  Uiso   1.00
N203   N     0.96790   0.68210   0.31550   0.00000  Uiso   1.00
C204   C     0.02660   0.77160   0.22040   0.00000  Uiso   1.00
C205   C     0.01230   0.68230   0.40230   0.00000  Uiso   1.00
C206   C     0.00620   0.64640   0.49740   0.00000  Uiso   1.00
C207   C     0.06440   0.62890   0.55140   0.00000  Uiso   1.00
C208   C     0.06260   0.58480   0.63590   0.00000  Uiso   1.00
C209   C     0.00190   0.55970   0.67390   0.00000  Uiso   1.00
C210   C     0.94330   0.58130   0.62430   0.00000  Uiso   1.00
C211   C     0.94520   0.62550   0.53980   0.00000  Uiso   1.00
H212   H     0.07630   0.84570   0.13190   0.00000  Uiso   1.00
H213   H     0.04650   0.79200   0.29240   0.00000  Uiso   1.00
H214   H     0.06060   0.70410   0.38890   0.00000  Uiso   1.00
H215   H     0.11230   0.64570   0.52370   0.00000  Uiso   1.00
H216   H     0.10920   0.56790   0.66790   0.00000  Uiso   1.00
H217   H     0.89550   0.56230   0.64860   0.00000  Uiso   1.00
H218   H     0.89840   0.64270   0.50910   0.00000  Uiso   1.00
C219   C     0.91420   0.64070   0.31540   0.00000  Uiso   1.00
N220   N     0.86850   0.60610   0.31450   0.00000  Uiso   1.00
C221   C     0.54380   0.30320   0.62660   0.00000  Uiso   1.00
C222   C     0.48310   0.21700   0.72100   0.00000  Uiso   1.00
N223   N     0.46790   0.18210   0.81550   0.00000  Uiso   1.00
C224   C     0.52660   0.27160   0.72040   0.00000  Uiso   1.00
C225   C     0.51230   0.18230   0.90230   0.00000  Uiso   1.00
C226   C     0.50620   0.14640   0.99740   0.00000  Uiso   1.00
C227   C     0.56440   0.12890   0.05140   0.00000  Uiso   1.00
C228   C     0.56260   0.08480   0.13590   0.00000  Uiso   1.00
C229   C     0.50190   0.05970   0.17390   0.00000  Uiso   1.00
C230   C     0.44330   0.08130   0.12430   0.00000  Uiso   1.00
C231   C     0.44520   0.12550   0.03980   0.00000  Uiso   1.00
H232   H     0.57630   0.34570   0.63190   0.00000  Uiso   1.00
H233   H     0.54650   0.29200   0.79240   0.00000  Uiso   1.00
H234   H     0.56060   0.20410   0.88890   0.00000  Uiso   1.00
H235   H     0.61230   0.14570   0.02370   0.00000  Uiso   1.00
H236   H     0.60920   0.06790   0.16790   0.00000  Uiso   1.00
H237   H     0.39550   0.06230   0.14860   0.00000  Uiso   1.00
H238   H     0.39840   0.14270   0.00910   0.00000  Uiso   1.00
C239   C     0.41420   0.14070   0.81540   0.00000  Uiso   1.00
N240   N     0.36850   0.10610   0.81450   0.00000  Uiso   1.00
C241   C     0.80320   0.45620   0.37660   0.00000  Uiso   1.00
C242   C     0.71700   0.51690   0.47100   0.00000  Uiso   1.00
N243   N     0.68210   0.53210   0.56550   0.00000  Uiso   1.00
C244   C     0.77160   0.47340   0.47040   0.00000  Uiso   1.00
C245   C     0.68230   0.48770   0.65230   0.00000  Uiso   1.00
C246   C     0.64640   0.49380   0.74740   0.00000  Uiso   1.00
C247   C     0.62890   0.43560   0.80140   0.00000  Uiso   1.00
C248   C     0.58480   0.43740   0.88590   0.00000  Uiso   1.00
C249   C     0.55970   0.49810   0.92390   0.00000  Uiso   1.00
C250   C     0.58130   0.55670   0.87430   0.00000  Uiso   1.00
C251   C     0.62550   0.55480   0.78980   0.00000  Uiso   1.00
H252   H     0.84570   0.42370   0.38190   0.00000  Uiso   1.00
H253   H     0.79200   0.45350   0.54240   0.00000  Uiso   1.00
H254   H     0.70410   0.43940   0.63890   0.00000  Uiso   1.00
H255   H     0.64570   0.38770   0.77370   0.00000  Uiso   1.00
H256   H     0.56790   0.39080   0.91790   0.00000  Uiso   1.00
H257   H     0.56230   0.60450   0.89860   0.00000  Uiso   1.00
H258   H     0.64270   0.60160   0.75910   0.00000  Uiso   1.00
C259   C     0.64070   0.58580   0.56540   0.00000  Uiso   1.00
N260   N     0.60610   0.63150   0.56450   0.00000  Uiso   1.00
C261   C     0.30320   0.95620   0.87660   0.00000  Uiso   1.00
C262   C     0.21700   0.01690   0.97100   0.00000  Uiso   1.00
N263   N     0.18210   0.03210   0.06550   0.00000  Uiso   1.00
C264   C     0.27160   0.97340   0.97040   0.00000  Uiso   1.00
C265   C     0.18230   0.98770   0.15230   0.00000  Uiso   1.00
C266   C     0.14640   0.99380   0.24740   0.00000  Uiso   1.00
C267   C     0.12890   0.93560   0.30140   0.00000  Uiso   1.00
C268   C     0.08480   0.93740   0.38590   0.00000  Uiso   1.00
C269   C     0.05970   0.99810   0.42390   0.00000  Uiso   1.00
C270   C     0.08130   0.05670   0.37430   0.00000  Uiso   1.00
C271   C     0.12550   0.05480   0.28980   0.00000  Uiso   1.00
H272   H     0.34570   0.92370   0.88190   0.00000  Uiso   1.00
H273   H     0.29200   0.95350   0.04240   0.00000  Uiso   1.00
H274   H     0.20410   0.93940   0.13890   0.00000  Uiso   1.00
H275   H     0.14570   0.88770   0.27370   0.00000  Uiso   1.00
H276   H     0.06790   0.89080   0.41790   0.00000  Uiso   1.00
H277   H     0.06230   0.10450   0.39860   0.00000  Uiso   1.00
H278   H     0.14270   0.10160   0.25910   0.00000  Uiso   1.00
C279   C     0.14070   0.08580   0.06540   0.00000  Uiso   1.00
N280   N     0.10610   0.13150   0.06450   0.00000  Uiso   1.00
C281   C     0.69680   0.04380   0.87660   0.00000  Uiso   1.00
C282   C     0.78300   0.98310   0.97100   0.00000  Uiso   1.00
N283   N     0.81790   0.96790   0.06550   0.00000  Uiso   1.00
C284   C     0.72840   0.02660   0.97040   0.00000  Uiso   1.00
C285   C     0.81770   0.01230   0.15230   0.00000  Uiso   1.00
C286   C     0.85360   0.00620   0.24740   0.00000  Uiso   1.00
C287   C     0.87110   0.06440   0.30140   0.00000  Uiso   1.00
C288   C     0.91520   0.06260   0.38590   0.00000  Uiso   1.00
C289   C     0.94030   0.00190   0.42390   0.00000  Uiso   1.00
C290   C     0.91870   0.94330   0.37430   0.00000  Uiso   1.00
C291   C     0.87450   0.94520   0.28980   0.00000  Uiso   1.00
H292   H     0.65430   0.07630   0.88190   0.00000  Uiso   1.00
H293   H     0.70800   0.04650   0.04240   0.00000  Uiso   1.00
H294   H     0.79590   0.06060   0.13890   0.00000  Uiso   1.00
H295   H     0.85430   0.11230   0.27370   0.00000  Uiso   1.00
H296   H     0.93210   0.10920   0.41790   0.00000  Uiso   1.00
H297   H     0.93770   0.89550   0.39860   0.00000  Uiso   1.00
H298   H     0.85730   0.89840   0.25910   0.00000  Uiso   1.00
C299   C     0.85930   0.91420   0.06540   0.00000  Uiso   1.00
N300   N     0.89390   0.86850   0.06450   0.00000  Uiso   1.00
C301   C     0.19680   0.54380   0.37660   0.00000  Uiso   1.00
C302   C     0.28300   0.48310   0.47100   0.00000  Uiso   1.00
N303   N     0.31790   0.46790   0.56550   0.00000  Uiso   1.00
C304   C     0.22840   0.52660   0.47040   0.00000  Uiso   1.00
C305   C     0.31770   0.51230   0.65230   0.00000  Uiso   1.00
C306   C     0.35360   0.50620   0.74740   0.00000  Uiso   1.00
C307   C     0.37110   0.56440   0.80140   0.00000  Uiso   1.00
C308   C     0.41520   0.56260   0.88590   0.00000  Uiso   1.00
C309   C     0.44030   0.50190   0.92390   0.00000  Uiso   1.00
C310   C     0.41870   0.44330   0.87430   0.00000  Uiso   1.00
C311   C     0.37450   0.44520   0.78980   0.00000  Uiso   1.00
H312   H     0.15430   0.57630   0.38190   0.00000  Uiso   1.00
H313   H     0.20800   0.54650   0.54240   0.00000  Uiso   1.00
H314   H     0.29590   0.56060   0.63890   0.00000  Uiso   1.00
H315   H     0.35430   0.61230   0.77370   0.00000  Uiso   1.00
H316   H     0.43210   0.60920   0.91790   0.00000  Uiso   1.00
H317   H     0.43770   0.39550   0.89860   0.00000  Uiso   1.00
H318   H     0.35730   0.39840   0.75910   0.00000  Uiso   1.00
C319   C     0.35930   0.41420   0.56540   0.00000  Uiso   1.00
N320   N     0.39390   0.36850   0.56450   0.00000  Uiso   1.00
C321   C     0.50000   0.50000   0.00000   0.00000  Uiso   1.00
C322   C     0.00000   0.00000   0.50000   0.00000  Uiso   1.00
C323   C     0.50000   0.00000   0.25000   0.00000  Uiso   1.00
C324   C     0.00000   0.50000   0.75000   0.00000  Uiso   1.00
loop_
_geom_bond_atom_site_label_1
_geom_bond_atom_site_label_2
_geom_bond_distance
_geom_bond_site_symmetry_2
_ccdc_geom_bond_type
C1     C4      1.445   .     S
C1     H12     1.091   .     S
C1     C162    1.466   .     D
C2     N3      1.475   .     S
C2     C4      1.421   .     D
C2     C161    1.466   .     S
N3     C5      1.465   .     D
N3     C19     1.380   .     S
C4     H13     1.119   .     S
C5     C6      1.465   .     S
C5     H14     1.093   .     S
C6     C7      1.430   .     S
C6     C11     1.428   .     D
C7     C8      1.438   .     D
C7     H15     1.097   .     S
C8     C9      1.429   .     S
C8     H16     1.095   .     S
C9     C10     1.432   .     D
C9     C321    1.581   .     S
C10    C11     1.439   .     S
C10    H17     1.096   .     S
C11    H18     1.094   .     S
C19    N20     1.167   .     T
C21    C24     1.445   .     S
C21    H32     1.091   .     S
C21    C182    1.466   .     D
C22    C181    1.466   .     S
C22    N23     1.475   1_554 S
C22    C24     1.421   1_655 D
N23    C39     1.380   .     S
N23    C22     1.475   1_556 S
N23    C25     1.465   1_655 D
C24    C22     1.421   1_455 D
C24    H33     1.119   1_554 S
C25    C26     1.465   .     S
C25    H34     1.093   .     S
C25    N23     1.465   1_455 D
C26    C27     1.430   .     S
C26    C31     1.428   1_455 D
C27    C28     1.438   .     D
C27    H35     1.097   .     S
C28    C29     1.429   .     S
C28    H36     1.095   .     S
C29    C322    1.581   .     S
C29    C30     1.432   1_455 D
C30    C31     1.439   .     S
C30    H37     1.096   .     S
C30    C29     1.432   1_655 D
C31    H38     1.094   .     S
C31    C26     1.428   1_655 D
H33    C24     1.119   1_556 S
C39    N40     1.167   .     T
C41    C44     1.445   .     S
C41    H52     1.091   .     S
C41    C202    1.466   .     D
C42    C201    1.466   .     S
C42    N43     1.475   1_554 S
C42    C44     1.421   1_455 D
N43    C59     1.380   .     S
N43    C42     1.475   1_556 S
N43    C45     1.465   1_455 D
C44    C42     1.421   1_655 D
C44    H53     1.119   1_554 S
C45    C46     1.465   .     S
C45    H54     1.093   .     S
C45    N43     1.465   1_655 D
C46    C47     1.430   .     S
C46    C51     1.428   1_655 D
C47    C48     1.438   .     D
C47    H55     1.097   .     S
C48    C49     1.429   .     S
C48    H56     1.095   .     S
C49    C50     1.432   1_655 D
C49    C322    1.581   1_665 S
C50    C51     1.439   .     S
C50    H57     1.096   .     S
C50    C49     1.432   1_455 D
C51    H58     1.094   .     S
C51    C46     1.428   1_455 D
H53    C44     1.119   1_556 S
C59    N60     1.167   .     T
C61    C64     1.445   .     S
C61    H72     1.091   .     S
C61    C222    1.466   .     D
C62    N63     1.475   .     S
C62    C64     1.421   .     D
C62    C221    1.466   .     S
N63    C65     1.465   .     D
N63    C79     1.380   .     S
C64    H73     1.119   .     S
C65    C66     1.465   .     S
C65    H74     1.093   .     S
C66    C67     1.430   .     S
C66    C71     1.428   .     D
C67    C68     1.438   .     D
C67    H75     1.097   .     S
C68    C69     1.429   .     S
C68    H76     1.095   .     S
C69    C70     1.432   .     D
C69    C321    1.581   .     S
C70    C71     1.439   .     S
C70    H77     1.096   .     S
C71    H78     1.094   .     S
C79    N80     1.167   .     T
C81    C84     1.445   .     S
C81    H92     1.091   .     S
C81    C262    1.466   .     D
C82    N83     1.475   .     S
C82    C261    1.466   .     S
C82    C84     1.421   1_565 D
N83    C99     1.380   .     S
N83    C85     1.465   1_565 D
C84    H93     1.119   .     S
C84    C82     1.421   1_545 D
C85    C86     1.465   .     S
C85    H94     1.093   .     S
C85    N83     1.465   1_545 D
C86    C87     1.430   .     S
C86    C91     1.428   1_545 D
C87    C88     1.438   .     D
C87    H95     1.097   .     S
C88    C89     1.429   .     S
C88    H96     1.095   .     S
C89    C323    1.581   .     S
C89    C90     1.432   1_545 D
C90    C91     1.439   .     S
C90    H97     1.096   .     S
C90    C89     1.432   1_565 D
C91    H98     1.094   .     S
C91    C86     1.428   1_565 D
C99    N100    1.167   .     T
C101   C104    1.445   .     S
C101   H112    1.091   .     S
C101   C242    1.466   .     D
C102   N103    1.475   .     S
C102   C104    1.421   .     D
C102   C241    1.466   .     S
N103   C105    1.465   .     D
N103   C119    1.380   .     S
C104   H113    1.119   .     S
C105   C106    1.465   .     S
C105   H114    1.093   .     S
C106   C107    1.430   1_554 S
C106   C111    1.428   1_554 D
C107   C108    1.438   .     D
C107   H115    1.097   .     S
C107   C106    1.430   1_556 S
C108   C109    1.429   .     S
C108   H116    1.095   .     S
C109   C110    1.432   .     D
C109   C324    1.581   1_655 S
C110   C111    1.439   .     S
C110   H117    1.096   .     S
C111   H118    1.094   .     S
C111   C106    1.428   1_556 D
C119   N120    1.167   .     T
C121   C124    1.445   .     S
C121   H132    1.091   .     S
C121   C302    1.466   .     D
C122   N123    1.475   .     S
C122   C124    1.421   .     D
C122   C301    1.466   .     S
N123   C125    1.465   .     D
N123   C139    1.380   .     S
C124   H133    1.119   .     S
C125   C126    1.465   .     S
C125   H134    1.093   .     S
C126   C127    1.430   1_554 S
C126   C131    1.428   1_554 D
C127   C128    1.438   .     D
C127   H135    1.097   .     S
C127   C126    1.430   1_556 S
C128   C129    1.429   .     S
C128   H136    1.095   .     S
C129   C130    1.432   .     D
C129   C324    1.581   .     S
C130   C131    1.439   .     S
C130   H137    1.096   .     S
C131   H138    1.094   .     S
C131   C126    1.428   1_556 D
C139   N140    1.167   .     T
C141   C144    1.445   .     S
C141   H152    1.091   .     S
C141   C282    1.466   .     D
C142   N143    1.475   .     S
C142   C281    1.466   .     S
C142   C144    1.421   1_545 D
N143   C159    1.380   .     S
N143   C145    1.465   1_545 D
C144   H153    1.119   .     S
C144   C142    1.421   1_565 D
C145   C146    1.465   .     S
C145   H154    1.093   .     S
C145   N143    1.465   1_565 D
C146   C147    1.430   .     S
C146   C151    1.428   1_565 D
C147   C148    1.438   .     D
C147   H155    1.097   .     S
C148   C149    1.429   .     S
C148   H156    1.095   .     S
C149   C150    1.432   1_565 D
C149   C323    1.581   1_565 S
C150   C151    1.439   .     S
C150   H157    1.096   .     S
C150   C149    1.432   1_545 D
C151   H158    1.094   .     S
C151   C146    1.428   1_545 D
C159   N160    1.167   .     T
C161   C164    1.445   .     D
C161   H172    1.091   .     S
C162   N163    1.475   .     S
C162   C164    1.421   .     S
N163   C165    1.465   .     D
N163   C179    1.380   .     S
C164   H173    1.119   .     S
C165   C166    1.465   .     S
C165   H174    1.093   .     S
C166   C167    1.430   1_556 S
C166   C171    1.428   1_556 D
C167   C168    1.438   .     D
C167   H175    1.097   .     S
C167   C166    1.430   1_554 S
C168   C169    1.429   .     S
C168   H176    1.095   .     S
C169   C170    1.432   .     D
C169   C323    1.581   1_565 S
C170   C171    1.439   .     S
C170   H177    1.096   .     S
C171   H178    1.094   .     S
C171   C166    1.428   1_554 D
C179   N180    1.167   .     T
C181   C184    1.445   .     D
C181   H192    1.091   .     S
C182   N183    1.475   .     S
C182   C184    1.421   1_455 S
N183   C199    1.380   .     S
N183   C185    1.465   1_455 D
C184   H193    1.119   .     S
C184   C182    1.421   1_655 S
C185   C186    1.465   .     S
C185   H194    1.093   .     S
C185   N183    1.465   1_655 D
C186   C187    1.430   .     S
C186   C191    1.428   1_655 D
C187   C188    1.438   .     D
C187   H195    1.097   .     S
C188   C189    1.429   .     S
C188   H196    1.095   .     S
C189   C190    1.432   1_655 D
C189   C324    1.581   1_655 S
C190   C191    1.439   .     S
C190   H197    1.096   .     S
C190   C189    1.432   1_455 D
C191   H198    1.094   .     S
C191   C186    1.428   1_455 D
C199   N200    1.167   .     T
C201   C204    1.445   .     D
C201   H212    1.091   .     S
C202   N203    1.475   .     S
C202   C204    1.421   1_655 S
N203   C219    1.380   .     S
N203   C205    1.465   1_655 D
C204   H213    1.119   .     S
C204   C202    1.421   1_455 S
C205   C206    1.465   .     S
C205   H214    1.093   .     S
C205   N203    1.465   1_455 D
C206   C207    1.430   .     S
C206   C211    1.428   1_455 D
C207   C208    1.438   .     D
C207   H215    1.097   .     S
C208   C209    1.429   .     S
C208   H216    1.095   .     S
C209   C324    1.581   .     S
C209   C210    1.432   1_455 D
C210   C211    1.439   .     S
C210   H217    1.096   .     S
C210   C209    1.432   1_655 D
C211   H218    1.094   .     S
C211   C206    1.428   1_655 D
C219   N220    1.167   .     T
C221   C224    1.445   .     D
C221   H232    1.091   .     S
C222   N223    1.475   .     S
C222   C224    1.421   .     S
N223   C225    1.465   .     D
N223   C239    1.380   .     S
C224   H233    1.119   .     S
C225   C226    1.465   .     S
C225   H234    1.093   .     S
C226   C227    1.430   1_556 S
C226   C231    1.428   1_556 D
C227   C228    1.438   .     D
C227   H235    1.097   .     S
C227   C226    1.430   1_554 S
C228   C229    1.429   .     S
C228   H236    1.095   .     S
C229   C230    1.432   .     D
C229   C323    1.581   .     S
C230   C231    1.439   .     S
C230   H237    1.096   .     S
C231   H238    1.094   .     S
C231   C226    1.428   1_554 D
C239   N240    1.167   .     T
C241   C244    1.445   .     D
C241   H252    1.091   .     S
C242   N243    1.475   .     S
C242   C244    1.421   .     S
N243   C245    1.465   .     D
N243   C259    1.380   .     S
C244   H253    1.119   .     S
C245   C246    1.465   .     S
C245   H254    1.093   .     S
C246   C247    1.430   .     S
C246   C251    1.428   .     D
C247   C248    1.438   .     D
C247   H255    1.097   .     S
C248   C249    1.429   .     S
C248   H256    1.095   .     S
C249   C250    1.432   .     D
C249   C321    1.581   1_556 S
C250   C251    1.439   .     S
C250   H257    1.096   .     S
C251   H258    1.094   .     S
C259   N260    1.167   .     T
C261   C264    1.445   .     D
C261   H272    1.091   .     S
C262   N263    1.475   1_556 S
C262   C264    1.421   1_545 S
N263   C279    1.380   .     S
N263   C262    1.475   1_554 S
N263   C265    1.465   1_545 D
C264   C262    1.421   1_565 S
C264   H273    1.119   1_556 S
C265   C266    1.465   .     S
C265   H274    1.093   .     S
C265   N263    1.465   1_565 D
C266   C267    1.430   .     S
C266   C271    1.428   1_565 D
C267   C268    1.438   .     D
C267   H275    1.097   .     S
C268   C269    1.429   .     S
C268   H276    1.095   .     S
C269   C270    1.432   1_565 D
C269   C322    1.581   1_565 S
C270   C271    1.439   .     S
C270   H277    1.096   .     S
C270   C269    1.432   1_545 D
C271   H278    1.094   .     S
C271   C266    1.428   1_545 D
H273   C264    1.119   1_554 S
C279   N280    1.167   .     T
C281   C284    1.445   .     D
C281   H292    1.091   .     S
C282   N283    1.475   1_556 S
C282   C284    1.421   1_565 S
N283   C299    1.380   .     S
N283   C282    1.475   1_554 S
N283   C285    1.465   1_565 D
C284   C282    1.421   1_545 S
C284   H293    1.119   1_556 S
C285   C286    1.465   .     S
C285   H294    1.093   .     S
C285   N283    1.465   1_545 D
C286   C287    1.430   .     S
C286   C291    1.428   1_545 D
C287   C288    1.438   .     D
C287   H295    1.097   .     S
C288   C289    1.429   .     S
C288   H296    1.095   .     S
C289   C290    1.432   1_545 D
C289   C322    1.581   1_655 S
C290   C291    1.439   .     S
C290   H297    1.096   .     S
C290   C289    1.432   1_565 D
C291   H298    1.094   .     S
C291   C286    1.428   1_565 D
H293   C284    1.119   1_554 S
C299   N300    1.167   .     T
C301   C304    1.445   .     D
C301   H312    1.091   .     S
C302   N303    1.475   .     S
C302   C304    1.421   .     S
N303   C305    1.465   .     D
N303   C319    1.380   .     S
C304   H313    1.119   .     S
C305   C306    1.465   .     S
C305   H314    1.093   .     S
C306   C307    1.430   .     S
C306   C311    1.428   .     D
C307   C308    1.438   .     D
C307   H315    1.097   .     S
C308   C309    1.429   .     S
C308   H316    1.095   .     S
C309   C310    1.432   .     D
C309   C321    1.581   1_556 S
C310   C311    1.439   .     S
C310   H317    1.096   .     S
C311   H318    1.094   .     S
C319   N320    1.167   .     T
C321   C249    1.581   1_554 S
C321   C309    1.581   1_554 S
C322   C49     1.581   1_445 S
C322   C269    1.581   1_545 S
C322   C289    1.581   1_455 S
C323   C149    1.581   1_545 S
C323   C169    1.581   1_545 S
C324   C109    1.581   1_455 S
C324   C189    1.581   1_455 S
