data_1227
_audit_creation_date              2023-09-08
_audit_creation_method            'Materials Studio'
_symmetry_space_group_name_H-M    'P1'
_symmetry_Int_Tables_number       1
_symmetry_cell_setting            triclinic
loop_
_symmetry_equiv_pos_as_xyz
  x,y,z
_cell_length_a                    37.7700
_cell_length_b                    37.7700
_cell_length_c                    3.5000
_cell_angle_alpha                 90.0000
_cell_angle_beta                  90.0000
_cell_angle_gamma                 120.0000
loop_
_atom_site_label
_atom_site_type_symbol
_atom_site_fract_x
_atom_site_fract_y
_atom_site_fract_z
_atom_site_U_iso_or_equiv
_atom_site_adp_type
_atom_site_occupancy
H1     H     0.29624   0.58979   0.00000   0.00000  Uiso   1.00
H2     H     0.23838   0.67727   0.00000   0.00000  Uiso   1.00
H3     H     0.16054   0.63885   0.00000   0.00000  Uiso   1.00
H4     H     0.16035   0.52246   0.00000   0.00000  Uiso   1.00
H5     H     0.23787   0.56145   0.00000   0.00000  Uiso   1.00
H6     H     0.50309   0.59689   0.00000   0.00000  Uiso   1.00
H7     H     0.42651   0.48281   0.00000   0.00000  Uiso   1.00
H8     H     0.55605   0.60636   0.00000   0.00000  Uiso   1.00
H9     H     0.62137   0.58113  -0.19723   0.00000  Uiso   1.00
H10    H     0.63036   0.62218   0.19723   0.00000  Uiso   1.00
C11    C     0.28866   0.64446   0.00000   0.00000  Uiso   1.00
C12    C     0.31218   0.62460   0.00000   0.00000  Uiso   1.00
C13    C     0.37752   0.62195   0.00000   0.00000  Uiso   1.00
C14    C     0.22073   0.64242   0.00000   0.00000  Uiso   1.00
C15    C     0.17774   0.62120   0.00000   0.00000  Uiso   1.00
C16    C     0.15545   0.57835   0.00000   0.00000  Uiso   1.00
C17    C     0.17741   0.55731   0.00000   0.00000  Uiso   1.00
C18    C     0.22042   0.57885   0.00000   0.00000  Uiso   1.00
C19    C     0.47901   0.56302   0.00000   0.00000  Uiso   1.00
C20    C     0.49123   0.53297   0.00000   0.00000  Uiso   1.00
C21    C     0.46001   0.49124   0.00000   0.00000  Uiso   1.00
C22    C     0.46708   0.45774   0.00000   0.00000  Uiso   1.00
C23    C     0.56680   0.58302   0.00000   0.00000  Uiso   1.00
C24    C     0.60882   0.59628   0.00000   0.00000  Uiso   1.00
N25    N     0.43936   0.55356   0.00000   0.00000  Uiso   1.00
H26    H     0.41021   0.70645   0.00000   0.00000  Uiso   1.00
H27    H     0.32273   0.56112   0.00000   0.00000  Uiso   1.00
H28    H     0.36115   0.52169   0.00000   0.00000  Uiso   1.00
H29    H     0.47754   0.63789   0.00000   0.00000  Uiso   1.00
H30    H     0.43855   0.67642   0.00000   0.00000  Uiso   1.00
H31    H     0.40311   0.90620   0.00000   0.00000  Uiso   1.00
H32    H     0.51719   0.94370   0.00000   0.00000  Uiso   1.00
H33    H     0.39364   0.94969   0.00000   0.00000  Uiso   1.00
H34    H     0.41887   0.04024  -0.19723   0.00000  Uiso   1.00
H35    H     0.37782   0.00818   0.19723   0.00000  Uiso   1.00
C36    C     0.35554   0.64419   0.00000   0.00000  Uiso   1.00
C37    C     0.37540   0.68757   0.00000   0.00000  Uiso   1.00
C38    C     0.37805   0.75557   0.00000   0.00000  Uiso   1.00
C39    C     0.35758   0.57832   0.00000   0.00000  Uiso   1.00
C40    C     0.37880   0.55654   0.00000   0.00000  Uiso   1.00
C41    C     0.42165   0.57710   0.00000   0.00000  Uiso   1.00
C42    C     0.44269   0.62010   0.00000   0.00000  Uiso   1.00
C43    C     0.42115   0.64157   0.00000   0.00000  Uiso   1.00
C44    C     0.43698   0.91599   0.00000   0.00000  Uiso   1.00
C45    C     0.46703   0.95826   0.00000   0.00000  Uiso   1.00
C46    C     0.50876   0.96877   0.00000   0.00000  Uiso   1.00
C47    C     0.54226   0.00934   0.00000   0.00000  Uiso   1.00
C48    C     0.41698   0.98378   0.00000   0.00000  Uiso   1.00
C49    C     0.40372   0.01254   0.00000   0.00000  Uiso   1.00
N50    N     0.44644   0.88580   0.00000   0.00000  Uiso   1.00
H51    H     0.29355   0.70376   0.00000   0.00000  Uiso   1.00
H52    H     0.43888   0.76162   0.00000   0.00000  Uiso   1.00
H53    H     0.47831   0.83946   0.00000   0.00000  Uiso   1.00
H54    H     0.36211   0.83965   0.00000   0.00000  Uiso   1.00
H55    H     0.32358   0.76213   0.00000   0.00000  Uiso   1.00
H56    H     0.09380   0.49691   0.00000   0.00000  Uiso   1.00
H57    H     0.05630   0.57349   0.00000   0.00000  Uiso   1.00
H58    H     0.05031   0.44395   0.00000   0.00000  Uiso   1.00
H59    H     0.95976   0.37863  -0.19723   0.00000  Uiso   1.00
H60    H     0.99182   0.36964   0.19723   0.00000  Uiso   1.00
C61    C     0.35581   0.71134   0.00000   0.00000  Uiso   1.00
C62    C     0.31243   0.68782   0.00000   0.00000  Uiso   1.00
C63    C     0.24443   0.62248   0.00000   0.00000  Uiso   1.00
C64    C     0.42168   0.77927   0.00000   0.00000  Uiso   1.00
C65    C     0.44346   0.82226   0.00000   0.00000  Uiso   1.00
C66    C     0.42290   0.84455   0.00000   0.00000  Uiso   1.00
C67    C     0.37990   0.82259   0.00000   0.00000  Uiso   1.00
C68    C     0.35843   0.77958   0.00000   0.00000  Uiso   1.00
C69    C     0.08401   0.52099   0.00000   0.00000  Uiso   1.00
C70    C     0.04174   0.50877   0.00000   0.00000  Uiso   1.00
C71    C     0.03123   0.53999   0.00000   0.00000  Uiso   1.00
C72    C     0.99066   0.53292   0.00000   0.00000  Uiso   1.00
C73    C     0.01622   0.43320   0.00000   0.00000  Uiso   1.00
C74    C     0.98746   0.39118   0.00000   0.00000  Uiso   1.00
N75    N     0.11420   0.56064   0.00000   0.00000  Uiso   1.00
H76    H     0.70376   0.41021   0.00000   0.00000  Uiso   1.00
H77    H     0.76162   0.32273   0.00000   0.00000  Uiso   1.00
H78    H     0.83946   0.36115   0.00000   0.00000  Uiso   1.00
H79    H     0.83965   0.47754   0.00000   0.00000  Uiso   1.00
H80    H     0.76213   0.43855   0.00000   0.00000  Uiso   1.00
H81    H     0.49691   0.40311   0.00000   0.00000  Uiso   1.00
H82    H     0.57349   0.51719   0.00000   0.00000  Uiso   1.00
H83    H     0.44395   0.39364   0.00000   0.00000  Uiso   1.00
H84    H     0.37863   0.41887  -0.19723   0.00000  Uiso   1.00
H85    H     0.36964   0.37782   0.19723   0.00000  Uiso   1.00
C86    C     0.71134   0.35554   0.00000   0.00000  Uiso   1.00
C87    C     0.68782   0.37540   0.00000   0.00000  Uiso   1.00
C88    C     0.62248   0.37805   0.00000   0.00000  Uiso   1.00
C89    C     0.77927   0.35758   0.00000   0.00000  Uiso   1.00
C90    C     0.82226   0.37880   0.00000   0.00000  Uiso   1.00
C91    C     0.84455   0.42165   0.00000   0.00000  Uiso   1.00
C92    C     0.82259   0.44269   0.00000   0.00000  Uiso   1.00
C93    C     0.77958   0.42115   0.00000   0.00000  Uiso   1.00
C94    C     0.52099   0.43698   0.00000   0.00000  Uiso   1.00
C95    C     0.50877   0.46703   0.00000   0.00000  Uiso   1.00
C96    C     0.53999   0.50876   0.00000   0.00000  Uiso   1.00
C97    C     0.53292   0.54226   0.00000   0.00000  Uiso   1.00
C98    C     0.43320   0.41698   0.00000   0.00000  Uiso   1.00
C99    C     0.39118   0.40372   0.00000   0.00000  Uiso   1.00
N100   N     0.56064   0.44644   0.00000   0.00000  Uiso   1.00
H101   H     0.58979   0.29355   0.00000   0.00000  Uiso   1.00
H102   H     0.67727   0.43888   0.00000   0.00000  Uiso   1.00
H103   H     0.63885   0.47831   0.00000   0.00000  Uiso   1.00
H104   H     0.52246   0.36211   0.00000   0.00000  Uiso   1.00
H105   H     0.56145   0.32358   0.00000   0.00000  Uiso   1.00
H106   H     0.59689   0.09380   0.00000   0.00000  Uiso   1.00
H107   H     0.48281   0.05630   0.00000   0.00000  Uiso   1.00
H108   H     0.60636   0.05031   0.00000   0.00000  Uiso   1.00
H109   H     0.58113   0.95976  -0.19723   0.00000  Uiso   1.00
H110   H     0.62218   0.99182   0.19723   0.00000  Uiso   1.00
C111   C     0.64446   0.35581   0.00000   0.00000  Uiso   1.00
C112   C     0.62460   0.31243   0.00000   0.00000  Uiso   1.00
C113   C     0.62195   0.24443   0.00000   0.00000  Uiso   1.00
C114   C     0.64242   0.42168   0.00000   0.00000  Uiso   1.00
C115   C     0.62120   0.44346   0.00000   0.00000  Uiso   1.00
C116   C     0.57835   0.42290   0.00000   0.00000  Uiso   1.00
C117   C     0.55731   0.37990   0.00000   0.00000  Uiso   1.00
C118   C     0.57885   0.35843   0.00000   0.00000  Uiso   1.00
C119   C     0.56302   0.08401   0.00000   0.00000  Uiso   1.00
C120   C     0.53297   0.04174   0.00000   0.00000  Uiso   1.00
C121   C     0.49124   0.03123   0.00000   0.00000  Uiso   1.00
C122   C     0.45774   0.99066   0.00000   0.00000  Uiso   1.00
C123   C     0.58302   0.01622   0.00000   0.00000  Uiso   1.00
C124   C     0.59628   0.98746   0.00000   0.00000  Uiso   1.00
N125   N     0.55356   0.11420   0.00000   0.00000  Uiso   1.00
H126   H     0.70645   0.29624   0.00000   0.00000  Uiso   1.00
H127   H     0.56112   0.23838   0.00000   0.00000  Uiso   1.00
H128   H     0.52169   0.16054   0.00000   0.00000  Uiso   1.00
H129   H     0.63789   0.16035   0.00000   0.00000  Uiso   1.00
H130   H     0.67642   0.23787   0.00000   0.00000  Uiso   1.00
H131   H     0.90620   0.50309   0.00000   0.00000  Uiso   1.00
H132   H     0.94370   0.42651   0.00000   0.00000  Uiso   1.00
H133   H     0.94969   0.55605   0.00000   0.00000  Uiso   1.00
H134   H     0.04024   0.62137  -0.19723   0.00000  Uiso   1.00
H135   H     0.00818   0.63036   0.19723   0.00000  Uiso   1.00
C136   C     0.64420   0.28866   0.00000   0.00000  Uiso   1.00
C137   C     0.68757   0.31218   0.00000   0.00000  Uiso   1.00
C138   C     0.75557   0.37752   0.00000   0.00000  Uiso   1.00
C139   C     0.57832   0.22073   0.00000   0.00000  Uiso   1.00
C140   C     0.55654   0.17774   0.00000   0.00000  Uiso   1.00
C141   C     0.57710   0.15545   0.00000   0.00000  Uiso   1.00
C142   C     0.62010   0.17741   0.00000   0.00000  Uiso   1.00
C143   C     0.64157   0.22042   0.00000   0.00000  Uiso   1.00
C144   C     0.91599   0.47901   0.00000   0.00000  Uiso   1.00
C145   C     0.95826   0.49123   0.00000   0.00000  Uiso   1.00
C146   C     0.96877   0.46001   0.00000   0.00000  Uiso   1.00
C147   C     0.00934   0.46708   0.00000   0.00000  Uiso   1.00
C148   C     0.98378   0.56680   0.00000   0.00000  Uiso   1.00
C149   C     0.01254   0.60882   0.00000   0.00000  Uiso   1.00
N150   N     0.88581   0.43936   0.00000   0.00000  Uiso   1.00
loop_
_geom_bond_atom_site_label_1
_geom_bond_atom_site_label_2
_geom_bond_distance
_geom_bond_site_symmetry_2
_ccdc_geom_bond_type
H1     C12     1.140   .     S
H2     C14     1.140   .     S
H3     C15     1.140   .     S
H4     C17     1.140   .     S
H5     C18     1.140   .     S
H6     C19     1.140   .     S
H7     C21     1.140   .     S
H8     C23     1.140   .     S
H9     C24     1.140   .     S
H10    C24     1.140   .     S
C11    C12     1.421   .     D
C11    C62     1.420   .     S
C11    C63     1.447   .     S
C12    C36     1.420   .     S
C13    C36     1.446   .     S
C13    C43     1.430   .     D
C13    C39     1.429   .     S
C14    C15     1.406   .     S
C14    C63     1.429   .     D
C15    C16     1.402   .     D
C16    C17     1.407   .     S
C16    N75     1.354   .     S
C17    C18     1.407   .     D
C18    C63     1.430   .     S
C19    C20     1.423   .     S
C19    N25     1.355   .     D
C20    C21     1.420   .     S
C20    C97     1.432   .     D
C21    C22     1.418   .     D
C22    C95     1.432   .     S
C22    C98     1.427   .     S
C23    C24     1.405   .     D
C23    C97     1.427   .     S
N25    C41     1.354   .     S
H26    C37     1.140   .     S
H27    C39     1.140   .     S
H28    C40     1.140   .     S
H29    C42     1.140   .     S
H30    C43     1.140   .     S
H31    C44     1.140   .     S
H32    C46     1.140   .     S
H33    C48     1.140   .     S
H34    C49     1.140   .     S
H35    C49     1.140   .     S
C36    C37     1.421   .     D
C37    C61     1.420   .     S
C38    C61     1.447   .     S
C38    C68     1.430   .     D
C38    C64     1.429   .     S
C39    C40     1.407   .     D
C40    C41     1.402   .     S
C41    C42     1.407   .     D
C42    C43     1.407   .     S
C44    C45     1.423   .     S
C44    N50     1.355   .     D
C45    C46     1.420   .     D
C45    C122    1.432   .     S
C46    C47     1.418   1_565 S
C47    C120    1.432   .     D
C47    C123    1.427   .     S
C47    C46     1.418   1_545 S
C48    C122    1.427   .     S
C48    C49     1.405   1_565 D
C49    C48     1.405   1_545 D
N50    C66     1.354   .     S
H51    C62     1.140   .     S
H52    C64     1.140   .     S
H53    C65     1.140   .     S
H54    C67     1.140   .     S
H55    C68     1.140   .     S
H56    C69     1.140   .     S
H57    C71     1.140   .     S
H58    C73     1.140   .     S
H59    C74     1.140   .     S
H60    C74     1.140   .     S
C61    C62     1.421   .     D
C64    C65     1.406   .     D
C65    C66     1.402   .     S
C66    C67     1.407   .     D
C67    C68     1.407   .     S
C69    C70     1.423   .     S
C69    N75     1.355   .     D
C70    C71     1.420   .     D
C70    C147    1.432   .     S
C71    C72     1.418   1_455 S
C72    C145    1.432   .     D
C72    C148    1.427   .     S
C72    C71     1.418   1_655 S
C73    C147    1.427   .     S
C73    C74     1.405   1_455 D
C74    C73     1.405   1_655 D
H76    C87     1.140   .     S
H77    C89     1.140   .     S
H78    C90     1.140   .     S
H79    C92     1.140   .     S
H80    C93     1.140   .     S
H81    C94     1.140   .     S
H82    C96     1.140   .     S
H83    C98     1.140   .     S
H84    C99     1.140   .     S
H85    C99     1.140   .     S
C86    C87     1.421   .     S
C86    C137    1.420   .     D
C86    C138    1.447   .     S
C87    C111    1.420   .     D
C88    C111    1.446   .     S
C88    C118    1.430   .     S
C88    C114    1.429   .     D
C89    C90     1.406   .     S
C89    C138    1.429   .     D
C90    C91     1.402   .     D
C91    C92     1.407   .     S
C91    N150    1.354   .     S
C92    C93     1.407   .     D
C93    C138    1.430   .     S
C94    C95     1.423   .     S
C94    N100    1.355   .     D
C95    C96     1.420   .     D
C96    C97     1.418   .     S
C98    C99     1.405   .     D
N100   C116    1.354   .     S
H101   C112    1.140   .     S
H102   C114    1.140   .     S
H103   C115    1.140   .     S
H104   C117    1.140   .     S
H105   C118    1.140   .     S
H106   C119    1.140   .     S
H107   C121    1.140   .     S
H108   C123    1.140   .     S
H109   C124    1.140   .     S
H110   C124    1.140   .     S
C111   C112    1.421   .     S
C112   C136    1.421   .     D
C113   C136    1.447   .     S
C113   C143    1.430   .     D
C113   C139    1.429   .     S
C114   C115    1.407   .     S
C115   C116    1.402   .     D
C116   C117    1.407   .     S
C117   C118    1.407   .     D
C119   C120    1.423   .     S
C119   N125    1.355   .     D
C120   C121    1.420   .     S
C121   C122    1.418   1_545 D
C122   C121    1.418   1_565 D
C123   C124    1.405   1_545 D
C124   C123    1.405   1_565 D
N125   C141    1.354   .     S
H126   C137    1.140   .     S
H127   C139    1.140   .     S
H128   C140    1.140   .     S
H129   C142    1.140   .     S
H130   C143    1.140   .     S
H131   C144    1.140   .     S
H132   C146    1.140   .     S
H133   C148    1.140   .     S
H134   C149    1.140   .     S
H135   C149    1.140   .     S
C136   C137    1.420   .     S
C139   C140    1.406   .     D
C140   C141    1.402   .     S
C141   C142    1.407   .     D
C142   C143    1.407   .     S
C144   C145    1.423   .     S
C144   N150    1.355   .     D
C145   C146    1.420   .     S
C146   C147    1.418   1_655 D
C147   C146    1.418   1_455 D
C148   C149    1.405   1_655 D
C149   C148    1.405   1_455 D
