data_1228
_audit_creation_date              2023-09-08
_audit_creation_method            'Materials Studio'
_symmetry_space_group_name_H-M    'P1'
_symmetry_Int_Tables_number       1
_symmetry_cell_setting            triclinic
loop_
_symmetry_equiv_pos_as_xyz
  x,y,z
_cell_length_a                    30.0000
_cell_length_b                    30.0000
_cell_length_c                    3.4000
_cell_angle_alpha                 90.0000
_cell_angle_beta                  90.0000
_cell_angle_gamma                 120.0000
loop_
_atom_site_label
_atom_site_type_symbol
_atom_site_fract_x
_atom_site_fract_y
_atom_site_fract_z
_atom_site_U_iso_or_equiv
_atom_site_adp_type
_atom_site_occupancy
C1     C     0.56000   0.42426   0.50000   0.00000  Uiso   1.00
C2     C     0.58875   0.47833   0.50000   0.00000  Uiso   1.00
N3     N     0.56433   0.50616   0.50000   0.00000  Uiso   1.00
C4     C     0.48376   0.97160   0.50000   0.00000  Uiso   1.00
C5     C     0.48224   0.42993   0.50000   0.00000  Uiso   1.00
C6     C     0.50635   0.40051   0.50000   0.00000  Uiso   1.00
N7     N     0.60791   0.19080   0.50000   0.00000  Uiso   1.00
C8     C     0.59308   0.22467   0.50000   0.00000  Uiso   1.00
C9     C     0.63110   0.28021   0.50000   0.00000  Uiso   1.00
C10    C     0.61383   0.31580   0.50000   0.00000  Uiso   1.00
H11    H     0.36981   0.50110   0.50000   0.00000  Uiso   1.00
H12    H     0.55933   0.58936   0.50000   0.00000  Uiso   1.00
H13    H     0.51678   0.64105   0.50000   0.00000  Uiso   1.00
H14    H     0.66040   0.44720   0.50000   0.00000  Uiso   1.00
H15    H     0.72913   0.42706   0.50000   0.00000  Uiso   1.00
C16    C     0.57574   0.13574   0.50000   0.00000  Uiso   1.00
C17    C     0.52167   0.11042   0.50000   0.00000  Uiso   1.00
N18    N     0.49384   0.05817   0.50000   0.00000  Uiso   1.00
C19    C     0.02840   0.51216   0.50000   0.00000  Uiso   1.00
C20    C     0.57007   0.05231   0.50000   0.00000  Uiso   1.00
C21    C     0.59949   0.10584   0.50000   0.00000  Uiso   1.00
N22    N     0.80920   0.41711   0.50000   0.00000  Uiso   1.00
C23    C     0.77533   0.36841   0.50000   0.00000  Uiso   1.00
C24    C     0.71979   0.35089   0.50000   0.00000  Uiso   1.00
C25    C     0.68420   0.29803   0.50000   0.00000  Uiso   1.00
H26    H     0.49890   0.86871   0.50000   0.00000  Uiso   1.00
H27    H     0.41064   0.96997   0.50000   0.00000  Uiso   1.00
H28    H     0.35895   0.87573   0.50000   0.00000  Uiso   1.00
H29    H     0.55280   0.21320   0.50000   0.00000  Uiso   1.00
H30    H     0.57294   0.30207   0.50000   0.00000  Uiso   1.00
C31    C     0.86426   0.44000   0.50000   0.00000  Uiso   1.00
C32    C     0.88958   0.41125   0.50000   0.00000  Uiso   1.00
N33    N     0.94183   0.43567   0.50000   0.00000  Uiso   1.00
C34    C     0.48784   0.51624   0.50000   0.00000  Uiso   1.00
C35    C     0.94769   0.51776   0.50000   0.00000  Uiso   1.00
C36    C     0.89416   0.49365   0.50000   0.00000  Uiso   1.00
N37    N     0.58289   0.39209   0.50000   0.00000  Uiso   1.00
C38    C     0.63159   0.40692   0.50000   0.00000  Uiso   1.00
C39    C     0.64911   0.36890   0.50000   0.00000  Uiso   1.00
C40    C     0.70197   0.38617   0.50000   0.00000  Uiso   1.00
H41    H     0.13129   0.63019   0.50000   0.00000  Uiso   1.00
H42    H     0.03003   0.44067   0.50000   0.00000  Uiso   1.00
H43    H     0.12427   0.48322   0.50000   0.00000  Uiso   1.00
H44    H     0.78680   0.33960   0.50000   0.00000  Uiso   1.00
H45    H     0.69793   0.27087   0.50000   0.00000  Uiso   1.00
C46    C     0.44000   0.57574   0.50000   0.00000  Uiso   1.00
C47    C     0.41125   0.52167   0.50000   0.00000  Uiso   1.00
N48    N     0.43567   0.49384   0.50000   0.00000  Uiso   1.00
C49    C     0.51624   0.02840   0.50000   0.00000  Uiso   1.00
C50    C     0.51776   0.57007   0.50000   0.00000  Uiso   1.00
C51    C     0.49365   0.59949   0.50000   0.00000  Uiso   1.00
N52    N     0.39209   0.80920   0.50000   0.00000  Uiso   1.00
C53    C     0.40692   0.77533   0.50000   0.00000  Uiso   1.00
C54    C     0.36890   0.71979   0.50000   0.00000  Uiso   1.00
C55    C     0.38617   0.68420   0.50000   0.00000  Uiso   1.00
H56    H     0.63019   0.49890   0.50000   0.00000  Uiso   1.00
H57    H     0.44067   0.41064   0.50000   0.00000  Uiso   1.00
H58    H     0.48322   0.35895   0.50000   0.00000  Uiso   1.00
H59    H     0.33960   0.55280   0.50000   0.00000  Uiso   1.00
H60    H     0.27087   0.57294   0.50000   0.00000  Uiso   1.00
C61    C     0.42426   0.86426   0.50000   0.00000  Uiso   1.00
C62    C     0.47833   0.88958   0.50000   0.00000  Uiso   1.00
N63    N     0.50616   0.94183   0.50000   0.00000  Uiso   1.00
C64    C     0.97160   0.48784   0.50000   0.00000  Uiso   1.00
C65    C     0.42993   0.94769   0.50000   0.00000  Uiso   1.00
C66    C     0.40051   0.89416   0.50000   0.00000  Uiso   1.00
N67    N     0.19080   0.58289   0.50000   0.00000  Uiso   1.00
C68    C     0.22467   0.63159   0.50000   0.00000  Uiso   1.00
C69    C     0.28021   0.64911   0.50000   0.00000  Uiso   1.00
C70    C     0.31580   0.70197   0.50000   0.00000  Uiso   1.00
H71    H     0.50110   0.13129   0.50000   0.00000  Uiso   1.00
H72    H     0.58936   0.03003   0.50000   0.00000  Uiso   1.00
H73    H     0.64105   0.12427   0.50000   0.00000  Uiso   1.00
H74    H     0.44720   0.78680   0.50000   0.00000  Uiso   1.00
H75    H     0.42706   0.69793   0.50000   0.00000  Uiso   1.00
C76    C     0.13574   0.56000   0.50000   0.00000  Uiso   1.00
C77    C     0.11042   0.58875   0.50000   0.00000  Uiso   1.00
N78    N     0.05817   0.56433   0.50000   0.00000  Uiso   1.00
C79    C     0.51216   0.48376   0.50000   0.00000  Uiso   1.00
C80    C     0.05231   0.48224   0.50000   0.00000  Uiso   1.00
C81    C     0.10584   0.50635   0.50000   0.00000  Uiso   1.00
N82    N     0.41711   0.60791   0.50000   0.00000  Uiso   1.00
C83    C     0.36841   0.59308   0.50000   0.00000  Uiso   1.00
C84    C     0.35089   0.63110   0.50000   0.00000  Uiso   1.00
C85    C     0.29803   0.61383   0.50000   0.00000  Uiso   1.00
H86    H     0.86871   0.36981   0.50000   0.00000  Uiso   1.00
H87    H     0.96997   0.55933   0.50000   0.00000  Uiso   1.00
H88    H     0.87573   0.51678   0.50000   0.00000  Uiso   1.00
H89    H     0.21320   0.66040   0.50000   0.00000  Uiso   1.00
H90    H     0.30207   0.72913   0.50000   0.00000  Uiso   1.00
loop_
_geom_bond_atom_site_label_1
_geom_bond_atom_site_label_2
_geom_bond_distance
_geom_bond_site_symmetry_2
_ccdc_geom_bond_type
C1     C2      1.406   .     D
C1     C6      1.397   .     S
C1     N37     1.437   .     S
C2     N3      1.358   .     S
C2     H56     1.077   .     S
N3     C79     1.360   .     D
C4     N63     1.360   .     D
C4     C65     1.401   .     S
C4     C49     1.481   1_565 S
C5     C6      1.393   .     D
C5     C79     1.401   .     S
C5     H57     1.081   .     S
C6     H58     1.082   .     S
N7     C8      1.297   .     D
N7     C16     1.437   .     S
C8     C9      1.475   .     S
C8     H29     1.078   .     S
C9     C10     1.401   .     S
C9     C25     1.404   .     D
C10    C39     1.404   .     D
C10    H30     1.081   .     S
H11    C47     1.077   .     S
H12    C50     1.081   .     S
H13    C51     1.082   .     S
H14    C38     1.078   .     S
H15    C40     1.081   .     S
C16    C17     1.406   .     D
C16    C21     1.397   .     S
C17    N18     1.358   .     S
C17    H71     1.077   .     S
N18    C49     1.360   .     D
C19    N78     1.360   .     S
C19    C80     1.401   .     D
C19    C64     1.481   1_455 S
C20    C21     1.393   .     D
C20    C49     1.401   .     S
C20    H72     1.081   .     S
C21    H73     1.082   .     S
N22    C23     1.297   .     D
N22    C31     1.437   .     S
C23    C24     1.475   .     S
C23    H44     1.078   .     S
C24    C25     1.401   .     S
C24    C40     1.404   .     D
C25    H45     1.081   .     S
H26    C62     1.077   .     S
H27    C65     1.081   .     S
H28    C66     1.082   .     S
C31    C32     1.406   .     S
C31    C36     1.397   .     D
C32    N33     1.358   .     D
C32    H86     1.077   .     S
N33    C64     1.360   .     S
C34    N48     1.360   .     D
C34    C50     1.401   .     S
C34    C79     1.481   .     S
C35    C36     1.393   .     S
C35    C64     1.401   .     D
C35    H87     1.081   .     S
C36    H88     1.082   .     S
N37    C38     1.297   .     D
C38    C39     1.475   .     S
C39    C40     1.401   .     S
H41    C77     1.077   .     S
H42    C80     1.081   .     S
H43    C81     1.082   .     S
C46    C47     1.406   .     D
C46    C51     1.397   .     S
C46    N82     1.437   .     S
C47    N48     1.358   .     S
C49    C4      1.481   1_545 S
C50    C51     1.393   .     D
N52    C53     1.297   .     D
N52    C61     1.437   .     S
C53    C54     1.475   .     S
C53    H74     1.078   .     S
C54    C55     1.401   .     S
C54    C70     1.404   .     D
C55    C84     1.404   .     D
C55    H75     1.081   .     S
H59    C83     1.078   .     S
H60    C85     1.081   .     S
C61    C62     1.406   .     D
C61    C66     1.397   .     S
C62    N63     1.358   .     S
C64    C19     1.481   1_655 S
C65    C66     1.393   .     D
N67    C68     1.297   .     D
N67    C76     1.437   .     S
C68    C69     1.475   .     S
C68    H89     1.078   .     S
C69    C70     1.401   .     S
C69    C85     1.404   .     D
C70    H90     1.081   .     S
C76    C77     1.406   .     S
C76    C81     1.397   .     D
C77    N78     1.358   .     D
C80    C81     1.393   .     S
N82    C83     1.297   .     D
C83    C84     1.475   .     S
C84    C85     1.401   .     S
