data_123
_audit_creation_date              2023-09-08
_audit_creation_method            'Materials Studio'
_symmetry_space_group_name_H-M    'P1'
_symmetry_Int_Tables_number       1
_symmetry_cell_setting            triclinic
loop_
_symmetry_equiv_pos_as_xyz
  x,y,z
_cell_length_a                    30.0198
_cell_length_b                    30.0198
_cell_length_c                    3.4040
_cell_angle_alpha                 90.0000
_cell_angle_beta                  90.0000
_cell_angle_gamma                 120.0000
loop_
_atom_site_label
_atom_site_type_symbol
_atom_site_fract_x
_atom_site_fract_y
_atom_site_fract_z
_atom_site_U_iso_or_equiv
_atom_site_adp_type
_atom_site_occupancy
B1     B     0.11357   0.55678   0.50000   0.00000  Uiso   1.00
B2     B     0.44321   0.55678   0.50000   0.00000  Uiso   1.00
B3     B     0.44321   0.88643   0.50000   0.00000  Uiso   1.00
B4     B     0.88643   0.44321   0.50000   0.00000  Uiso   1.00
B5     B     0.55678   0.44321   0.50000   0.00000  Uiso   1.00
B6     B     0.55678   0.11357   0.50000   0.00000  Uiso   1.00
O7     O     0.61305   0.14429   0.50000   0.00000  Uiso   1.00
C8     C     0.47312   0.02688   0.50000   0.00000  Uiso   1.00
C9     C     0.61950   0.19328   0.50000   0.00000  Uiso   1.00
C10    C     0.66641   0.23896   0.50000   0.00000  Uiso   1.00
C11    C     0.66687   0.28621   0.50000   0.00000  Uiso   1.00
H12    H     0.46546   0.69923   0.50000   0.00000  Uiso   1.00
H13    H     0.54812   0.59553   0.50000   0.00000  Uiso   1.00
O14    O     0.85571   0.46876   0.50000   0.00000  Uiso   1.00
C15    C     0.97312   0.44624   0.50000   0.00000  Uiso   1.00
C16    C     0.80672   0.42622   0.50000   0.00000  Uiso   1.00
C17    C     0.76104   0.42745   0.50000   0.00000  Uiso   1.00
C18    C     0.71379   0.38066   0.50000   0.00000  Uiso   1.00
H19    H     0.30077   0.76623   0.50000   0.00000  Uiso   1.00
H20    H     0.40447   0.95259   0.50000   0.00000  Uiso   1.00
O21    O     0.53124   0.38695   0.50000   0.00000  Uiso   1.00
C22    C     0.55376   0.52688   0.50000   0.00000  Uiso   1.00
C23    C     0.57378   0.38050   0.50000   0.00000  Uiso   1.00
C24    C     0.57255   0.33359   0.50000   0.00000  Uiso   1.00
C25    C     0.61934   0.33313   0.50000   0.00000  Uiso   1.00
H26    H     0.23377   0.53454   0.50000   0.00000  Uiso   1.00
H27    H     0.04741   0.45188   0.50000   0.00000  Uiso   1.00
O28    O     0.38695   0.85571   0.50000   0.00000  Uiso   1.00
C29    C     0.52688   0.97312   0.50000   0.00000  Uiso   1.00
C30    C     0.38050   0.80672   0.50000   0.00000  Uiso   1.00
C31    C     0.33359   0.76104   0.50000   0.00000  Uiso   1.00
C32    C     0.33313   0.71379   0.50000   0.00000  Uiso   1.00
H33    H     0.53454   0.30077   0.50000   0.00000  Uiso   1.00
H34    H     0.45188   0.40447   0.50000   0.00000  Uiso   1.00
O35    O     0.14429   0.53124   0.50000   0.00000  Uiso   1.00
C36    C     0.02688   0.55376   0.50000   0.00000  Uiso   1.00
C37    C     0.19328   0.57378   0.50000   0.00000  Uiso   1.00
C38    C     0.23896   0.57255   0.50000   0.00000  Uiso   1.00
C39    C     0.28621   0.61934   0.50000   0.00000  Uiso   1.00
H40    H     0.69923   0.23377   0.50000   0.00000  Uiso   1.00
H41    H     0.59553   0.04741   0.50000   0.00000  Uiso   1.00
O42    O     0.46876   0.61305   0.50000   0.00000  Uiso   1.00
C43    C     0.44624   0.47312   0.50000   0.00000  Uiso   1.00
C44    C     0.42622   0.61950   0.50000   0.00000  Uiso   1.00
C45    C     0.42745   0.66641   0.50000   0.00000  Uiso   1.00
C46    C     0.38066   0.66687   0.50000   0.00000  Uiso   1.00
H47    H     0.76623   0.46546   0.50000   0.00000  Uiso   1.00
H48    H     0.95259   0.54812   0.50000   0.00000  Uiso   1.00
O49    O     0.14429   0.61305   0.50000   0.00000  Uiso   1.00
C50    C     0.02688   0.47312   0.50000   0.00000  Uiso   1.00
C51    C     0.19328   0.61950   0.50000   0.00000  Uiso   1.00
C52    C     0.23896   0.66641   0.50000   0.00000  Uiso   1.00
C53    C     0.28621   0.66687   0.50000   0.00000  Uiso   1.00
H54    H     0.69923   0.46546   0.50000   0.00000  Uiso   1.00
H55    H     0.59553   0.54812   0.50000   0.00000  Uiso   1.00
O56    O     0.46876   0.85571   0.50000   0.00000  Uiso   1.00
C57    C     0.44624   0.97312   0.50000   0.00000  Uiso   1.00
C58    C     0.42622   0.80672   0.50000   0.00000  Uiso   1.00
C59    C     0.42745   0.76104   0.50000   0.00000  Uiso   1.00
C60    C     0.38066   0.71379   0.50000   0.00000  Uiso   1.00
H61    H     0.76623   0.30077   0.50000   0.00000  Uiso   1.00
H62    H     0.95259   0.40447   0.50000   0.00000  Uiso   1.00
O63    O     0.38695   0.53124   0.50000   0.00000  Uiso   1.00
C64    C     0.52688   0.55376   0.50000   0.00000  Uiso   1.00
C65    C     0.38050   0.57378   0.50000   0.00000  Uiso   1.00
C66    C     0.33359   0.57255   0.50000   0.00000  Uiso   1.00
C67    C     0.33313   0.61934   0.50000   0.00000  Uiso   1.00
H68    H     0.53454   0.23377   0.50000   0.00000  Uiso   1.00
H69    H     0.45188   0.04741   0.50000   0.00000  Uiso   1.00
O70    O     0.85571   0.38695   0.50000   0.00000  Uiso   1.00
C71    C     0.97312   0.52688   0.50000   0.00000  Uiso   1.00
C72    C     0.80672   0.38050   0.50000   0.00000  Uiso   1.00
C73    C     0.76104   0.33359   0.50000   0.00000  Uiso   1.00
C74    C     0.71379   0.33313   0.50000   0.00000  Uiso   1.00
H75    H     0.30077   0.53454   0.50000   0.00000  Uiso   1.00
H76    H     0.40447   0.45188   0.50000   0.00000  Uiso   1.00
O77    O     0.53124   0.14429   0.50000   0.00000  Uiso   1.00
C78    C     0.55376   0.02688   0.50000   0.00000  Uiso   1.00
C79    C     0.57378   0.19328   0.50000   0.00000  Uiso   1.00
C80    C     0.57255   0.23896   0.50000   0.00000  Uiso   1.00
C81    C     0.61934   0.28621   0.50000   0.00000  Uiso   1.00
H82    H     0.23377   0.69923   0.50000   0.00000  Uiso   1.00
H83    H     0.04741   0.59553   0.50000   0.00000  Uiso   1.00
O84    O     0.61305   0.46876   0.50000   0.00000  Uiso   1.00
C85    C     0.47312   0.44624   0.50000   0.00000  Uiso   1.00
C86    C     0.61950   0.42622   0.50000   0.00000  Uiso   1.00
C87    C     0.66641   0.42745   0.50000   0.00000  Uiso   1.00
C88    C     0.66687   0.38066   0.50000   0.00000  Uiso   1.00
H89    H     0.46546   0.76623   0.50000   0.00000  Uiso   1.00
H90    H     0.54812   0.95259   0.50000   0.00000  Uiso   1.00
C91    C     0.94617   0.47308   0.50000   0.00000  Uiso   1.00
C92    C     0.52691   0.47308   0.50000   0.00000  Uiso   1.00
C93    C     0.52691   0.05383   0.50000   0.00000  Uiso   1.00
C94    C     0.05383   0.52692   0.50000   0.00000  Uiso   1.00
C95    C     0.47308   0.52691   0.50000   0.00000  Uiso   1.00
C96    C     0.47308   0.94617   0.50000   0.00000  Uiso   1.00
loop_
_geom_bond_atom_site_label_1
_geom_bond_atom_site_label_2
_geom_bond_distance
_geom_bond_site_symmetry_2
_ccdc_geom_bond_type
B1     O35     1.465   .     S
B1     O49     1.465   .     S
B1     C94     1.553   .     S
B2     O42     1.465   .     S
B2     O63     1.465   .     S
B2     C95     1.553   .     S
B3     O28     1.465   .     S
B3     O56     1.465   .     S
B3     C96     1.553   .     S
B4     O14     1.465   .     S
B4     O70     1.465   .     S
B4     C91     1.553   .     S
B5     O21     1.465   .     S
B5     O84     1.465   .     S
B5     C92     1.553   .     S
B6     O7      1.465   .     S
B6     O77     1.465   .     S
B6     C93     1.553   .     S
O7     C9      1.384   .     S
C8     C57     1.398   1_545 S
C8     H69     1.086   .     S
C8     C93     1.399   .     D
C9     C10     1.390   .     D
C9     C79     1.373   .     S
C10    C11     1.412   .     S
C10    H40     1.072   .     S
C11    C74     1.409   .     S
C11    C81     1.427   .     D
H12    C45     1.072   .     S
H13    C64     1.086   .     S
O14    C16     1.384   .     S
C15    C50     1.398   1_655 D
C15    H62     1.086   .     S
C15    C91     1.399   .     S
C16    C17     1.390   .     S
C16    C72     1.373   .     D
C17    C18     1.412   .     D
C17    H47     1.072   .     S
C18    C74     1.427   .     S
C18    C88     1.409   .     S
H19    C31     1.072   .     S
H20    C57     1.086   .     S
O21    C23     1.384   .     S
C22    H55     1.086   .     S
C22    C64     1.398   .     D
C22    C92     1.399   .     S
C23    C24     1.390   .     D
C23    C86     1.373   .     S
C24    C25     1.412   .     S
C24    H33     1.072   .     S
C25    C81     1.409   .     S
C25    C88     1.427   .     D
H26    C38     1.072   .     S
H27    C50     1.086   .     S
O28    C30     1.384   .     S
C29    C78     1.398   1_565 D
C29    H90     1.086   .     S
C29    C96     1.399   .     S
C30    C31     1.390   .     D
C30    C58     1.373   .     S
C31    C32     1.412   .     S
C32    C53     1.409   .     S
C32    C60     1.427   .     D
H34    C85     1.086   .     S
O35    C37     1.384   .     S
C36    C71     1.398   1_455 S
C36    H83     1.086   .     S
C36    C94     1.399   .     D
C37    C38     1.390   .     D
C37    C51     1.373   .     S
C38    C39     1.412   .     S
C39    C53     1.427   .     D
C39    C67     1.409   .     S
H41    C78     1.086   .     S
O42    C44     1.384   .     S
C43    H76     1.086   .     S
C43    C85     1.398   .     S
C43    C95     1.399   .     D
C44    C45     1.390   .     S
C44    C65     1.373   .     D
C45    C46     1.412   .     D
C46    C60     1.409   .     S
C46    C67     1.427   .     S
H48    C71     1.086   .     S
O49    C51     1.384   .     S
C50    C15     1.398   1_455 D
C50    C94     1.399   .     S
C51    C52     1.390   .     D
C52    C53     1.412   .     S
C52    H82     1.072   .     S
H54    C87     1.072   .     S
O56    C58     1.384   .     S
C57    C8      1.398   1_565 S
C57    C96     1.399   .     D
C58    C59     1.390   .     D
C59    C60     1.412   .     S
C59    H89     1.072   .     S
H61    C73     1.072   .     S
O63    C65     1.384   .     S
C64    C95     1.399   .     S
C65    C66     1.390   .     S
C66    C67     1.412   .     D
C66    H75     1.072   .     S
H68    C80     1.072   .     S
O70    C72     1.384   .     S
C71    C36     1.398   1_655 S
C71    C91     1.399   .     D
C72    C73     1.390   .     S
C73    C74     1.412   .     D
O77    C79     1.384   .     S
C78    C29     1.398   1_545 D
C78    C93     1.399   .     S
C79    C80     1.390   .     D
C80    C81     1.412   .     S
O84    C86     1.384   .     S
C85    C92     1.399   .     D
C86    C87     1.390   .     D
C87    C88     1.412   .     S
