data_1230
_audit_creation_date              2023-09-08
_audit_creation_method            'Materials Studio'
_symmetry_space_group_name_H-M    'P1'
_symmetry_Int_Tables_number       1
_symmetry_cell_setting            triclinic
loop_
_symmetry_equiv_pos_as_xyz
  x,y,z
_cell_length_a                    22.4763
_cell_length_b                    22.4763
_cell_length_c                    3.4164
_cell_angle_alpha                 90.0000
_cell_angle_beta                  90.0000
_cell_angle_gamma                 120.0000
loop_
_atom_site_label
_atom_site_type_symbol
_atom_site_fract_x
_atom_site_fract_y
_atom_site_fract_z
_atom_site_U_iso_or_equiv
_atom_site_adp_type
_atom_site_occupancy
C11    C     1.40772   1.00212   0.05865   0.00000  Uiso   1.00
C22    C     1.49941   0.97980   0.02843   0.00000  Uiso   1.00
C33    C     1.47955   1.03081   0.04117   0.00000  Uiso   1.00
C44    C     1.53307   1.10499   0.03653   0.00000  Uiso   1.00
C55    C     0.88415   1.38479   0.04080   0.00000  Uiso   1.00
C66    C     0.95419   1.40638   0.04176   0.00000  Uiso   1.00
C77    C     1.00693   1.47656   0.04001   0.00000  Uiso   1.00
C88    C     0.98211   1.52285   0.03760   0.00000  Uiso   1.00
C99    C     0.91177   1.50098   0.03718   0.00000  Uiso   1.00
C1010  C     0.85888   1.43072   0.03853   0.00000  Uiso   1.00
C1111  C     1.08105   1.49573   0.04100   0.00000  Uiso   1.00
N1212  N     1.27196   1.68651   0.03725   0.00000  Uiso   1.00
C1313  C     1.26575   1.62234   0.03961   0.00000  Uiso   1.00
N1414  N     1.32496   1.61615   0.03915   0.00000  Uiso   1.00
N1515  N     1.20094   1.56256   0.03964   0.00000  Uiso   1.00
N1616  N     1.32976   1.55638   0.03883   0.00000  Uiso   1.00
N1717  N     1.33381   1.75055   0.04041   0.00000  Uiso   1.00
N1818  N     1.13596   1.55746   0.03636   0.00000  Uiso   1.00
C1919  C     1.36520   1.43903   0.04104   0.00000  Uiso   1.00
C2020  C     1.38668   1.39079   0.04161   0.00000  Uiso   1.00
C2121  C     1.45680   1.40823   0.04071   0.00000  Uiso   1.00
C2222  C     1.50341   1.47933   0.03934   0.00000  Uiso   1.00
C2323  C     1.48169   1.52755   0.03900   0.00000  Uiso   1.00
C2424  C     1.41155   1.51013   0.03965   0.00000  Uiso   1.00
C2525  C     1.39215   1.56398   0.03910   0.00000  Uiso   1.00
C2626  C     1.47512   1.35347   0.04135   0.00000  Uiso   1.00
N2727  N     1.58879   1.22501   0.03902   0.00000  Uiso   1.00
C2828  C     1.59851   1.29193   0.03995   0.00000  Uiso   1.00
N2929  N     1.53995   1.29911   0.04095   0.00000  Uiso   1.00
N3030  N     1.66406   1.34882   0.03690   0.00000  Uiso   1.00
N3131  N     1.53673   1.35972   0.03879   0.00000  Uiso   1.00
N3232  N     1.52741   1.16114   0.04265   0.00000  Uiso   1.00
N3333  N     1.72874   1.35023   0.03786   0.00000  Uiso   1.00
C3434  C     1.78466   1.41230   0.03626   0.00000  Uiso   1.00
C3535  C     1.36169   1.93142   0.06260   0.00000  Uiso   1.00
C3636  C     1.38152   1.88034   0.04892   0.00000  Uiso   1.00
C3737  C     1.45339   1.90911   0.03209   0.00000  Uiso   1.00
C3838  C     1.32690   1.80601   0.04843   0.00000  Uiso   1.00
H3939  H     1.38833   1.03760   0.06887   0.00000  Uiso   1.00
H4040  H     1.55375   0.99613   0.01450   0.00000  Uiso   1.00
H4141  H     1.58465   1.11028   0.02577   0.00000  Uiso   1.00
H4242  H     0.84631   1.33046   0.04202   0.00000  Uiso   1.00
H4343  H     0.96794   1.36642   0.04373   0.00000  Uiso   1.00
H4444  H     1.02004   1.57729   0.03714   0.00000  Uiso   1.00
H4545  H     0.89805   1.54089   0.03554   0.00000  Uiso   1.00
H4646  H     1.08576   1.44896   0.04366   0.00000  Uiso   1.00
H4747  H     1.22525   1.68717   0.05055   0.00000  Uiso   1.00
H4848  H     1.36971   1.66266   0.03964   0.00000  Uiso   1.00
H4949  H     1.20284   1.51778   0.04030   0.00000  Uiso   1.00
H5050  H     1.31094   1.42265   0.04166   0.00000  Uiso   1.00
H5151  H     1.34690   1.33706   0.04259   0.00000  Uiso   1.00
H5252  H     1.55775   1.49574   0.03879   0.00000  Uiso   1.00
H5353  H     1.52149   1.58126   0.03792   0.00000  Uiso   1.00
H5454  H     1.43814   1.61575   0.03847   0.00000  Uiso   1.00
H5555  H     1.42835   1.30218   0.04304   0.00000  Uiso   1.00
H5656  H     1.63423   1.22463   0.03742   0.00000  Uiso   1.00
H5757  H     1.49428   1.25332   0.04311   0.00000  Uiso   1.00
H5858  H     1.66641   1.39640   0.03997   0.00000  Uiso   1.00
H5959  H     1.78048   1.45932   0.03519   0.00000  Uiso   1.00
H6060  H     1.30735   1.91477   0.07641   0.00000  Uiso   1.00
H6161  H     1.47320   1.87398   0.02116   0.00000  Uiso   1.00
H6262  H     1.27537   1.80040   0.05805   0.00000  Uiso   1.00
Cl6369 Cl    1.14568   0.71105   0.32410   0.00000  Uiso   1.00
Cl6470 Cl    1.73277   1.53320   0.09347   0.00000  Uiso   1.00
loop_
_geom_bond_atom_site_label_1
_geom_bond_atom_site_label_2
_geom_bond_distance
_geom_bond_site_symmetry_2
_ccdc_geom_bond_type
C11    C33     1.409   .     S
C11    H3939   1.084   .     S
C11    C3535   1.397   1_545 D
C22    C33     1.424   .     D
C22    H4040   1.086   .     S
C22    C3737   1.397   1_545 S
C33    C44     1.490   .     S
C44    N3232   1.330   .     D
C44    H4141   1.105   .     S
C55    C66     1.396   .     S
C55    C1010   1.405   .     D
C55    H4242   1.084   .     S
C66    C77     1.423   .     D
C66    H4343   1.086   .     S
C77    C88     1.405   .     S
C77    C1111   1.498   .     S
C88    C99     1.401   .     D
C88    H4444   1.087   .     S
C99    C1010   1.425   .     S
C99    H4545   1.085   .     S
C1010  C3434   1.505   1_455 S
C1111  N1818   1.318   .     D
C1111  H4646   1.108   .     S
N1212  C1313   1.378   .     D
N1212  N1717   1.415   .     S
N1212  H4747   1.058   .     S
C1313  N1414   1.406   .     S
C1313  N1515   1.404   .     S
N1414  N1616   1.400   .     S
N1414  H4848   1.026   .     S
N1515  N1818   1.407   .     S
N1515  H4949   1.029   .     S
N1616  C2525   1.325   .     D
N1717  C3838   1.331   .     D
C1919  C2020   1.390   .     S
C1919  C2424   1.405   .     D
C1919  H5050   1.083   .     S
C2020  C2121   1.421   .     D
C2020  H5151   1.085   .     S
C2121  C2222   1.406   .     S
C2121  C2626   1.480   .     S
C2222  C2323   1.394   .     D
C2222  H5252   1.085   .     S
C2323  C2424   1.422   .     S
C2323  H5353   1.085   .     S
C2424  C2525   1.477   .     S
C2525  H5454   1.104   .     S
C2626  N3131   1.320   .     D
C2626  H5555   1.106   .     S
N2727  C2828   1.408   .     D
N2727  N3232   1.408   .     S
N2727  H5656   1.026   .     S
C2828  N2929   1.404   .     S
C2828  N3030   1.386   .     S
N2929  N3131   1.400   .     S
N2929  H5757   1.028   .     S
N3030  N3333   1.438   .     S
N3030  H5858   1.044   .     S
N3333  C3434   1.331   .     D
C3434  H5959   1.107   .     S
C3434  C1010   1.505   1_655 S
C3535  C3636   1.425   .     S
C3535  H6060   1.085   .     S
C3535  C11     1.397   1_565 D
C3636  C3737   1.409   .     D
C3636  C3838   1.499   .     S
C3737  H6161   1.084   .     S
C3737  C22     1.397   1_565 S
C3838  H6262   1.101   .     S
