data_1231
_audit_creation_date              2023-09-08
_audit_creation_method            'Materials Studio'
_symmetry_space_group_name_H-M    'P1'
_symmetry_Int_Tables_number       1
_symmetry_cell_setting            triclinic
loop_
_symmetry_equiv_pos_as_xyz
  x,y,z
_cell_length_a                    29.0187
_cell_length_b                    29.0187
_cell_length_c                    3.0981
_cell_angle_alpha                 90.0000
_cell_angle_beta                  90.0000
_cell_angle_gamma                 120.0000
loop_
_atom_site_label
_atom_site_type_symbol
_atom_site_fract_x
_atom_site_fract_y
_atom_site_fract_z
_atom_site_U_iso_or_equiv
_atom_site_adp_type
_atom_site_occupancy
C11    C     1.48580   1.15594   0.00012   0.00000  Uiso   1.00
C22    C     1.55652   1.13641   0.00048   0.00000  Uiso   1.00
C33    C     1.54104   1.17552   0.00057   0.00000  Uiso   1.00
C44    C     1.58172   1.23182  -0.00015   0.00000  Uiso   1.00
C55    C     0.82448   1.44914  -0.00194   0.00000  Uiso   1.00
C66    C     0.87862   1.46699  -0.00012   0.00000  Uiso   1.00
C77    C     0.91756   1.52139  -0.00007   0.00000  Uiso   1.00
C88    C     0.89792   1.55695   0.00008   0.00000  Uiso   1.00
C99    C     0.84400   1.53968   0.00000   0.00000  Uiso   1.00
C1010  C     0.80534   1.48515  -0.00185   0.00000  Uiso   1.00
C1111  C     1.14524   1.59668  -0.00007   0.00000  Uiso   1.00
N1212  N     1.27726   1.74541   0.00024   0.00000  Uiso   1.00
C1313  C     1.27996   1.69954   0.00015   0.00000  Uiso   1.00
N1414  N     1.32876   1.70331   0.00094   0.00000  Uiso   1.00
N1515  N     1.23507   1.65126  -0.00035   0.00000  Uiso   1.00
N1616  N     1.33565   1.65986  -0.00085   0.00000  Uiso   1.00
N1717  N     1.32075   1.79610   0.00060   0.00000  Uiso   1.00
N1818  N     1.18484   1.64593  -0.00006   0.00000  Uiso   1.00
C1919  C     1.36507   1.57388   0.00029   0.00000  Uiso   1.00
C2020  C     1.38292   1.53770   0.00081   0.00000  Uiso   1.00
C2121  C     1.43731   1.55319  -0.00013   0.00000  Uiso   1.00
C2222  C     1.47287   1.60849  -0.00010   0.00000  Uiso   1.00
C2323  C     1.45547   1.64509   0.00043   0.00000  Uiso   1.00
C2424  C     1.40079   1.62902   0.00021   0.00000  Uiso   1.00
C2525  C     1.38446   1.66911   0.00013   0.00000  Uiso   1.00
C2626  C     1.50975   1.39869   0.00004   0.00000  Uiso   1.00
N2727  N     1.61709   1.32152  -0.00158   0.00000  Uiso   1.00
C2828  C     1.61387   1.36619  -0.00066   0.00000  Uiso   1.00
N2929  N     1.56552   1.36423   0.00030   0.00000  Uiso   1.00
N3030  N     1.65908   1.41507  -0.00029   0.00000  Uiso   1.00
N3131  N     1.55885   1.40800   0.00064   0.00000  Uiso   1.00
N3232  N     1.57210   1.27151   0.00068   0.00000  Uiso   1.00
N3333  N     1.70912   1.42164  -0.00589   0.00000  Uiso   1.00
C3434  C     1.74914   1.46992  -0.00122   0.00000  Uiso   1.00
C3535  C     1.44917   1.10201  -0.00003   0.00000  Uiso   1.00
C3636  C     1.46433   1.06276   0.00008   0.00000  Uiso   1.00
C3737  C     1.51959   1.08245   0.00022   0.00000  Uiso   1.00
C3838  C     1.31075   1.83556   0.00001   0.00000  Uiso   1.00
H3939  H     1.47180   1.18440  -0.00002   0.00000  Uiso   1.00
H4040  H     1.59858   1.14823   0.00051   0.00000  Uiso   1.00
H4141  H     1.62309   1.23998  -0.00109   0.00000  Uiso   1.00
H4242  H     0.79605   1.40646  -0.00254   0.00000  Uiso   1.00
H4343  H     0.89048   1.43685   0.00054   0.00000  Uiso   1.00
H4444  H     0.92558   1.59959   0.00025   0.00000  Uiso   1.00
H4545  H     0.83190   1.56976   0.00095   0.00000  Uiso   1.00
H4646  H     1.15369   1.56363   0.00022   0.00000  Uiso   1.00
H4747  H     1.23921   1.73914  -0.00009   0.00000  Uiso   1.00
H4848  H     1.36035   1.74153  -0.00002   0.00000  Uiso   1.00
H4949  H     1.23972   1.61741   0.00004   0.00000  Uiso   1.00
H5050  H     1.32217   1.55899  -0.00015   0.00000  Uiso   1.00
H5151  H     1.35258   1.49580   0.00041   0.00000  Uiso   1.00
H5252  H     1.51553   1.62346  -0.00018   0.00000  Uiso   1.00
H5353  H     1.48551   1.68728   0.00016   0.00000  Uiso   1.00
H5454  H     1.41816   1.71059   0.00090   0.00000  Uiso   1.00
H5555  H     1.47614   1.35729  -0.00043   0.00000  Uiso   1.00
H5656  H     1.65696   1.32538   0.00262   0.00000  Uiso   1.00
H5757  H     1.53349   1.32634   0.00021   0.00000  Uiso   1.00
H5858  H     1.65274   1.44684  -0.00017   0.00000  Uiso   1.00
H5959  H     1.74222   1.50418   0.00430   0.00000  Uiso   1.00
H6060  H     1.40717   1.09011  -0.00013   0.00000  Uiso   1.00
H6161  H     1.53435   1.05458   0.00017   0.00000  Uiso   1.00
H6262  H     1.26918   1.82726  -0.00030   0.00000  Uiso   1.00
C6563  C     1.42067   1.45894  -0.00003   0.00000  Uiso   1.00
C6664  C     1.43834   1.42250   0.00014   0.00000  Uiso   1.00
C6765  C     1.49305   1.43842   0.00012   0.00000  Uiso   1.00
C6866  C     1.52837   1.49371   0.00011   0.00000  Uiso   1.00
C6967  C     1.51046   1.52979   0.00011   0.00000  Uiso   1.00
C7068  C     1.45598   1.51427  -0.00026   0.00000  Uiso   1.00
H7169  H     1.37799   1.44396   0.00008   0.00000  Uiso   1.00
H7270  H     1.40826   1.38032   0.00010   0.00000  Uiso   1.00
H7371  H     1.57091   1.50818  -0.00014   0.00000  Uiso   1.00
H7472  H     1.54017   1.57187  -0.00002   0.00000  Uiso   1.00
C7573  C     0.99641   1.50628  -0.00037   0.00000  Uiso   1.00
C7674  C     1.05083   1.52517  -0.00017   0.00000  Uiso   1.00
C7775  C     1.08871   1.58014   0.00003   0.00000  Uiso   1.00
C7876  C     1.06768   1.61456   0.00012   0.00000  Uiso   1.00
C7977  C     1.01343   1.59541   0.00019   0.00000  Uiso   1.00
C8078  C     0.97537   1.54067  -0.00012   0.00000  Uiso   1.00
H8179  H     0.96953   1.46342  -0.00061   0.00000  Uiso   1.00
H8280  H     1.06428   1.49617  -0.00019   0.00000  Uiso   1.00
H8381  H     1.09464   1.65736   0.00030   0.00000  Uiso   1.00
H8482  H     1.00005   1.62433   0.00048   0.00000  Uiso   1.00
C8583  C     1.37006   1.98480  -0.00007   0.00000  Uiso   1.00
C8684  C     1.44124   1.96639   0.00014   0.00000  Uiso   1.00
C8785  C     1.42550   2.00524   0.00004   0.00000  Uiso   1.00
H8886  H     1.35480   2.01229  -0.00018   0.00000  Uiso   1.00
H8987  H     1.48332   1.97882   0.00023   0.00000  Uiso   1.00
C9088  C     1.33382   1.93066  -0.00004   0.00000  Uiso   1.00
C9189  C     1.34998   1.89200   0.00005   0.00000  Uiso   1.00
C9290  C     1.40539   1.91237   0.00013   0.00000  Uiso   1.00
H9391  H     1.29157   1.91830  -0.00007   0.00000  Uiso   1.00
H9492  H     1.42012   1.88451   0.00021   0.00000  Uiso   1.00
loop_
_geom_bond_atom_site_label_1
_geom_bond_atom_site_label_2
_geom_bond_distance
_geom_bond_site_symmetry_2
_ccdc_geom_bond_type
C11    C33     1.408   .     S
C11    C3535   1.384   .     D
C11    H3939   1.087   .     S
C22    C33     1.414   .     D
C22    C3737   1.386   .     S
C22    H4040   1.090   .     S
C33    C44     1.461   .     S
C44    N3232   1.314   .     D
C44    H4141   1.101   .     S
C55    C66     1.387   .     S
C55    C1010   1.407   .     D
C55    H4242   1.092   .     S
C66    C77     1.409   .     D
C66    H4343   1.088   .     S
C77    C88     1.406   .     S
C77    C8078   1.479   .     S
C88    C99     1.384   .     D
C88    H4444   1.087   .     S
C99    C1010   1.410   .     S
C99    H4545   1.092   .     S
C1010  C3434   1.461   1_455 S
C1111  N1818   1.312   .     D
C1111  H4646   1.102   .     S
C1111  C7775   1.461   .     S
N1212  C1313   1.372   .     D
N1212  N1717   1.378   .     S
N1212  H4747   1.025   .     S
C1313  N1414   1.365   .     S
C1313  N1515   1.355   .     S
N1414  N1616   1.372   .     S
N1414  H4848   1.027   .     S
N1515  N1818   1.387   .     S
N1515  H4949   1.056   .     S
N1616  C2525   1.303   .     D
N1717  C3838   1.314   .     D
C1919  C2020   1.384   .     S
C1919  C2424   1.406   .     D
C1919  H5050   1.095   .     S
C2020  C2121   1.408   .     D
C2020  H5151   1.088   .     S
C2121  C2222   1.409   .     S
C2121  C7068   1.477   .     S
C2222  C2323   1.385   .     D
C2222  H5252   1.088   .     S
C2323  C2424   1.413   .     S
C2323  H5353   1.092   .     S
C2424  C2525   1.459   .     S
C2525  H5454   1.108   .     S
C2626  N3131   1.311   .     D
C2626  H5555   1.106   .     S
C2626  C6765   1.457   .     S
N2727  C2828   1.345   .     D
N2727  N3232   1.384   .     S
N2727  H5656   1.105   .     S
C2828  N2929   1.376   .     S
C2828  N3030   1.368   .     S
N2929  N3131   1.377   .     S
N2929  H5757   1.025   .     S
N3030  N3333   1.367   .     S
N3030  H5858   1.026   .     S
N3333  C3434   1.298   .     D
C3434  H5959   1.108   .     S
C3434  C1010   1.461   1_655 S
C3535  C3636   1.411   .     S
C3535  H6060   1.088   .     S
C3636  C3737   1.408   .     D
C3636  C8785   1.475   1_545 S
C3737  H6161   1.088   .     S
C3838  H6262   1.106   .     S
C3838  C9189   1.454   .     S
C6563  C6664   1.387   .     S
C6563  C7068   1.408   .     D
C6563  H7169   1.088   .     S
C6664  C6765   1.414   .     D
C6664  H7270   1.092   .     S
C6765  C6866   1.407   .     S
C6866  C6967   1.382   .     D
C6866  H7371   1.087   .     S
C6967  C7068   1.411   .     S
C6967  H7472   1.087   .     S
C7573  C7674   1.389   .     S
C7573  C8078   1.406   .     D
C7573  H8179   1.089   .     S
C7674  C7775   1.414   .     D
C7674  H8280   1.090   .     S
C7775  C7876   1.407   .     S
C7876  C7977   1.383   .     D
C7876  H8381   1.088   .     S
C7977  C8078   1.410   .     S
C7977  H8482   1.087   .     S
C8583  C8785   1.409   .     D
C8583  H8886   1.089   .     S
C8583  C9088   1.386   .     S
C8684  C8785   1.412   .     S
C8684  H8987   1.087   .     S
C8684  C9290   1.382   .     D
C8785  C3636   1.475   1_565 S
C9088  C9189   1.416   .     D
C9088  H9391   1.092   .     S
C9189  C9290   1.409   .     S
C9290  H9492   1.087   .     S
