data_1232
_audit_creation_date              2023-09-08
_audit_creation_method            'Materials Studio'
_symmetry_space_group_name_H-M    'P1'
_symmetry_Int_Tables_number       1
_symmetry_cell_setting            triclinic
loop_
_symmetry_equiv_pos_as_xyz
  x,y,z
_cell_length_a                    41.8503
_cell_length_b                    41.8503
_cell_length_c                    3.4997
_cell_angle_alpha                 90.0000
_cell_angle_beta                  90.0000
_cell_angle_gamma                 120.0000
loop_
_atom_site_label
_atom_site_type_symbol
_atom_site_fract_x
_atom_site_fract_y
_atom_site_fract_z
_atom_site_U_iso_or_equiv
_atom_site_adp_type
_atom_site_occupancy
H1     H     0.91568   0.42860   0.72663   0.00000  Uiso   1.00
H2     H     0.85923   0.38342   0.86483   0.00000  Uiso   1.00
H3     H     0.81462   0.43079   0.49949   0.00000  Uiso   1.00
H4     H     0.75358   0.40832   0.49827   0.00000  Uiso   1.00
H5     H     0.73912   0.31599   1.05175   0.00000  Uiso   1.00
H6     H     0.80020   0.33760   1.01142   0.00000  Uiso   1.00
H7     H     0.70654   0.39584   0.78592   0.00000  Uiso   1.00
H8     H     0.08432   0.57239   0.63034   0.00000  Uiso   1.00
H9     H     0.14113   0.61754   0.75340   0.00000  Uiso   1.00
H10    H     0.18501   0.56966   0.38076   0.00000  Uiso   1.00
H11    H     0.24602   0.59196   0.37054   0.00000  Uiso   1.00
H12    H     0.26142   0.68466   0.92338   0.00000  Uiso   1.00
H13    H     0.20035   0.66323   0.89182   0.00000  Uiso   1.00
H14    H     0.29316   0.60423   0.65459   0.00000  Uiso   1.00
H15    H     0.02578   0.46232   0.34074   0.00000  Uiso   1.00
H16    H     0.97320   0.53577   0.28179   0.00000  Uiso   1.00
H17    H     0.01299   0.59434   0.25670   0.00000  Uiso   1.00
H18    H     0.01065   0.57539  -0.18983   0.00000  Uiso   1.00
H19    H     0.98521   0.42022   0.76015   0.00000  Uiso   1.00
H20    H     0.98484   0.40143   0.31897   0.00000  Uiso   1.00
H21    H     0.08175   0.62635  -0.14949   0.00000  Uiso   1.00
H22    H     0.02654   0.64710  -0.12676   0.00000  Uiso   1.00
H23    H     0.07232   0.67343  -0.27794   0.00000  Uiso   1.00
H24    H     0.91908   0.37479   0.81948   0.00000  Uiso   1.00
H25    H     0.91230   0.31995   0.65808   0.00000  Uiso   1.00
H26    H     0.95350   0.34097   0.38770   0.00000  Uiso   1.00
C27    C     0.96350   0.48434   0.34126   0.00000  Uiso   1.00
C28    C     0.97826   0.46310   0.34781   0.00000  Uiso   1.00
C29    C     0.01415   0.47828   0.33558   0.00000  Uiso   1.00
C30    C     0.92589   0.47042   0.37591   0.00000  Uiso   1.00
C31    C     0.84917   0.39865   0.74154   0.00000  Uiso   1.00
C32    C     0.81204   0.38577   0.75372   0.00000  Uiso   1.00
C33    C     0.79823   0.40560   0.61874   0.00000  Uiso   1.00
C34    C     0.76294   0.39274   0.62518   0.00000  Uiso   1.00
C35    C     0.74046   0.36003   0.77683   0.00000  Uiso   1.00
C36    C     0.75476   0.34059   0.91788   0.00000  Uiso   1.00
C37    C     0.79002   0.35316   0.90144   0.00000  Uiso   1.00
C38    C     0.70253   0.34631   0.78500   0.00000  Uiso   1.00
C39    C     0.68918   0.36862   0.78614   0.00000  Uiso   1.00
C40    C     0.03544   0.51391   0.31189   0.00000  Uiso   1.00
C41    C     0.02069   0.53490   0.26991   0.00000  Uiso   1.00
C42    C     0.98482   0.51984   0.29431   0.00000  Uiso   1.00
C43    C     0.07313   0.52835   0.31734   0.00000  Uiso   1.00
C44    C     0.15090   0.60199   0.63228   0.00000  Uiso   1.00
C45    C     0.18804   0.61487   0.63555   0.00000  Uiso   1.00
C46    C     0.20160   0.59491   0.49772   0.00000  Uiso   1.00
C47    C     0.23687   0.60766   0.49894   0.00000  Uiso   1.00
C48    C     0.25961   0.64040   0.64839   0.00000  Uiso   1.00
C49    C     0.24557   0.66002   0.79120   0.00000  Uiso   1.00
C50    C     0.21032   0.64756   0.77972   0.00000  Uiso   1.00
C51    C     0.29751   0.65390   0.65374   0.00000  Uiso   1.00
C52    C     0.31065   0.63142   0.65456   0.00000  Uiso   1.00
C53    C     0.02820   0.58964   0.04410   0.00000  Uiso   1.00
C54    C     0.96879   0.40662   0.51558   0.00000  Uiso   1.00
C55    C     0.05670   0.62341  -0.09442   0.00000  Uiso   1.00
C56    C     0.05149   0.64947  -0.17014   0.00000  Uiso   1.00
C57    C     0.93848   0.37371   0.64682   0.00000  Uiso   1.00
C58    C     0.93460   0.34316   0.55800   0.00000  Uiso   1.00
N59    N     0.90524   0.44077   0.56931   0.00000  Uiso   1.00
N60    N     0.86975   0.42777   0.58270   0.00000  Uiso   1.00
N61    N     0.09441   0.55922   0.48524   0.00000  Uiso   1.00
N62    N     0.12992   0.57232   0.48724   0.00000  Uiso   1.00
O63    O     0.91323   0.48624   0.23359   0.00000  Uiso   1.00
O64    O     0.95676   0.42722   0.33843   0.00000  Uiso   1.00
O65    O     0.08523   0.51191   0.17844   0.00000  Uiso   1.00
O66    O     0.04249   0.57016   0.19765   0.00000  Uiso   1.00
H67    H     0.57140   0.48708   0.72663   0.00000  Uiso   1.00
H68    H     0.61658   0.47581   0.86483   0.00000  Uiso   1.00
H69    H     0.56921   0.38383   0.49949   0.00000  Uiso   1.00
H70    H     0.59168   0.34526   0.49827   0.00000  Uiso   1.00
H71    H     0.68401   0.42313   1.05175   0.00000  Uiso   1.00
H72    H     0.66240   0.46260   1.01142   0.00000  Uiso   1.00
H73    H     0.60416   0.31070   0.78592   0.00000  Uiso   1.00
H74    H     0.42761   0.51193   0.63034   0.00000  Uiso   1.00
H75    H     0.38246   0.52359   0.75340   0.00000  Uiso   1.00
H76    H     0.43034   0.61535   0.38076   0.00000  Uiso   1.00
H77    H     0.40804   0.65406   0.37054   0.00000  Uiso   1.00
H78    H     0.31534   0.57676   0.92338   0.00000  Uiso   1.00
H79    H     0.33677   0.53712   0.89182   0.00000  Uiso   1.00
H80    H     0.39577   0.68893   0.65459   0.00000  Uiso   1.00
H81    H     0.53768   0.56346   0.34074   0.00000  Uiso   1.00
H82    H     0.46423   0.43743   0.28179   0.00000  Uiso   1.00
H83    H     0.40566   0.41865   0.25670   0.00000  Uiso   1.00
H84    H     0.42461   0.43526  -0.18983   0.00000  Uiso   1.00
H85    H     0.57978   0.56499   0.76015   0.00000  Uiso   1.00
H86    H     0.59857   0.58341   0.31897   0.00000  Uiso   1.00
H87    H     0.37365   0.45540  -0.14949   0.00000  Uiso   1.00
H88    H     0.35290   0.37944  -0.12676   0.00000  Uiso   1.00
H89    H     0.32657   0.39889  -0.27794   0.00000  Uiso   1.00
H90    H     0.62521   0.54429   0.81948   0.00000  Uiso   1.00
H91    H     0.68005   0.59235   0.65808   0.00000  Uiso   1.00
H92    H     0.65903   0.61253   0.38770   0.00000  Uiso   1.00
C93    C     0.51566   0.47916   0.34126   0.00000  Uiso   1.00
C94    C     0.53690   0.51516   0.34781   0.00000  Uiso   1.00
C95    C     0.52172   0.53587   0.33558   0.00000  Uiso   1.00
C96    C     0.52958   0.45547   0.37591   0.00000  Uiso   1.00
C97    C     0.60135   0.45052   0.74154   0.00000  Uiso   1.00
C98    C     0.61423   0.42627   0.75372   0.00000  Uiso   1.00
C99    C     0.59440   0.39263   0.61874   0.00000  Uiso   1.00
C100   C     0.60726   0.37020   0.62518   0.00000  Uiso   1.00
C101   C     0.63997   0.38043   0.77683   0.00000  Uiso   1.00
C102   C     0.65941   0.41417   0.91788   0.00000  Uiso   1.00
C103   C     0.64684   0.43686   0.90144   0.00000  Uiso   1.00
C104   C     0.65369   0.35622   0.78500   0.00000  Uiso   1.00
C105   C     0.63138   0.32056   0.78614   0.00000  Uiso   1.00
C106   C     0.48609   0.52153   0.31189   0.00000  Uiso   1.00
C107   C     0.46510   0.48579   0.26991   0.00000  Uiso   1.00
C108   C     0.48016   0.46498   0.29431   0.00000  Uiso   1.00
C109   C     0.47165   0.54478   0.31734   0.00000  Uiso   1.00
C110   C     0.39801   0.54891   0.63228   0.00000  Uiso   1.00
C111   C     0.38513   0.57317   0.63555   0.00000  Uiso   1.00
C112   C     0.40509   0.60669   0.49772   0.00000  Uiso   1.00
C113   C     0.39234   0.62921   0.49894   0.00000  Uiso   1.00
C114   C     0.35960   0.61921   0.64839   0.00000  Uiso   1.00
C115   C     0.33998   0.58555   0.79120   0.00000  Uiso   1.00
C116   C     0.35244   0.56276   0.77972   0.00000  Uiso   1.00
C117   C     0.34610   0.64361   0.65374   0.00000  Uiso   1.00
C118   C     0.36858   0.67923   0.65456   0.00000  Uiso   1.00
C119   C     0.41036   0.43856   0.04410   0.00000  Uiso   1.00
C120   C     0.59338   0.56217   0.51558   0.00000  Uiso   1.00
C121   C     0.37659   0.43329  -0.09442   0.00000  Uiso   1.00
C122   C     0.35053   0.40202  -0.17014   0.00000  Uiso   1.00
C123   C     0.62629   0.56477   0.64682   0.00000  Uiso   1.00
C124   C     0.65684   0.59144   0.55800   0.00000  Uiso   1.00
N125   N     0.55923   0.46447   0.56931   0.00000  Uiso   1.00
N126   N     0.57223   0.44198   0.58270   0.00000  Uiso   1.00
N127   N     0.44078   0.53519   0.48524   0.00000  Uiso   1.00
N128   N     0.42768   0.55760   0.48724   0.00000  Uiso   1.00
O129   O     0.51376   0.42699   0.23359   0.00000  Uiso   1.00
O130   O     0.57278   0.52954   0.33843   0.00000  Uiso   1.00
O131   O     0.48809   0.57332   0.17844   0.00000  Uiso   1.00
O132   O     0.42984   0.47233   0.19765   0.00000  Uiso   1.00
H133   H     0.51292   0.08432   0.72663   0.00000  Uiso   1.00
H134   H     0.52419   0.14077   0.86483   0.00000  Uiso   1.00
H135   H     0.61617   0.18538   0.49949   0.00000  Uiso   1.00
H136   H     0.65474   0.24642   0.49827   0.00000  Uiso   1.00
H137   H     0.57687   0.26088   1.05175   0.00000  Uiso   1.00
H138   H     0.53740   0.19980   1.01142   0.00000  Uiso   1.00
H139   H     0.68930   0.29346   0.78592   0.00000  Uiso   1.00
H140   H     0.48807   0.91568   0.63034   0.00000  Uiso   1.00
H141   H     0.47641   0.85887   0.75340   0.00000  Uiso   1.00
H142   H     0.38465   0.81499   0.38076   0.00000  Uiso   1.00
H143   H     0.34594   0.75398   0.37054   0.00000  Uiso   1.00
H144   H     0.42324   0.73858   0.92338   0.00000  Uiso   1.00
H145   H     0.46288   0.79965   0.89182   0.00000  Uiso   1.00
H146   H     0.31107   0.70684   0.65459   0.00000  Uiso   1.00
H147   H     0.43654   0.97422   0.34074   0.00000  Uiso   1.00
H148   H     0.56257   0.02680   0.28179   0.00000  Uiso   1.00
H149   H     0.58135   0.98701   0.25670   0.00000  Uiso   1.00
H150   H     0.56474   0.98935  -0.18983   0.00000  Uiso   1.00
H151   H     0.43501   0.01479   0.76015   0.00000  Uiso   1.00
H152   H     0.41659   0.01516   0.31897   0.00000  Uiso   1.00
H153   H     0.54460   0.91825  -0.14949   0.00000  Uiso   1.00
H154   H     0.62056   0.97346  -0.12676   0.00000  Uiso   1.00
H155   H     0.60111   0.92768  -0.27794   0.00000  Uiso   1.00
H156   H     0.45571   0.08092   0.81948   0.00000  Uiso   1.00
H157   H     0.40765   0.08770   0.65808   0.00000  Uiso   1.00
H158   H     0.38747   0.04650   0.38770   0.00000  Uiso   1.00
C159   C     0.52084   0.03650   0.34126   0.00000  Uiso   1.00
C160   C     0.48484   0.02174   0.34781   0.00000  Uiso   1.00
C161   C     0.46413   0.98585   0.33558   0.00000  Uiso   1.00
C162   C     0.54453   0.07411   0.37591   0.00000  Uiso   1.00
C163   C     0.54948   0.15083   0.74154   0.00000  Uiso   1.00
C164   C     0.57373   0.18796   0.75372   0.00000  Uiso   1.00
C165   C     0.60737   0.20177   0.61874   0.00000  Uiso   1.00
C166   C     0.62980   0.23706   0.62518   0.00000  Uiso   1.00
C167   C     0.61957   0.25954   0.77683   0.00000  Uiso   1.00
C168   C     0.58583   0.24524   0.91788   0.00000  Uiso   1.00
C169   C     0.56314   0.20998   0.90144   0.00000  Uiso   1.00
C170   C     0.64378   0.29747   0.78500   0.00000  Uiso   1.00
C171   C     0.67944   0.31082   0.78614   0.00000  Uiso   1.00
C172   C     0.47847   0.96456   0.31189   0.00000  Uiso   1.00
C173   C     0.51421   0.97931   0.26991   0.00000  Uiso   1.00
C174   C     0.53502   0.01518   0.29431   0.00000  Uiso   1.00
C175   C     0.45522   0.92687   0.31734   0.00000  Uiso   1.00
C176   C     0.45109   0.84910   0.63228   0.00000  Uiso   1.00
C177   C     0.42683   0.81196   0.63555   0.00000  Uiso   1.00
C178   C     0.39331   0.79840   0.49772   0.00000  Uiso   1.00
C179   C     0.37079   0.76313   0.49894   0.00000  Uiso   1.00
C180   C     0.38079   0.74039   0.64839   0.00000  Uiso   1.00
C181   C     0.41445   0.75443   0.79120   0.00000  Uiso   1.00
C182   C     0.43724   0.78968   0.77972   0.00000  Uiso   1.00
C183   C     0.35639   0.70249   0.65374   0.00000  Uiso   1.00
C184   C     0.32077   0.68935   0.65456   0.00000  Uiso   1.00
C185   C     0.56144   0.97180   0.04410   0.00000  Uiso   1.00
C186   C     0.43783   0.03121   0.51558   0.00000  Uiso   1.00
C187   C     0.56671   0.94330  -0.09442   0.00000  Uiso   1.00
C188   C     0.59798   0.94851  -0.17014   0.00000  Uiso   1.00
C189   C     0.43523   0.06152   0.64682   0.00000  Uiso   1.00
C190   C     0.40856   0.06540   0.55800   0.00000  Uiso   1.00
N191   N     0.53553   0.09476   0.56931   0.00000  Uiso   1.00
N192   N     0.55802   0.13025   0.58270   0.00000  Uiso   1.00
N193   N     0.46481   0.90559   0.48524   0.00000  Uiso   1.00
N194   N     0.44240   0.87008   0.48724   0.00000  Uiso   1.00
O195   O     0.57301   0.08677   0.23359   0.00000  Uiso   1.00
O196   O     0.47046   0.04324   0.33843   0.00000  Uiso   1.00
O197   O     0.42668   0.91477   0.17844   0.00000  Uiso   1.00
O198   O     0.52767   0.95751   0.19765   0.00000  Uiso   1.00
loop_
_geom_bond_atom_site_label_1
_geom_bond_atom_site_label_2
_geom_bond_distance
_geom_bond_site_symmetry_2
_ccdc_geom_bond_type
H1     N59     0.988   .     S
H2     C31     1.019   .     S
H3     C33     1.016   .     S
H4     C34     1.016   .     S
H5     C36     1.017   .     S
H6     C37     1.015   .     S
H7     C39     0.999   .     S
H8     N61     0.986   .     S
H9     C44     1.018   .     S
H10    C46     1.016   .     S
H11    C47     1.016   .     S
H12    C49     1.017   .     S
H13    C50     1.016   .     S
H14    C52     0.999   .     S
H15    C29     1.004   .     S
H16    C42     1.004   .     S
H17    C53     1.060   .     S
H18    C53     1.062   .     S
H19    C54     1.067   .     S
H20    C54     1.057   .     S
H21    C55     1.011   .     S
H22    C56     1.010   .     S
H23    C56     1.017   .     S
H24    C57     1.031   .     S
H25    C58     1.015   .     S
H26    C58     1.030   .     S
C27    C28     1.312   .     S
C27    C30     1.384   .     S
C27    C42     1.306   .     D
C28    O64     1.309   .     S
C28    C29     1.307   1_655 D
C29    C40     1.302   .     S
C29    C28     1.307   1_455 D
C30    N59     1.293   .     S
C30    O63     1.148   .     D
C31    C32     1.367   .     S
C31    N60     1.219   .     D
C32    C33     1.314   .     D
C32    C37     1.312   .     S
C33    C34     1.295   .     S
C34    C35     1.324   .     D
C35    C36     1.323   .     S
C35    C38     1.392   .     S
C36    C37     1.297   .     D
C38    C39     1.306   .     S
C38    C171    1.306   .     D
C39    C104    1.306   .     D
C40    C41     1.310   .     D
C40    C43     1.379   .     S
C41    O66     1.314   .     S
C41    C42     1.308   1_455 S
C42    C41     1.308   1_655 S
C43    N61     1.287   .     S
C43    O65     1.147   .     D
C44    C45     1.367   .     S
C44    N62     1.217   .     D
C45    C46     1.314   .     D
C45    C50     1.311   .     S
C46    C47     1.295   .     S
C47    C48     1.324   .     D
C48    C49     1.324   .     S
C48    C51     1.393   .     S
C49    C50     1.296   .     D
C51    C52     1.306   .     S
C51    C184    1.306   .     D
C52    C117    1.306   .     D
C53    C55     1.403   .     S
C53    O66     1.341   .     S
C54    C57     1.404   .     S
C54    O64     1.347   .     S
C55    C56     1.243   .     D
C57    C58     1.245   .     D
N59    N60     1.302   .     S
N61    N62     1.302   .     S
H67    N125    0.988   .     S
H68    C97     1.019   .     S
H69    C99     1.016   .     S
H70    C100    1.016   .     S
H71    C102    1.017   .     S
H72    C103    1.015   .     S
H73    C105    0.999   .     S
H74    N127    0.986   .     S
H75    C110    1.018   .     S
H76    C112    1.016   .     S
H77    C113    1.016   .     S
H78    C115    1.017   .     S
H79    C116    1.016   .     S
H80    C118    0.999   .     S
H81    C95     1.004   .     S
H82    C108    1.004   .     S
H83    C119    1.060   .     S
H84    C119    1.062   .     S
H85    C120    1.067   .     S
H86    C120    1.057   .     S
H87    C121    1.011   .     S
H88    C122    1.010   .     S
H89    C122    1.017   .     S
H90    C123    1.031   .     S
H91    C124    1.015   .     S
H92    C124    1.030   .     S
C93    C94     1.312   .     S
C93    C96     1.384   .     S
C93    C108    1.306   .     D
C94    C95     1.307   .     D
C94    O130    1.309   .     S
C95    C106    1.302   .     S
C96    N125    1.293   .     S
C96    O129    1.148   .     D
C97    C98     1.367   .     S
C97    N126    1.219   .     D
C98    C99     1.314   .     D
C98    C103    1.312   .     S
C99    C100    1.295   .     S
C100   C101    1.324   .     D
C101   C102    1.323   .     S
C101   C104    1.392   .     S
C102   C103    1.297   .     D
C104   C105    1.306   .     S
C105   C170    1.306   .     D
C106   C107    1.310   .     D
C106   C109    1.379   .     S
C107   C108    1.308   .     S
C107   O132    1.314   .     S
C109   N127    1.287   .     S
C109   O131    1.147   .     D
C110   C111    1.367   .     S
C110   N128    1.217   .     D
C111   C112    1.314   .     D
C111   C116    1.311   .     S
C112   C113    1.295   .     S
C113   C114    1.324   .     D
C114   C115    1.324   .     S
C114   C117    1.393   .     S
C115   C116    1.296   .     D
C117   C118    1.306   .     S
C118   C183    1.306   .     D
C119   C121    1.403   .     S
C119   O132    1.341   .     S
C120   C123    1.404   .     S
C120   O130    1.347   .     S
C121   C122    1.243   .     D
C123   C124    1.245   .     D
N125   N126    1.302   .     S
N127   N128    1.302   .     S
H133   N191    0.988   .     S
H134   C163    1.019   .     S
H135   C165    1.016   .     S
H136   C166    1.016   .     S
H137   C168    1.017   .     S
H138   C169    1.015   .     S
H139   C171    0.999   .     S
H140   N193    0.986   .     S
H141   C176    1.018   .     S
H142   C178    1.016   .     S
H143   C179    1.016   .     S
H144   C181    1.017   .     S
H145   C182    1.016   .     S
H146   C184    0.999   .     S
H147   C161    1.004   .     S
H148   C174    1.004   .     S
H149   C185    1.060   .     S
H150   C185    1.062   .     S
H151   C186    1.067   .     S
H152   C186    1.057   .     S
H153   C187    1.011   .     S
H154   C188    1.010   .     S
H155   C188    1.017   .     S
H156   C189    1.031   .     S
H157   C190    1.015   .     S
H158   C190    1.030   .     S
C159   C160    1.312   .     S
C159   C162    1.384   .     S
C159   C174    1.306   .     D
C160   O196    1.309   .     S
C160   C161    1.307   1_545 D
C161   C172    1.302   .     S
C161   C160    1.307   1_565 D
C162   N191    1.293   .     S
C162   O195    1.148   .     D
C163   C164    1.367   .     S
C163   N192    1.219   .     D
C164   C165    1.314   .     D
C164   C169    1.312   .     S
C165   C166    1.295   .     S
C166   C167    1.324   .     D
C167   C168    1.323   .     S
C167   C170    1.392   .     S
C168   C169    1.297   .     D
C170   C171    1.306   .     S
C172   C173    1.310   .     D
C172   C175    1.379   .     S
C173   O198    1.314   .     S
C173   C174    1.308   1_565 S
C174   C173    1.308   1_545 S
C175   N193    1.287   .     S
C175   O197    1.147   .     D
C176   C177    1.367   .     S
C176   N194    1.217   .     D
C177   C178    1.314   .     D
C177   C182    1.311   .     S
C178   C179    1.295   .     S
C179   C180    1.324   .     D
C180   C181    1.324   .     S
C180   C183    1.393   .     S
C181   C182    1.296   .     D
C183   C184    1.306   .     S
C185   C187    1.403   .     S
C185   O198    1.341   .     S
C186   C189    1.404   .     S
C186   O196    1.347   .     S
C187   C188    1.243   .     D
C189   C190    1.245   .     D
N191   N192    1.302   .     S
N193   N194    1.302   .     S
