data_1233
_audit_creation_date              2023-09-08
_audit_creation_method            'Materials Studio'
_symmetry_space_group_name_H-M    'P1'
_symmetry_Int_Tables_number       1
_symmetry_cell_setting            triclinic
loop_
_symmetry_equiv_pos_as_xyz
  x,y,z
_cell_length_a                    31.2852
_cell_length_b                    31.2852
_cell_length_c                    3.3187
_cell_angle_alpha                 90.0000
_cell_angle_beta                  90.0000
_cell_angle_gamma                 120.0000
loop_
_atom_site_label
_atom_site_type_symbol
_atom_site_fract_x
_atom_site_fract_y
_atom_site_fract_z
_atom_site_U_iso_or_equiv
_atom_site_adp_type
_atom_site_occupancy
C1     C     0.02646   0.50320   0.00000   0.00000  Uiso   1.00
C2     C     0.05890   0.48349   0.00000   0.00000  Uiso   1.00
C3     C     0.11109   0.51396   0.00000   0.00000  Uiso   1.00
C4     C     0.13311   0.56686   0.00000   0.00000  Uiso   1.00
C5     C     0.10056   0.58613   0.00000   0.00000  Uiso   1.00
C6     C     0.04899   0.55553   0.00000   0.00000  Uiso   1.00
N7     N     0.18625   0.60331   0.00000   0.00000  Uiso   1.00
C8     C     0.22812   0.59482   0.00000   0.00000  Uiso   1.00
C9     C     0.27782   0.63033   0.00000   0.00000  Uiso   1.00
C10    C     0.31460   0.61239   0.00000   0.00000  Uiso   1.00
O11    O     0.56621   0.28203   0.00000   0.00000  Uiso   1.00
N12    N     0.15934   0.46539   0.00000   0.00000  Uiso   1.00
C13    C     0.97013   0.46980   0.00000   0.00000  Uiso   1.00
C14    C     0.93799   0.48982   0.00000   0.00000  Uiso   1.00
C15    C     0.88626   0.45939   0.00000   0.00000  Uiso   1.00
C16    C     0.86366   0.40710   0.00000   0.00000  Uiso   1.00
C17    C     0.89531   0.38643   0.00000   0.00000  Uiso   1.00
C18    C     0.94725   0.41725   0.00000   0.00000  Uiso   1.00
N19    N     0.80984   0.37473   0.00000   0.00000  Uiso   1.00
C20    C     0.77394   0.39165   0.00000   0.00000  Uiso   1.00
C21    C     0.72298   0.36245   0.00000   0.00000  Uiso   1.00
C22    C     0.69328   0.38846   0.00000   0.00000  Uiso   1.00
O23    O     0.43236   0.73083   0.00000   0.00000  Uiso   1.00
C24    C     0.51243   0.65080   0.00000   0.00000  Uiso   1.00
H25    H     0.04464   0.44390   0.00000   0.00000  Uiso   1.00
H26    H     0.11533   0.62605   0.00000   0.00000  Uiso   1.00
H27    H     0.02791   0.57450   0.00000   0.00000  Uiso   1.00
H28    H     0.19312   0.63957   0.00000   0.00000  Uiso   1.00
H29    H     0.21995   0.55724   0.00000   0.00000  Uiso   1.00
H30    H     0.95150   0.52924   0.00000   0.00000  Uiso   1.00
H31    H     0.86505   0.47825   0.00000   0.00000  Uiso   1.00
H32    H     0.96873   0.39867   0.00000   0.00000  Uiso   1.00
H33    H     0.79776   0.33707   0.00000   0.00000  Uiso   1.00
H34    H     0.78876   0.43122   0.00000   0.00000  Uiso   1.00
C35    C     0.49680   0.52326   0.00000   0.00000  Uiso   1.00
C36    C     0.51651   0.57541   0.00000   0.00000  Uiso   1.00
C37    C     0.48604   0.59713   0.00000   0.00000  Uiso   1.00
C38    C     0.43314   0.56625   0.00000   0.00000  Uiso   1.00
C39    C     0.41387   0.51443   0.00000   0.00000  Uiso   1.00
C40    C     0.44447   0.49346   0.00000   0.00000  Uiso   1.00
N41    N     0.39669   0.58294   0.00000   0.00000  Uiso   1.00
C42    C     0.40518   0.63330   0.00000   0.00000  Uiso   1.00
C43    C     0.36967   0.64749   0.00000   0.00000  Uiso   1.00
C44    C     0.38761   0.70221   0.00000   0.00000  Uiso   1.00
O45    O     0.71797   0.28418   0.00000   0.00000  Uiso   1.00
N46    N     0.53461   0.69395   0.00000   0.00000  Uiso   1.00
C47    C     0.53020   0.50033   0.00000   0.00000  Uiso   1.00
C48    C     0.51018   0.44817   0.00000   0.00000  Uiso   1.00
C49    C     0.54061   0.42687   0.00000   0.00000  Uiso   1.00
C50    C     0.59290   0.45656   0.00000   0.00000  Uiso   1.00
C51    C     0.61357   0.50888   0.00000   0.00000  Uiso   1.00
C52    C     0.58275   0.53000   0.00000   0.00000  Uiso   1.00
N53    N     0.62527   0.43511   0.00000   0.00000  Uiso   1.00
C54    C     0.60835   0.38229   0.00000   0.00000  Uiso   1.00
C55    C     0.63755   0.36053   0.00000   0.00000  Uiso   1.00
C56    C     0.61154   0.30482   0.00000   0.00000  Uiso   1.00
O57    O     0.26917   0.70153   0.00000   0.00000  Uiso   1.00
C58    C     0.34920   0.86163   0.00000   0.00000  Uiso   1.00
H59    H     0.55610   0.60074   0.00000   0.00000  Uiso   1.00
H60    H     0.37395   0.48928   0.00000   0.00000  Uiso   1.00
H61    H     0.42550   0.45341   0.00000   0.00000  Uiso   1.00
H62    H     0.36043   0.55355   0.00000   0.00000  Uiso   1.00
H63    H     0.44276   0.66271   0.00000   0.00000  Uiso   1.00
H64    H     0.47076   0.42226   0.00000   0.00000  Uiso   1.00
H65    H     0.52175   0.38680   0.00000   0.00000  Uiso   1.00
H66    H     0.60133   0.57006   0.00000   0.00000  Uiso   1.00
H67    H     0.66293   0.46069   0.00000   0.00000  Uiso   1.00
H68    H     0.56878   0.35754   0.00000   0.00000  Uiso   1.00
C69    C     0.47674   0.97354   0.00000   0.00000  Uiso   1.00
C70    C     0.42459   0.94110   0.00000   0.00000  Uiso   1.00
C71    C     0.40287   0.88891   0.00000   0.00000  Uiso   1.00
C72    C     0.43375   0.86689   0.00000   0.00000  Uiso   1.00
C73    C     0.48557   0.89944   0.00000   0.00000  Uiso   1.00
C74    C     0.50654   0.95101   0.00000   0.00000  Uiso   1.00
N75    N     0.41706   0.81375   0.00000   0.00000  Uiso   1.00
C76    C     0.36670   0.77188   0.00000   0.00000  Uiso   1.00
C77    C     0.35251   0.72218   0.00000   0.00000  Uiso   1.00
C78    C     0.29779   0.68540   0.00000   0.00000  Uiso   1.00
O79    O     0.71582   0.43379   0.00000   0.00000  Uiso   1.00
N80    N     0.30605   0.84066   0.00000   0.00000  Uiso   1.00
C81    C     0.49967   0.02987   0.00000   0.00000  Uiso   1.00
C82    C     0.55183   0.06201   0.00000   0.00000  Uiso   1.00
C83    C     0.57313   0.11374   0.00000   0.00000  Uiso   1.00
C84    C     0.54344   0.13634   0.00000   0.00000  Uiso   1.00
C85    C     0.49112   0.10469   0.00000   0.00000  Uiso   1.00
C86    C     0.47000   0.05275   0.00000   0.00000  Uiso   1.00
N87    N     0.56489   0.19016   0.00000   0.00000  Uiso   1.00
C88    C     0.61771   0.22606   0.00000   0.00000  Uiso   1.00
C89    C     0.63947   0.27702   0.00000   0.00000  Uiso   1.00
C90    C     0.69518   0.30672   0.00000   0.00000  Uiso   1.00
O91    O     0.29847   0.56764   0.00000   0.00000  Uiso   1.00
C92    C     0.13837   0.48757   0.00000   0.00000  Uiso   1.00
H93    H     0.39926   0.95536   0.00000   0.00000  Uiso   1.00
H94    H     0.51072   0.88467   0.00000   0.00000  Uiso   1.00
H95    H     0.54659   0.97209   0.00000   0.00000  Uiso   1.00
H96    H     0.44645   0.80688   0.00000   0.00000  Uiso   1.00
H97    H     0.33729   0.78005   0.00000   0.00000  Uiso   1.00
H98    H     0.57774   0.04850   0.00000   0.00000  Uiso   1.00
H99    H     0.61320   0.13495   0.00000   0.00000  Uiso   1.00
H100   H     0.42994   0.03127   0.00000   0.00000  Uiso   1.00
H101   H     0.53931   0.20224   0.00000   0.00000  Uiso   1.00
H102   H     0.64246   0.21124   0.00000   0.00000  Uiso   1.00
C103   C     0.66682   0.54241   0.00000   0.00000  Uiso   1.00
N104   N     0.70947   0.56928   0.00000   0.00000  Uiso   1.00
C105   C     0.45759   0.12441   0.00000   0.00000  Uiso   1.00
N106   N     0.43072   0.14019   0.00000   0.00000  Uiso   1.00
C107   C     0.87559   0.33318   0.00000   0.00000  Uiso   1.00
N108   N     0.85981   0.29053   0.00000   0.00000  Uiso   1.00
loop_
_geom_bond_atom_site_label_1
_geom_bond_atom_site_label_2
_geom_bond_distance
_geom_bond_site_symmetry_2
_ccdc_geom_bond_type
C1     C2      1.427   .     D
C1     C6      1.422   .     S
C1     C13     1.535   1_455 S
C2     C3      1.421   .     S
C2     H25     1.087   .     S
C3     C4      1.440   .     D
C3     C92     1.454   .     S
C4     C5      1.419   .     S
C4     N7      1.473   .     S
C5     C6      1.405   .     D
C5     H26     1.094   .     S
C6     H27     1.086   .     S
N7     C8      1.461   .     S
N7     H28     1.044   .     S
C8     C9      1.387   .     D
C8     H29     1.071   .     S
C9     C10     1.512   .     S
C9     C78     1.511   .     S
C10    C43     1.511   .     S
C10    O91     1.228   .     D
O11    C56     1.228   .     D
N12    C92     1.169   .     T
C13    C14     1.426   .     S
C13    C18     1.428   .     D
C13    C1      1.535   1_655 S
C14    C15     1.409   .     D
C14    H30     1.086   .     S
C15    C16     1.421   .     S
C15    H31     1.086   .     S
C16    C17     1.428   .     D
C16    N19     1.468   .     S
C17    C18     1.415   .     S
C17    C107    1.459   .     S
C18    H32     1.086   .     S
N19    C20     1.462   .     S
N19    H33     1.042   .     S
C20    C21     1.386   .     D
C20    H34     1.083   .     S
C21    C22     1.510   .     S
C21    C90     1.510   .     S
C22    O79     1.228   .     D
C22    C55     1.510   .     S
O23    C44     1.228   .     D
C24    C37     1.454   .     S
C24    N46     1.169   .     T
C35    C36     1.427   .     D
C35    C40     1.422   .     S
C35    C47     1.535   .     S
C36    C37     1.421   .     S
C36    H59     1.087   .     S
C37    C38     1.440   .     D
C38    C39     1.419   .     S
C38    N41     1.473   .     S
C39    C40     1.405   .     D
C39    H60     1.094   .     S
C40    H61     1.086   .     S
N41    C42     1.461   .     S
N41    H62     1.044   .     S
C42    C43     1.387   .     D
C42    H63     1.071   .     S
C43    C44     1.512   .     S
C44    C77     1.511   .     S
O45    C90     1.228   .     D
C47    C48     1.426   .     D
C47    C52     1.428   .     S
C48    C49     1.409   .     S
C48    H64     1.086   .     S
C49    C50     1.421   .     D
C49    H65     1.086   .     S
C50    C51     1.428   .     S
C50    N53     1.468   .     S
C51    C52     1.415   .     D
C51    C103    1.459   .     S
C52    H66     1.086   .     S
N53    C54     1.462   .     S
N53    H67     1.042   .     S
C54    C55     1.386   .     D
C54    H68     1.083   .     S
C55    C56     1.510   .     S
C56    C89     1.510   .     S
O57    C78     1.228   .     D
C58    C71     1.454   .     S
C58    N80     1.169   .     T
C69    C70     1.427   .     D
C69    C74     1.422   .     S
C69    C81     1.535   1_565 S
C70    C71     1.421   .     S
C70    H93     1.087   .     S
C71    C72     1.440   .     D
C72    C73     1.419   .     S
C72    N75     1.473   .     S
C73    C74     1.405   .     D
C73    H94     1.094   .     S
C74    H95     1.086   .     S
N75    C76     1.461   .     S
N75    H96     1.044   .     S
C76    C77     1.387   .     D
C76    H97     1.071   .     S
C77    C78     1.512   .     S
C81    C82     1.426   .     D
C81    C86     1.428   .     S
C81    C69     1.535   1_545 S
C82    C83     1.409   .     S
C82    H98     1.086   .     S
C83    C84     1.421   .     D
C83    H99     1.086   .     S
C84    C85     1.428   .     S
C84    N87     1.468   .     S
C85    C86     1.415   .     D
C85    C105    1.459   .     S
C86    H100    1.086   .     S
N87    C88     1.462   .     S
N87    H101    1.042   .     S
C88    C89     1.386   .     D
C88    H102    1.083   .     S
C89    C90     1.510   .     S
C103   N104    1.168   .     T
C105   N106    1.168   .     T
C107   N108    1.168   .     T
