data_1234
_audit_creation_date              2023-09-08
_audit_creation_method            'Materials Studio'
_symmetry_space_group_name_H-M    'P1'
_symmetry_Int_Tables_number       1
_symmetry_cell_setting            triclinic
loop_
_symmetry_equiv_pos_as_xyz
  x,y,z
_cell_length_a                    45.1278
_cell_length_b                    45.1278
_cell_length_c                    3.8216
_cell_angle_alpha                 90.0000
_cell_angle_beta                  90.0000
_cell_angle_gamma                 120.0000
loop_
_atom_site_label
_atom_site_type_symbol
_atom_site_fract_x
_atom_site_fract_y
_atom_site_fract_z
_atom_site_U_iso_or_equiv
_atom_site_adp_type
_atom_site_occupancy
H1     H     0.30306   0.70110   0.52286   0.00000  Uiso   1.00
C2     C     0.35235   0.70269   0.52182   0.00000  Uiso   1.00
C3     C     0.36890   0.68346   0.52221   0.00000  Uiso   1.00
C4     C     0.35388   0.59585   0.34655   0.00000  Uiso   1.00
H5     H     0.32808   0.58552   0.21063   0.00000  Uiso   1.00
C6     C     0.37066   0.57707   0.34125   0.00000  Uiso   1.00
H7     H     0.35871   0.55143   0.19936   0.00000  Uiso   1.00
C8     C     0.40227   0.58944   0.50954   0.00000  Uiso   1.00
C9     C     0.41704   0.62134   0.67284   0.00000  Uiso   1.00
H10    H     0.44323   0.63237   0.80189   0.00000  Uiso   1.00
C11    C     0.40019   0.64004   0.68073   0.00000  Uiso   1.00
H12    H     0.41230   0.66579   0.82061   0.00000  Uiso   1.00
C13    C     0.36828   0.62757   0.51781   0.00000  Uiso   1.00
C14    C     0.41152   0.53713   0.45384   0.00000  Uiso   1.00
C15    C     0.37650   0.51294   0.40849   0.00000  Uiso   1.00
C16    C     0.42214   0.57159   0.50842   0.00000  Uiso   1.00
C17    C     0.42967   0.49401   0.31174   0.00000  Uiso   1.00
H18    H     0.40279   0.47618   0.20822   0.00000  Uiso   1.00
C19    C     0.45402   0.48372   0.30742   0.00000  Uiso   1.00
H20    H     0.44699   0.45731   0.20383   0.00000  Uiso   1.00
C21    C     0.48716   0.50554   0.42938   0.00000  Uiso   1.00
C22    C     0.49557   0.53787   0.55515   0.00000  Uiso   1.00
H23    H     0.52261   0.55611   0.65224   0.00000  Uiso   1.00
C24    C     0.47117   0.54808   0.56314   0.00000  Uiso   1.00
H25    H     0.47820   0.57443   0.66841   0.00000  Uiso   1.00
C26    C     0.43772   0.52627   0.44262   0.00000  Uiso   1.00
N27    N     0.36448   0.48719   0.68084   0.00000  Uiso   1.00
H28    H     0.45090   0.58652   0.55792   0.00000  Uiso   1.00
H29    H     0.29890   0.60196   0.52286   0.00000  Uiso   1.00
C30    C     0.29731   0.64966   0.52182   0.00000  Uiso   1.00
C31    C     0.31654   0.68544   0.52221   0.00000  Uiso   1.00
C32    C     0.40415   0.75803   0.34655   0.00000  Uiso   1.00
H33    H     0.41448   0.74256   0.21063   0.00000  Uiso   1.00
C34    C     0.42293   0.79359   0.34125   0.00000  Uiso   1.00
H35    H     0.44857   0.80728   0.19936   0.00000  Uiso   1.00
C36    C     0.41056   0.81283   0.50954   0.00000  Uiso   1.00
C37    C     0.37866   0.79570   0.67284   0.00000  Uiso   1.00
H38    H     0.36763   0.81086   0.80189   0.00000  Uiso   1.00
C39    C     0.35996   0.76015   0.68073   0.00000  Uiso   1.00
H40    H     0.33421   0.74651   0.82061   0.00000  Uiso   1.00
C41    C     0.37243   0.74071   0.51781   0.00000  Uiso   1.00
C42    C     0.46287   0.87439   0.45384   0.00000  Uiso   1.00
C43    C     0.48706   0.86356   0.40849   0.00000  Uiso   1.00
C44    C     0.42841   0.85055   0.50842   0.00000  Uiso   1.00
C45    C     0.50599   0.93566   0.31174   0.00000  Uiso   1.00
H46    H     0.52382   0.92660   0.20822   0.00000  Uiso   1.00
C47    C     0.51628   0.97030   0.30742   0.00000  Uiso   1.00
H48    H     0.54269   0.98968   0.20383   0.00000  Uiso   1.00
C49    C     0.49446   0.98162   0.42938   0.00000  Uiso   1.00
C50    C     0.46213   0.95770   0.55515   0.00000  Uiso   1.00
H51    H     0.44389   0.96650   0.65224   0.00000  Uiso   1.00
C52    C     0.45192   0.92309   0.56314   0.00000  Uiso   1.00
H53    H     0.42557   0.90377   0.66841   0.00000  Uiso   1.00
C54    C     0.47373   0.91145   0.44262   0.00000  Uiso   1.00
N55    N     0.51281   0.87729   0.68084   0.00000  Uiso   1.00
H56    H     0.41348   0.86438   0.55792   0.00000  Uiso   1.00
H57    H     0.39804   0.69694   0.52286   0.00000  Uiso   1.00
C58    C     0.35034   0.64765   0.52182   0.00000  Uiso   1.00
C59    C     0.31456   0.63110   0.52221   0.00000  Uiso   1.00
C60    C     0.24197   0.64612   0.34655   0.00000  Uiso   1.00
H61    H     0.25744   0.67192   0.21063   0.00000  Uiso   1.00
C62    C     0.20641   0.62934   0.34125   0.00000  Uiso   1.00
H63    H     0.19272   0.64129   0.19936   0.00000  Uiso   1.00
C64    C     0.18717   0.59773   0.50954   0.00000  Uiso   1.00
C65    C     0.20430   0.58296   0.67284   0.00000  Uiso   1.00
H66    H     0.18914   0.55677   0.80189   0.00000  Uiso   1.00
C67    C     0.23985   0.59981   0.68073   0.00000  Uiso   1.00
H68    H     0.25349   0.58770   0.82061   0.00000  Uiso   1.00
C69    C     0.25929   0.63172   0.51781   0.00000  Uiso   1.00
C70    C     0.12561   0.58848   0.45384   0.00000  Uiso   1.00
C71    C     0.13644   0.62350   0.40849   0.00000  Uiso   1.00
C72    C     0.14945   0.57786   0.50842   0.00000  Uiso   1.00
C73    C     0.06434   0.57033   0.31174   0.00000  Uiso   1.00
H74    H     0.07340   0.59721   0.20822   0.00000  Uiso   1.00
C75    C     0.02970   0.54598   0.30742   0.00000  Uiso   1.00
H76    H     0.01032   0.55301   0.20383   0.00000  Uiso   1.00
C77    C     0.01838   0.51284   0.42938   0.00000  Uiso   1.00
C78    C     0.04230   0.50443   0.55515   0.00000  Uiso   1.00
H79    H     0.03350   0.47739   0.65224   0.00000  Uiso   1.00
C80    C     0.07691   0.52883   0.56314   0.00000  Uiso   1.00
H81    H     0.09623   0.52180   0.66841   0.00000  Uiso   1.00
C82    C     0.08855   0.56228   0.44262   0.00000  Uiso   1.00
N83    N     0.12271   0.63552   0.68084   0.00000  Uiso   1.00
H84    H     0.13562   0.54910   0.55792   0.00000  Uiso   1.00
H85    H     0.69694   0.29890   0.52286   0.00000  Uiso   1.00
C86    C     0.64765   0.29731   0.52182   0.00000  Uiso   1.00
C87    C     0.63110   0.31654   0.52221   0.00000  Uiso   1.00
C88    C     0.64612   0.40415   0.34655   0.00000  Uiso   1.00
H89    H     0.67192   0.41448   0.21063   0.00000  Uiso   1.00
C90    C     0.62934   0.42293   0.34125   0.00000  Uiso   1.00
H91    H     0.64129   0.44857   0.19936   0.00000  Uiso   1.00
C92    C     0.59773   0.41056   0.50954   0.00000  Uiso   1.00
C93    C     0.58296   0.37866   0.67284   0.00000  Uiso   1.00
H94    H     0.55677   0.36763   0.80189   0.00000  Uiso   1.00
C95    C     0.59981   0.35996   0.68073   0.00000  Uiso   1.00
H96    H     0.58770   0.33421   0.82061   0.00000  Uiso   1.00
C97    C     0.63172   0.37243   0.51781   0.00000  Uiso   1.00
C98    C     0.58848   0.46287   0.45384   0.00000  Uiso   1.00
C99    C     0.62350   0.48706   0.40849   0.00000  Uiso   1.00
C100   C     0.57786   0.42841   0.50842   0.00000  Uiso   1.00
C101   C     0.57033   0.50599   0.31174   0.00000  Uiso   1.00
H102   H     0.59721   0.52382   0.20822   0.00000  Uiso   1.00
C103   C     0.54598   0.51628   0.30742   0.00000  Uiso   1.00
H104   H     0.55301   0.54269   0.20383   0.00000  Uiso   1.00
C105   C     0.51284   0.49446   0.42938   0.00000  Uiso   1.00
C106   C     0.50443   0.46213   0.55515   0.00000  Uiso   1.00
H107   H     0.47739   0.44389   0.65224   0.00000  Uiso   1.00
C108   C     0.52883   0.45192   0.56314   0.00000  Uiso   1.00
H109   H     0.52180   0.42557   0.66841   0.00000  Uiso   1.00
C110   C     0.56228   0.47373   0.44262   0.00000  Uiso   1.00
N111   N     0.63552   0.51281   0.68084   0.00000  Uiso   1.00
H112   H     0.54910   0.41348   0.55792   0.00000  Uiso   1.00
H113   H     0.70110   0.39804   0.52286   0.00000  Uiso   1.00
C114   C     0.70269   0.35034   0.52182   0.00000  Uiso   1.00
C115   C     0.68346   0.31456   0.52221   0.00000  Uiso   1.00
C116   C     0.59585   0.24197   0.34655   0.00000  Uiso   1.00
H117   H     0.58552   0.25744   0.21063   0.00000  Uiso   1.00
C118   C     0.57707   0.20641   0.34125   0.00000  Uiso   1.00
H119   H     0.55143   0.19272   0.19936   0.00000  Uiso   1.00
C120   C     0.58944   0.18717   0.50954   0.00000  Uiso   1.00
C121   C     0.62134   0.20430   0.67284   0.00000  Uiso   1.00
H122   H     0.63237   0.18914   0.80189   0.00000  Uiso   1.00
C123   C     0.64004   0.23985   0.68073   0.00000  Uiso   1.00
H124   H     0.66579   0.25349   0.82061   0.00000  Uiso   1.00
C125   C     0.62757   0.25929   0.51781   0.00000  Uiso   1.00
C126   C     0.53713   0.12561   0.45384   0.00000  Uiso   1.00
C127   C     0.51294   0.13644   0.40849   0.00000  Uiso   1.00
C128   C     0.57159   0.14945   0.50842   0.00000  Uiso   1.00
C129   C     0.49401   0.06434   0.31174   0.00000  Uiso   1.00
H130   H     0.47618   0.07340   0.20822   0.00000  Uiso   1.00
C131   C     0.48372   0.02970   0.30742   0.00000  Uiso   1.00
H132   H     0.45731   0.01032   0.20383   0.00000  Uiso   1.00
C133   C     0.50554   0.01838   0.42938   0.00000  Uiso   1.00
C134   C     0.53787   0.04230   0.55515   0.00000  Uiso   1.00
H135   H     0.55611   0.03350   0.65224   0.00000  Uiso   1.00
C136   C     0.54808   0.07691   0.56314   0.00000  Uiso   1.00
H137   H     0.57443   0.09623   0.66841   0.00000  Uiso   1.00
C138   C     0.52627   0.08855   0.44262   0.00000  Uiso   1.00
N139   N     0.48719   0.12271   0.68084   0.00000  Uiso   1.00
H140   H     0.58652   0.13562   0.55792   0.00000  Uiso   1.00
H141   H     0.60196   0.30306   0.52286   0.00000  Uiso   1.00
C142   C     0.64966   0.35235   0.52182   0.00000  Uiso   1.00
C143   C     0.68544   0.36890   0.52221   0.00000  Uiso   1.00
C144   C     0.75803   0.35388   0.34655   0.00000  Uiso   1.00
H145   H     0.74256   0.32808   0.21063   0.00000  Uiso   1.00
C146   C     0.79359   0.37066   0.34125   0.00000  Uiso   1.00
H147   H     0.80728   0.35871   0.19936   0.00000  Uiso   1.00
C148   C     0.81283   0.40227   0.50954   0.00000  Uiso   1.00
C149   C     0.79570   0.41704   0.67284   0.00000  Uiso   1.00
H150   H     0.81086   0.44323   0.80189   0.00000  Uiso   1.00
C151   C     0.76015   0.40019   0.68073   0.00000  Uiso   1.00
H152   H     0.74651   0.41230   0.82061   0.00000  Uiso   1.00
C153   C     0.74071   0.36828   0.51781   0.00000  Uiso   1.00
C154   C     0.87439   0.41152   0.45384   0.00000  Uiso   1.00
C155   C     0.86356   0.37650   0.40849   0.00000  Uiso   1.00
C156   C     0.85055   0.42214   0.50842   0.00000  Uiso   1.00
C157   C     0.93566   0.42967   0.31174   0.00000  Uiso   1.00
H158   H     0.92660   0.40279   0.20822   0.00000  Uiso   1.00
C159   C     0.97030   0.45402   0.30742   0.00000  Uiso   1.00
H160   H     0.98968   0.44699   0.20383   0.00000  Uiso   1.00
C161   C     0.98162   0.48716   0.42938   0.00000  Uiso   1.00
C162   C     0.95770   0.49557   0.55515   0.00000  Uiso   1.00
H163   H     0.96650   0.52261   0.65224   0.00000  Uiso   1.00
C164   C     0.92309   0.47117   0.56314   0.00000  Uiso   1.00
H165   H     0.90377   0.47820   0.66841   0.00000  Uiso   1.00
C166   C     0.91145   0.43772   0.44262   0.00000  Uiso   1.00
N167   N     0.87729   0.36448   0.68084   0.00000  Uiso   1.00
H168   H     0.86438   0.45090   0.55792   0.00000  Uiso   1.00
loop_
_geom_bond_atom_site_label_1
_geom_bond_atom_site_label_2
_geom_bond_distance
_geom_bond_site_symmetry_2
_ccdc_geom_bond_type
H1     C31     1.140   .     S
C2     C3      1.400   .     S
C2     C41     1.487   .     S
C2     C31     1.400   .     D
C3     H57     1.140   .     S
C3     C58     1.400   .     D
C4     H5      1.140   .     S
C4     C6      1.391   .     S
C4     C13     1.403   .     D
C6     H7      1.140   .     S
C6     C8      1.401   .     D
C8     C9      1.395   .     S
C8     C16     1.475   .     S
C9     H10     1.140   .     S
C9     C11     1.390   .     D
C11    H12     1.140   .     S
C11    C13     1.403   .     S
C13    C58     1.487   .     S
C14    C15     1.412   .     S
C14    C16     1.395   .     D
C14    C26     1.490   .     S
C15    N27     1.448   .     T
C16    H28     1.140   .     S
C17    H18     1.140   .     S
C17    C19     1.391   .     S
C17    C26     1.405   .     D
C19    H20     1.140   .     S
C19    C21     1.397   .     D
C21    C22     1.396   .     S
C21    C105    1.474   .     S
C22    H23     1.140   .     S
C22    C24     1.390   .     D
C24    H25     1.140   .     S
C24    C26     1.405   .     S
H29    C59     1.140   .     S
C30    C31     1.400   .     S
C30    C69     1.487   .     S
C30    C59     1.400   .     D
C32    H33     1.140   .     S
C32    C34     1.391   .     S
C32    C41     1.403   .     D
C34    H35     1.140   .     S
C34    C36     1.401   .     D
C36    C37     1.395   .     S
C36    C44     1.475   .     S
C37    H38     1.140   .     S
C37    C39     1.390   .     D
C39    H40     1.140   .     S
C39    C41     1.403   .     S
C42    C43     1.412   .     S
C42    C44     1.395   .     D
C42    C54     1.490   .     S
C43    N55     1.448   .     T
C44    H56     1.140   .     S
C45    H46     1.140   .     S
C45    C47     1.391   .     S
C45    C54     1.405   .     D
C47    H48     1.140   .     S
C47    C49     1.397   .     D
C49    C50     1.396   .     S
C49    C133    1.474   1_565 S
C50    H51     1.140   .     S
C50    C52     1.390   .     D
C52    H53     1.140   .     S
C52    C54     1.405   .     S
C58    C59     1.400   .     S
C60    H61     1.140   .     S
C60    C62     1.391   .     D
C60    C69     1.403   .     S
C62    H63     1.140   .     S
C62    C64     1.401   .     S
C64    C65     1.395   .     D
C64    C72     1.475   .     S
C65    H66     1.140   .     S
C65    C67     1.390   .     S
C67    H68     1.140   .     S
C67    C69     1.403   .     D
C70    C71     1.412   .     S
C70    C72     1.395   .     D
C70    C82     1.490   .     S
C71    N83     1.448   .     T
C72    H84     1.140   .     S
C73    H74     1.140   .     S
C73    C75     1.391   .     S
C73    C82     1.405   .     D
C75    H76     1.140   .     S
C75    C77     1.397   .     D
C77    C78     1.396   .     S
C77    C161    1.474   1_455 S
C78    H79     1.140   .     S
C78    C80     1.390   .     D
C80    H81     1.140   .     S
C80    C82     1.405   .     S
H85    C115    1.140   .     S
C86    C87     1.400   .     S
C86    C125    1.487   .     S
C86    C115    1.400   .     D
C87    H141    1.140   .     S
C87    C142    1.400   .     D
C88    H89     1.140   .     S
C88    C90     1.391   .     S
C88    C97     1.403   .     D
C90    H91     1.140   .     S
C90    C92     1.401   .     D
C92    C93     1.395   .     S
C92    C100    1.475   .     S
C93    H94     1.140   .     S
C93    C95     1.390   .     D
C95    H96     1.140   .     S
C95    C97     1.403   .     S
C97    C142    1.487   .     S
C98    C99     1.412   .     S
C98    C100    1.395   .     D
C98    C110    1.490   .     S
C99    N111    1.448   .     T
C100   H112    1.140   .     S
C101   H102    1.140   .     S
C101   C103    1.391   .     S
C101   C110    1.405   .     D
C103   H104    1.140   .     S
C103   C105    1.397   .     D
C105   C106    1.396   .     S
C106   H107    1.140   .     S
C106   C108    1.390   .     D
C108   H109    1.140   .     S
C108   C110    1.405   .     S
H113   C143    1.140   .     S
C114   C115    1.400   .     S
C114   C153    1.487   .     S
C114   C143    1.400   .     D
C116   H117    1.140   .     S
C116   C118    1.391   .     S
C116   C125    1.403   .     D
C118   H119    1.140   .     S
C118   C120    1.401   .     D
C120   C121    1.395   .     S
C120   C128    1.475   .     S
C121   H122    1.140   .     S
C121   C123    1.390   .     D
C123   H124    1.140   .     S
C123   C125    1.403   .     S
C126   C127    1.412   .     S
C126   C128    1.395   .     D
C126   C138    1.490   .     S
C127   N139    1.448   .     T
C128   H140    1.140   .     S
C129   H130    1.140   .     S
C129   C131    1.391   .     S
C129   C138    1.405   .     D
C131   H132    1.140   .     S
C131   C133    1.397   .     D
C133   C134    1.396   .     S
C133   C49     1.474   1_545 S
C134   H135    1.140   .     S
C134   C136    1.390   .     D
C136   H137    1.140   .     S
C136   C138    1.405   .     S
C142   C143    1.400   .     S
C144   H145    1.140   .     S
C144   C146    1.391   .     D
C144   C153    1.403   .     S
C146   H147    1.140   .     S
C146   C148    1.401   .     S
C148   C149    1.395   .     D
C148   C156    1.475   .     S
C149   H150    1.140   .     S
C149   C151    1.390   .     S
C151   H152    1.140   .     S
C151   C153    1.403   .     D
C154   C155    1.412   .     S
C154   C156    1.395   .     D
C154   C166    1.490   .     S
C155   N167    1.448   .     T
C156   H168    1.140   .     S
C157   H158    1.140   .     S
C157   C159    1.391   .     S
C157   C166    1.405   .     D
C159   H160    1.140   .     S
C159   C161    1.397   .     D
C161   C162    1.396   .     S
C161   C77     1.474   1_655 S
C162   H163    1.140   .     S
C162   C164    1.390   .     D
C164   H165    1.140   .     S
C164   C166    1.405   .     S
