data_1235
_audit_creation_date              2023-09-08
_audit_creation_method            'Materials Studio'
_symmetry_space_group_name_H-M    'P1'
_symmetry_Int_Tables_number       1
_symmetry_cell_setting            triclinic
loop_
_symmetry_equiv_pos_as_xyz
  x,y,z
_cell_length_a                    43.9841
_cell_length_b                    43.9841
_cell_length_c                    3.6324
_cell_angle_alpha                 90.0000
_cell_angle_beta                  90.0000
_cell_angle_gamma                 120.0000
loop_
_atom_site_label
_atom_site_type_symbol
_atom_site_fract_x
_atom_site_fract_y
_atom_site_fract_z
_atom_site_U_iso_or_equiv
_atom_site_adp_type
_atom_site_occupancy
C1     C     0.35099   0.70157   0.56540   0.00000  Uiso   1.00
C2     C     0.36799   0.68379   0.56516   0.00000  Uiso   1.00
C3     C     0.35203   0.59437   0.62617   0.00000  Uiso   1.00
H4     H     0.32276   0.58014   0.69134   0.00000  Uiso   1.00
C5     C     0.36960   0.57617   0.61508   0.00000  Uiso   1.00
H6     H     0.35515   0.54683   0.67703   0.00000  Uiso   1.00
C7     C     0.40470   0.59298   0.52953   0.00000  Uiso   1.00
C8     C     0.42210   0.62844   0.47278   0.00000  Uiso   1.00
H9     H     0.45149   0.64299   0.41375   0.00000  Uiso   1.00
C10    C     0.40463   0.64672   0.48599   0.00000  Uiso   1.00
H11    H     0.41937   0.67626   0.43590   0.00000  Uiso   1.00
C12    C     0.36930   0.62982   0.55937   0.00000  Uiso   1.00
C13    C     0.41389   0.54128   0.41433   0.00000  Uiso   1.00
C14    C     0.38050   0.52044   0.26903   0.00000  Uiso   1.00
C15    C     0.42479   0.57525   0.51351   0.00000  Uiso   1.00
C16    C     0.43005   0.49576   0.29464   0.00000  Uiso   1.00
H17    H     0.40229   0.47779   0.18839   0.00000  Uiso   1.00
C18    C     0.45375   0.48440   0.29881   0.00000  Uiso   1.00
H19    H     0.44568   0.45677   0.20045   0.00000  Uiso   1.00
C20    C     0.48739   0.50598   0.42076   0.00000  Uiso   1.00
C21    C     0.49682   0.53911   0.54083   0.00000  Uiso   1.00
H22    H     0.52472   0.55744   0.64124   0.00000  Uiso   1.00
C23    C     0.47306   0.55039   0.54132   0.00000  Uiso   1.00
H24    H     0.48106   0.57787   0.64452   0.00000  Uiso   1.00
C25    C     0.43919   0.52892   0.41791   0.00000  Uiso   1.00
N26    N     0.36020   0.49130   0.50748   0.00000  Uiso   1.00
H27    H     0.39792   0.69842   0.56474   0.00000  Uiso   1.00
H28    H     0.45381   0.58990   0.59002   0.00000  Uiso   1.00
C29    C     0.29843   0.64942   0.56540   0.00000  Uiso   1.00
C30    C     0.31621   0.68420   0.56516   0.00000  Uiso   1.00
C31    C     0.40563   0.75766   0.62617   0.00000  Uiso   1.00
H32    H     0.41986   0.74262   0.69134   0.00000  Uiso   1.00
C33    C     0.42383   0.79343   0.61508   0.00000  Uiso   1.00
H34    H     0.45317   0.80832   0.67703   0.00000  Uiso   1.00
C35    C     0.40702   0.81172   0.52953   0.00000  Uiso   1.00
C36    C     0.37156   0.79366   0.47278   0.00000  Uiso   1.00
H37    H     0.35701   0.80850   0.41375   0.00000  Uiso   1.00
C38    C     0.35328   0.75791   0.48599   0.00000  Uiso   1.00
H39    H     0.32374   0.74310   0.43590   0.00000  Uiso   1.00
C40    C     0.37018   0.73948   0.55937   0.00000  Uiso   1.00
C41    C     0.45872   0.87261   0.41433   0.00000  Uiso   1.00
C42    C     0.47956   0.86006   0.26903   0.00000  Uiso   1.00
C43    C     0.42475   0.84954   0.51351   0.00000  Uiso   1.00
C44    C     0.50424   0.93429   0.29464   0.00000  Uiso   1.00
H45    H     0.52221   0.92450   0.18839   0.00000  Uiso   1.00
C46    C     0.51560   0.96935   0.29881   0.00000  Uiso   1.00
H47    H     0.54323   0.98892   0.20045   0.00000  Uiso   1.00
C48    C     0.49402   0.98141   0.42076   0.00000  Uiso   1.00
C49    C     0.46089   0.95771   0.54083   0.00000  Uiso   1.00
H50    H     0.44256   0.96728   0.64124   0.00000  Uiso   1.00
C51    C     0.44961   0.92267   0.54132   0.00000  Uiso   1.00
H52    H     0.42213   0.90319   0.64452   0.00000  Uiso   1.00
C53    C     0.47108   0.91027   0.41791   0.00000  Uiso   1.00
N54    N     0.50870   0.86890   0.50748   0.00000  Uiso   1.00
H55    H     0.30158   0.69950   0.56474   0.00000  Uiso   1.00
H56    H     0.41010   0.86391   0.59002   0.00000  Uiso   1.00
C57    C     0.35058   0.64901   0.56540   0.00000  Uiso   1.00
C58    C     0.31580   0.63201   0.56516   0.00000  Uiso   1.00
C59    C     0.24234   0.64797   0.62617   0.00000  Uiso   1.00
H60    H     0.25738   0.67724   0.69134   0.00000  Uiso   1.00
C61    C     0.20657   0.63040   0.61508   0.00000  Uiso   1.00
H62    H     0.19168   0.64485   0.67703   0.00000  Uiso   1.00
C63    C     0.18828   0.59530   0.52953   0.00000  Uiso   1.00
C64    C     0.20634   0.57790   0.47278   0.00000  Uiso   1.00
H65    H     0.19150   0.54851   0.41375   0.00000  Uiso   1.00
C66    C     0.24209   0.59537   0.48599   0.00000  Uiso   1.00
H67    H     0.25690   0.58063   0.43590   0.00000  Uiso   1.00
C68    C     0.26052   0.63070   0.55937   0.00000  Uiso   1.00
C69    C     0.12739   0.58611   0.41433   0.00000  Uiso   1.00
C70    C     0.13994   0.61950   0.26903   0.00000  Uiso   1.00
C71    C     0.15046   0.57521   0.51351   0.00000  Uiso   1.00
C72    C     0.06571   0.56995   0.29464   0.00000  Uiso   1.00
H73    H     0.07550   0.59771   0.18839   0.00000  Uiso   1.00
C74    C     0.03065   0.54625   0.29881   0.00000  Uiso   1.00
H75    H     0.01108   0.55432   0.20045   0.00000  Uiso   1.00
C76    C     0.01859   0.51261   0.42076   0.00000  Uiso   1.00
C77    C     0.04229   0.50318   0.54083   0.00000  Uiso   1.00
H78    H     0.03272   0.47528   0.64124   0.00000  Uiso   1.00
C79    C     0.07733   0.52694   0.54132   0.00000  Uiso   1.00
H80    H     0.09681   0.51894   0.64452   0.00000  Uiso   1.00
C81    C     0.08973   0.56081   0.41791   0.00000  Uiso   1.00
N82    N     0.13110   0.63980   0.50748   0.00000  Uiso   1.00
H83    H     0.30050   0.60208   0.56474   0.00000  Uiso   1.00
H84    H     0.13609   0.54619   0.59002   0.00000  Uiso   1.00
C85    C     0.64901   0.29843   0.56540   0.00000  Uiso   1.00
C86    C     0.63201   0.31621   0.56516   0.00000  Uiso   1.00
C87    C     0.64797   0.40563   0.62617   0.00000  Uiso   1.00
H88    H     0.67724   0.41986   0.69134   0.00000  Uiso   1.00
C89    C     0.63040   0.42383   0.61508   0.00000  Uiso   1.00
H90    H     0.64485   0.45317   0.67703   0.00000  Uiso   1.00
C91    C     0.59530   0.40702   0.52953   0.00000  Uiso   1.00
C92    C     0.57790   0.37156   0.47278   0.00000  Uiso   1.00
H93    H     0.54851   0.35701   0.41375   0.00000  Uiso   1.00
C94    C     0.59537   0.35328   0.48599   0.00000  Uiso   1.00
H95    H     0.58063   0.32374   0.43590   0.00000  Uiso   1.00
C96    C     0.63070   0.37018   0.55937   0.00000  Uiso   1.00
C97    C     0.58611   0.45872   0.41433   0.00000  Uiso   1.00
C98    C     0.61950   0.47956   0.26903   0.00000  Uiso   1.00
C99    C     0.57521   0.42475   0.51351   0.00000  Uiso   1.00
C100   C     0.56995   0.50424   0.29464   0.00000  Uiso   1.00
H101   H     0.59771   0.52221   0.18839   0.00000  Uiso   1.00
C102   C     0.54625   0.51560   0.29881   0.00000  Uiso   1.00
H103   H     0.55432   0.54323   0.20045   0.00000  Uiso   1.00
C104   C     0.51261   0.49402   0.42076   0.00000  Uiso   1.00
C105   C     0.50318   0.46089   0.54083   0.00000  Uiso   1.00
H106   H     0.47528   0.44256   0.64124   0.00000  Uiso   1.00
C107   C     0.52694   0.44961   0.54132   0.00000  Uiso   1.00
H108   H     0.51894   0.42213   0.64452   0.00000  Uiso   1.00
C109   C     0.56081   0.47108   0.41791   0.00000  Uiso   1.00
N110   N     0.63980   0.50870   0.50748   0.00000  Uiso   1.00
H111   H     0.60208   0.30158   0.56474   0.00000  Uiso   1.00
H112   H     0.54619   0.41010   0.59002   0.00000  Uiso   1.00
C113   C     0.70157   0.35058   0.56540   0.00000  Uiso   1.00
C114   C     0.68379   0.31580   0.56516   0.00000  Uiso   1.00
C115   C     0.59437   0.24234   0.62617   0.00000  Uiso   1.00
H116   H     0.58014   0.25738   0.69134   0.00000  Uiso   1.00
C117   C     0.57617   0.20657   0.61508   0.00000  Uiso   1.00
H118   H     0.54683   0.19168   0.67703   0.00000  Uiso   1.00
C119   C     0.59298   0.18828   0.52953   0.00000  Uiso   1.00
C120   C     0.62844   0.20634   0.47278   0.00000  Uiso   1.00
H121   H     0.64299   0.19150   0.41375   0.00000  Uiso   1.00
C122   C     0.64672   0.24209   0.48599   0.00000  Uiso   1.00
H123   H     0.67626   0.25690   0.43590   0.00000  Uiso   1.00
C124   C     0.62982   0.26052   0.55937   0.00000  Uiso   1.00
C125   C     0.54128   0.12739   0.41433   0.00000  Uiso   1.00
C126   C     0.52044   0.13994   0.26903   0.00000  Uiso   1.00
C127   C     0.57525   0.15046   0.51351   0.00000  Uiso   1.00
C128   C     0.49576   0.06571   0.29464   0.00000  Uiso   1.00
H129   H     0.47779   0.07550   0.18839   0.00000  Uiso   1.00
C130   C     0.48440   0.03065   0.29881   0.00000  Uiso   1.00
H131   H     0.45677   0.01108   0.20045   0.00000  Uiso   1.00
C132   C     0.50598   0.01859   0.42076   0.00000  Uiso   1.00
C133   C     0.53911   0.04229   0.54083   0.00000  Uiso   1.00
H134   H     0.55744   0.03272   0.64124   0.00000  Uiso   1.00
C135   C     0.55039   0.07733   0.54132   0.00000  Uiso   1.00
H136   H     0.57787   0.09681   0.64452   0.00000  Uiso   1.00
C137   C     0.52892   0.08973   0.41791   0.00000  Uiso   1.00
N138   N     0.49130   0.13110   0.50748   0.00000  Uiso   1.00
H139   H     0.69842   0.30050   0.56474   0.00000  Uiso   1.00
H140   H     0.58990   0.13609   0.59002   0.00000  Uiso   1.00
C141   C     0.64942   0.35099   0.56540   0.00000  Uiso   1.00
C142   C     0.68420   0.36799   0.56516   0.00000  Uiso   1.00
C143   C     0.75766   0.35203   0.62617   0.00000  Uiso   1.00
H144   H     0.74262   0.32276   0.69134   0.00000  Uiso   1.00
C145   C     0.79343   0.36960   0.61508   0.00000  Uiso   1.00
H146   H     0.80832   0.35515   0.67703   0.00000  Uiso   1.00
C147   C     0.81172   0.40470   0.52953   0.00000  Uiso   1.00
C148   C     0.79366   0.42210   0.47278   0.00000  Uiso   1.00
H149   H     0.80850   0.45149   0.41375   0.00000  Uiso   1.00
C150   C     0.75791   0.40463   0.48599   0.00000  Uiso   1.00
H151   H     0.74310   0.41937   0.43590   0.00000  Uiso   1.00
C152   C     0.73948   0.36930   0.55937   0.00000  Uiso   1.00
C153   C     0.87261   0.41389   0.41433   0.00000  Uiso   1.00
C154   C     0.86006   0.38050   0.26903   0.00000  Uiso   1.00
C155   C     0.84954   0.42479   0.51351   0.00000  Uiso   1.00
C156   C     0.93429   0.43005   0.29464   0.00000  Uiso   1.00
H157   H     0.92450   0.40229   0.18839   0.00000  Uiso   1.00
C158   C     0.96935   0.45375   0.29881   0.00000  Uiso   1.00
H159   H     0.98892   0.44568   0.20045   0.00000  Uiso   1.00
C160   C     0.98141   0.48739   0.42076   0.00000  Uiso   1.00
C161   C     0.95771   0.49682   0.54083   0.00000  Uiso   1.00
H162   H     0.96728   0.52472   0.64124   0.00000  Uiso   1.00
C163   C     0.92267   0.47306   0.54132   0.00000  Uiso   1.00
H164   H     0.90319   0.48106   0.64452   0.00000  Uiso   1.00
C165   C     0.91027   0.43919   0.41791   0.00000  Uiso   1.00
N166   N     0.86890   0.36020   0.50748   0.00000  Uiso   1.00
H167   H     0.69950   0.39792   0.56474   0.00000  Uiso   1.00
H168   H     0.86391   0.45381   0.59002   0.00000  Uiso   1.00
loop_
_geom_bond_atom_site_label_1
_geom_bond_atom_site_label_2
_geom_bond_distance
_geom_bond_site_symmetry_2
_ccdc_geom_bond_type
C1     C2      1.325   .     S
C1     C40     1.444   .     S
C1     C30     1.325   .     D
C2     C57     1.325   .     D
C2     H27     1.140   .     S
C3     H4      1.140   .     S
C3     C5      1.363   .     S
C3     C12     1.372   .     D
C5     C7      1.373   .     D
C5     H6      1.140   .     S
C7     C15     1.443   .     S
C7     C8      1.366   .     S
C8     C10     1.363   .     D
C8     H9      1.140   .     S
C10    H11     1.140   .     S
C10    C12     1.372   .     S
C12    C57     1.444   .     S
C13    C14     1.389   .     S
C13    C25     1.463   .     S
C13    C15     1.370   .     D
C14    N26     1.430   .     T
C15    H28     1.140   .     S
C16    H17     1.140   .     S
C16    C18     1.363   .     S
C16    C25     1.380   .     D
C18    C20     1.372   .     D
C18    H19     1.140   .     S
C20    C21     1.372   .     S
C20    C104    1.446   .     S
C21    C23     1.363   .     D
C21    H22     1.140   .     S
C23    H24     1.140   .     S
C23    C25     1.380   .     S
C29    C30     1.325   .     S
C29    C68     1.444   .     S
C29    C58     1.325   .     D
C30    H55     1.140   .     S
C31    H32     1.140   .     S
C31    C33     1.363   .     S
C31    C40     1.372   .     D
C33    C35     1.373   .     D
C33    H34     1.140   .     S
C35    C43     1.443   .     S
C35    C36     1.366   .     S
C36    C38     1.363   .     D
C36    H37     1.140   .     S
C38    H39     1.140   .     S
C38    C40     1.372   .     S
C41    C42     1.389   .     S
C41    C53     1.463   .     S
C41    C43     1.370   .     D
C42    N54     1.430   .     T
C43    H56     1.140   .     S
C44    H45     1.140   .     S
C44    C46     1.363   .     S
C44    C53     1.380   .     D
C46    C48     1.372   .     D
C46    H47     1.140   .     S
C48    C49     1.372   .     S
C48    C132    1.446   1_565 S
C49    C51     1.363   .     D
C49    H50     1.140   .     S
C51    H52     1.140   .     S
C51    C53     1.380   .     S
C57    C58     1.325   .     S
C58    H83     1.140   .     S
C59    H60     1.140   .     S
C59    C61     1.363   .     D
C59    C68     1.372   .     S
C61    C63     1.373   .     S
C61    H62     1.140   .     S
C63    C71     1.443   .     S
C63    C64     1.366   .     D
C64    C66     1.363   .     S
C64    H65     1.140   .     S
C66    H67     1.140   .     S
C66    C68     1.372   .     D
C69    C70     1.389   .     S
C69    C81     1.463   .     S
C69    C71     1.370   .     D
C70    N82     1.430   .     T
C71    H84     1.140   .     S
C72    H73     1.140   .     S
C72    C74     1.363   .     S
C72    C81     1.380   .     D
C74    C76     1.372   .     D
C74    H75     1.140   .     S
C76    C77     1.372   .     S
C76    C160    1.446   1_455 S
C77    C79     1.363   .     D
C77    H78     1.140   .     S
C79    H80     1.140   .     S
C79    C81     1.380   .     S
C85    C86     1.325   .     S
C85    C124    1.444   .     S
C85    C114    1.325   .     D
C86    C141    1.325   .     D
C86    H111    1.140   .     S
C87    H88     1.140   .     S
C87    C89     1.363   .     S
C87    C96     1.372   .     D
C89    C91     1.373   .     D
C89    H90     1.140   .     S
C91    C99     1.443   .     S
C91    C92     1.366   .     S
C92    C94     1.363   .     D
C92    H93     1.140   .     S
C94    H95     1.140   .     S
C94    C96     1.372   .     S
C96    C141    1.444   .     S
C97    C98     1.389   .     S
C97    C109    1.463   .     S
C97    C99     1.370   .     D
C98    N110    1.430   .     T
C99    H112    1.140   .     S
C100   H101    1.140   .     S
C100   C102    1.363   .     S
C100   C109    1.380   .     D
C102   C104    1.372   .     D
C102   H103    1.140   .     S
C104   C105    1.372   .     S
C105   C107    1.363   .     D
C105   H106    1.140   .     S
C107   H108    1.140   .     S
C107   C109    1.380   .     S
C113   C114    1.325   .     S
C113   C152    1.444   .     S
C113   C142    1.325   .     D
C114   H139    1.140   .     S
C115   H116    1.140   .     S
C115   C117    1.363   .     S
C115   C124    1.372   .     D
C117   C119    1.373   .     D
C117   H118    1.140   .     S
C119   C127    1.443   .     S
C119   C120    1.366   .     S
C120   C122    1.363   .     D
C120   H121    1.140   .     S
C122   H123    1.140   .     S
C122   C124    1.372   .     S
C125   C126    1.389   .     S
C125   C137    1.463   .     S
C125   C127    1.370   .     D
C126   N138    1.430   .     T
C127   H140    1.140   .     S
C128   H129    1.140   .     S
C128   C130    1.363   .     S
C128   C137    1.380   .     D
C130   C132    1.372   .     D
C130   H131    1.140   .     S
C132   C133    1.372   .     S
C132   C48     1.446   1_545 S
C133   C135    1.363   .     D
C133   H134    1.140   .     S
C135   H136    1.140   .     S
C135   C137    1.380   .     S
C141   C142    1.325   .     S
C142   H167    1.140   .     S
C143   H144    1.140   .     S
C143   C145    1.363   .     D
C143   C152    1.372   .     S
C145   C147    1.373   .     S
C145   H146    1.140   .     S
C147   C155    1.443   .     S
C147   C148    1.366   .     D
C148   C150    1.363   .     S
C148   H149    1.140   .     S
C150   H151    1.140   .     S
C150   C152    1.372   .     D
C153   C154    1.389   .     S
C153   C165    1.463   .     S
C153   C155    1.370   .     D
C154   N166    1.430   .     T
C155   H168    1.140   .     S
C156   H157    1.140   .     S
C156   C158    1.363   .     S
C156   C165    1.380   .     D
C158   C160    1.372   .     D
C158   H159    1.140   .     S
C160   C161    1.372   .     S
C160   C76     1.446   1_655 S
C161   C163    1.363   .     D
C161   H162    1.140   .     S
C163   H164    1.140   .     S
C163   C165    1.380   .     S
