data_1237
_audit_creation_date              2023-09-08
_audit_creation_method            'Materials Studio'
_symmetry_space_group_name_H-M    'P1'
_symmetry_Int_Tables_number       1
_symmetry_cell_setting            triclinic
loop_
_symmetry_equiv_pos_as_xyz
  x,y,z
_cell_length_a                    13.8670
_cell_length_b                    14.5290
_cell_length_c                    22.8250
_cell_angle_alpha                 90.4130
_cell_angle_beta                  90.0110
_cell_angle_gamma                 90.0920
loop_
_atom_site_label
_atom_site_type_symbol
_atom_site_fract_x
_atom_site_fract_y
_atom_site_fract_z
_atom_site_U_iso_or_equiv
_atom_site_adp_type
_atom_site_occupancy
C11    C    -0.00314  -0.00009  -0.00014   0.00000  Uiso   1.00
C22    C     0.50315   0.50007   0.50013   0.00000  Uiso   1.00
C33    C     0.05619   0.05903   0.04215   0.00000  Uiso   1.00
C44    C    -0.06213  -0.05863   0.04209   0.00000  Uiso   1.00
C55    C     0.05795  -0.05735  -0.04241   0.00000  Uiso   1.00
C66    C    -0.06387   0.05661  -0.04239   0.00000  Uiso   1.00
C77    C     0.56206   0.44163   0.54237   0.00000  Uiso   1.00
C88    C     0.44393   0.55907   0.54241   0.00000  Uiso   1.00
C99    C     0.56395   0.55687   0.45789   0.00000  Uiso   1.00
C1010  C     0.44195   0.44269   0.45786   0.00000  Uiso   1.00
C1111  C     0.03375   0.03694   0.10069   0.00000  Uiso   1.00
C1212  C    -0.03894  -0.03595   0.10066   0.00000  Uiso   1.00
C1313  C     0.03488  -0.03593   0.89904   0.00000  Uiso   1.00
C1414  C    -0.04000   0.03470   0.89905   0.00000  Uiso   1.00
C1515  C     0.53892   0.46423   0.60093   0.00000  Uiso   1.00
C1616  C     0.46634   0.53701   0.60096   0.00000  Uiso   1.00
C1717  C     0.54002   0.53490   0.39933   0.00000  Uiso   1.00
C1818  C     0.46505   0.46414   0.39931   0.00000  Uiso   1.00
C1919  C     0.12344   0.12662   0.02850   0.00000  Uiso   1.00
C2020  C     0.87073   0.87337   0.02843   0.00000  Uiso   1.00
C2121  C     0.12718   0.87714  -0.02873   0.00000  Uiso   1.00
C2222  C     0.86700   0.12253  -0.02872   0.00000  Uiso   1.00
C2323  C     0.62907   0.37374   0.52868   0.00000  Uiso   1.00
C2424  C     0.37677   0.62653   0.52875   0.00000  Uiso   1.00
C2525  C     0.63320   0.62292   0.47154   0.00000  Uiso   1.00
C2626  C     0.37263   0.37705   0.47152   0.00000  Uiso   1.00
C2727  C     0.16967   0.17357   0.07461   0.00000  Uiso   1.00
C2828  C     0.82547   0.82657   0.07452   0.00000  Uiso   1.00
C2929  C     0.17477   0.83158  -0.07481   0.00000  Uiso   1.00
C3030  C     0.82041   0.16804  -0.07479   0.00000  Uiso   1.00
C3131  C     0.67427   0.32697   0.57475   0.00000  Uiso   1.00
C3232  C     0.33060   0.67339   0.57484   0.00000  Uiso   1.00
C3333  C     0.67984   0.66847   0.42545   0.00000  Uiso   1.00
C3434  C     0.32498   0.33139   0.42543   0.00000  Uiso   1.00
C3535  C     0.14789   0.15218   0.13428   0.00000  Uiso   1.00
C3636  C     0.84814   0.84846   0.13419   0.00000  Uiso   1.00
C3737  C     0.15237   0.85228   0.86551   0.00000  Uiso   1.00
C3838  C     0.84376   0.14695   0.86553   0.00000  Uiso   1.00
C3939  C     0.65166   0.34878   0.63443   0.00000  Uiso   1.00
C4040  C     0.35235   0.65205   0.63452   0.00000  Uiso   1.00
C4141  C     0.65643   0.64730   0.36578   0.00000  Uiso   1.00
C4242  C     0.34741   0.35214   0.36575   0.00000  Uiso   1.00
C4343  C     0.07933   0.08321   0.14656   0.00000  Uiso   1.00
C4444  C    -0.08354  -0.08207   0.14649   0.00000  Uiso   1.00
C4545  C     0.08184  -0.08080   0.85319   0.00000  Uiso   1.00
C4646  C    -0.08595   0.07953   0.85322   0.00000  Uiso   1.00
C4747  C     0.58347   0.41813   0.64676   0.00000  Uiso   1.00
C4848  C     0.42082   0.58320   0.64682   0.00000  Uiso   1.00
C4949  C     0.58601   0.57977   0.35349   0.00000  Uiso   1.00
C5050  C     0.41803   0.41919   0.35345   0.00000  Uiso   1.00
C5151  C     0.19319   0.19840   0.18124   0.00000  Uiso   1.00
C5252  C     0.80425   0.80208   0.18115   0.00000  Uiso   1.00
C5353  C     0.19880   0.80712   0.81861   0.00000  Uiso   1.00
C5454  C     0.79878   0.19239   0.81862   0.00000  Uiso   1.00
C5555  C     0.69553   0.30236   0.68134   0.00000  Uiso   1.00
C5656  C     0.30705   0.69822   0.68143   0.00000  Uiso   1.00
C5757  C     0.70142   0.69271   0.31882   0.00000  Uiso   1.00
C5858  C     0.30098   0.30694   0.31880   0.00000  Uiso   1.00
C5959  C     0.22773   0.23358   0.22573   0.00000  Uiso   1.00
C6060  C     0.77131   0.76665   0.22567   0.00000  Uiso   1.00
C6161  C     0.23392   0.77221   0.77424   0.00000  Uiso   1.00
C6262  C     0.76528   0.22765   0.77422   0.00000  Uiso   1.00
C6363  C     0.72861   0.26673   0.72574   0.00000  Uiso   1.00
C6464  C     0.27237   0.73353   0.72580   0.00000  Uiso   1.00
C6565  C     0.73479   0.72778   0.27429   0.00000  Uiso   1.00
C6666  C     0.26601   0.27215   0.27431   0.00000  Uiso   1.00
C6767  C     0.26075   0.26534   0.00797   0.00000  Uiso   1.00
C6868  C     0.73411   0.73357   0.00783   0.00000  Uiso   1.00
C6969  C     0.26853   0.74263  -0.00811   0.00000  Uiso   1.00
C7070  C     0.72633   0.25814  -0.00809   0.00000  Uiso   1.00
C7171  C     0.76540   0.23414   0.50804   0.00000  Uiso   1.00
C7272  C     0.23966   0.76499   0.50817   0.00000  Uiso   1.00
C7373  C     0.77408   0.75879   0.49213   0.00000  Uiso   1.00
C7474  C     0.23111   0.24226   0.49209   0.00000  Uiso   1.00
O175   O     0.23665   0.24102   0.06687   0.00000  Uiso   1.00
O276   O     0.75878   0.75868   0.06674   0.00000  Uiso   1.00
O377   O     0.24367   0.76612  -0.06703   0.00000  Uiso   1.00
O478   O     0.75180   0.23394  -0.06700   0.00000  Uiso   1.00
O579   O     0.74083   0.25918   0.56696   0.00000  Uiso   1.00
O680   O     0.26371   0.74072   0.56708   0.00000  Uiso   1.00
O781   O     0.74857   0.73449   0.43322   0.00000  Uiso   1.00
O882   O     0.25600   0.26580   0.43319   0.00000  Uiso   1.00
H183   H     0.13932   0.14241  -0.01717   0.00000  Uiso   1.00
H284   H     0.85431   0.85700  -0.01724   0.00000  Uiso   1.00
H385   H     0.14349   0.86184   0.01696   0.00000  Uiso   1.00
H486   H     0.85012   0.13833   0.01696   0.00000  Uiso   1.00
H587   H     0.64543   0.35745   0.48300   0.00000  Uiso   1.00
H688   H     0.36092   0.64227   0.48307   0.00000  Uiso   1.00
H789   H     0.65015   0.63878   0.51721   0.00000  Uiso   1.00
H890   H     0.35629   0.36170   0.51719   0.00000  Uiso   1.00
H991   H     0.06349   0.06777   0.19233   0.00000  Uiso   1.00
H1092  H    -0.06695  -0.06631   0.19227   0.00000  Uiso   1.00
H1193  H     0.06554  -0.06587   0.80741   0.00000  Uiso   1.00
H1294  H    -0.06885   0.06437   0.80744   0.00000  Uiso   1.00
H1395  H     0.56692   0.43384   0.69254   0.00000  Uiso   1.00
H1496  H     0.43663   0.56778   0.69260   0.00000  Uiso   1.00
H1597  H     0.56887   0.56454   0.30771   0.00000  Uiso   1.00
H1698  H     0.43435   0.43415   0.30767   0.00000  Uiso   1.00
H1799  H     0.31499   0.31989   0.01182   0.00000  Uiso   1.00
H18100 H     0.68038   0.67865   0.01165   0.00000  Uiso   1.00
H19101 H     0.32435   0.68972  -0.01193   0.00000  Uiso   1.00
H20102 H     0.67099   0.31141  -0.01189   0.00000  Uiso   1.00
H21103 H     0.81903   0.17930   0.51184   0.00000  Uiso   1.00
H22104 H     0.18550   0.81945   0.51201   0.00000  Uiso   1.00
H23105 H     0.82950   0.81216   0.48831   0.00000  Uiso   1.00
H24106 H     0.17523   0.18924   0.48827   0.00000  Uiso   1.00
H25107 H     0.29136   0.20631  -0.01625   0.00000  Uiso   1.00
H26108 H     0.70270   0.79211  -0.01595   0.00000  Uiso   1.00
H27109 H     0.20594   0.71467   0.01568   0.00000  Uiso   1.00
H28110 H     0.78882   0.28586   0.01618   0.00000  Uiso   1.00
H29111 H     0.79689   0.29274   0.48427   0.00000  Uiso   1.00
H30112 H     0.20897   0.70592   0.48395   0.00000  Uiso   1.00
H31113 H     0.71164   0.78643   0.51638   0.00000  Uiso   1.00
H32114 H     0.29368   0.21442   0.51590   0.00000  Uiso   1.00
H33115 H     0.19734   0.29145  -0.01580   0.00000  Uiso   1.00
H34116 H     0.79742   0.70768  -0.01636   0.00000  Uiso   1.00
H35117 H     0.29741   0.80258   0.01606   0.00000  Uiso   1.00
H36118 H     0.69666   0.19861   0.01560   0.00000  Uiso   1.00
H37119 H     0.70201   0.20819   0.48385   0.00000  Uiso   1.00
H38120 H     0.30311   0.79122   0.48442   0.00000  Uiso   1.00
H39121 H     0.80368   0.69934   0.51585   0.00000  Uiso   1.00
H40122 H     0.20230   0.30215   0.51626   0.00000  Uiso   1.00
loop_
_geom_bond_atom_site_label_1
_geom_bond_atom_site_label_2
_geom_bond_distance
_geom_bond_site_symmetry_2
_ccdc_geom_bond_type
C11    C33     1.527   .     S
C11    C44     1.527   .     S
C11    C55     1.527   .     S
C11    C66     1.527   .     S
C22    C77     1.527   .     S
C22    C88     1.527   .     S
C22    C99     1.527   .     S
C22    C1010   1.527   .     S
C33    C1111   1.411   .     D
C33    C1919   1.390   .     S
C44    C1212   1.411   .     D
C44    C2020   1.390   1_445 S
C55    C1313   1.411   1_554 S
C55    C2121   1.390   1_545 D
C66    C1414   1.411   1_554 D
C66    C2222   1.390   1_455 S
C77    C1515   1.411   .     D
C77    C2323   1.390   .     S
C88    C1616   1.411   .     D
C88    C2424   1.390   .     S
C99    C1717   1.411   .     S
C99    C2525   1.390   .     D
C1010  C1818   1.411   .     S
C1010  C2626   1.390   .     D
C1111  C1212   1.461   .     S
C1111  C4343   1.391   .     S
C1212  C4444   1.391   .     S
C1313  C1414   1.461   .     S
C1313  C4545   1.391   .     D
C1313  C55     1.411   1_556 S
C1414  C4646   1.391   .     S
C1414  C66     1.411   1_556 D
C1515  C1616   1.461   .     S
C1515  C4747   1.391   .     S
C1616  C4848   1.391   .     S
C1717  C1818   1.461   .     S
C1717  C4949   1.391   .     D
C1818  C5050   1.391   .     D
C1919  C2727   1.404   .     D
C1919  H183    1.091   .     S
C2020  C2828   1.404   .     D
C2020  H284    1.091   .     S
C2020  C44     1.390   1_665 S
C2121  C2929   1.404   .     S
C2121  H385    1.092   .     S
C2121  C55     1.390   1_565 D
C2222  C3030   1.404   .     D
C2222  H486    1.092   .     S
C2222  C66     1.390   1_655 S
C2323  C3131   1.404   .     D
C2323  H587    1.091   .     S
C2424  C3232   1.404   .     D
C2424  H688    1.091   .     S
C2525  C3333   1.404   .     S
C2525  H789    1.091   .     S
C2626  C3434   1.404   .     S
C2626  H890    1.091   .     S
C2727  C3535   1.431   .     S
C2727  O175    1.362   .     S
C2828  C3636   1.431   .     S
C2828  O276    1.362   .     S
C2929  O377    1.362   .     S
C2929  C3737   1.431   1_554 D
C3030  O478    1.362   .     S
C3030  C3838   1.431   1_554 S
C3131  C3939   1.431   .     S
C3131  O579    1.362   .     S
C3232  C4040   1.431   .     S
C3232  O680    1.362   .     S
C3333  C4141   1.431   .     D
C3333  O781    1.362   .     S
C3434  C4242   1.431   .     D
C3434  O882    1.362   .     S
C3535  C4343   1.410   .     D
C3535  C5151   1.408   .     S
C3636  C5252   1.408   .     S
C3636  C4444   1.410   1_665 D
C3737  C5353   1.408   .     S
C3737  C2929   1.431   1_556 D
C3737  C4545   1.410   1_565 S
C3838  C5454   1.408   .     S
C3838  C3030   1.431   1_556 S
C3838  C4646   1.410   1_655 D
C3939  C4747   1.410   .     D
C3939  C5555   1.408   .     S
C4040  C4848   1.410   .     D
C4040  C5656   1.408   .     S
C4141  C4949   1.410   .     S
C4141  C5757   1.408   .     S
C4242  C5050   1.410   .     S
C4242  C5858   1.408   .     S
C4343  H991    1.092   .     S
C4444  H1092   1.092   .     S
C4444  C3636   1.410   1_445 D
C4545  H1193   1.092   .     S
C4545  C3737   1.410   1_545 S
C4646  H1294   1.093   .     S
C4646  C3838   1.410   1_455 D
C4747  H1395   1.092   .     S
C4848  H1496   1.093   .     S
C4949  H1597   1.093   .     S
C5050  H1698   1.092   .     S
C5151  C5959   1.230   .     T
C5252  C6060   1.230   .     T
C5353  C6161   1.230   .     T
C5454  C6262   1.230   .     T
C5555  C6363   1.230   .     T
C5656  C6464   1.230   .     T
C5757  C6565   1.230   .     T
C5858  C6666   1.230   .     T
C5959  C6666   1.347   .     S
C6060  C6565   1.347   .     S
C6161  C6464   1.347   .     S
C6262  C6363   1.347   .     S
C6767  O175    1.432   .     S
C6767  H1799   1.095   .     S
C6767  H25107  1.103   .     S
C6767  H33115  1.102   .     S
C6868  O276    1.432   .     S
C6868  H18100  1.095   .     S
C6868  H26108  1.102   .     S
C6868  H34116  1.102   .     S
C6969  O377    1.432   .     S
C6969  H19101  1.095   .     S
C6969  H27109  1.102   .     S
C6969  H35117  1.102   .     S
C7070  O478    1.432   .     S
C7070  H20102  1.095   .     S
C7070  H28110  1.102   .     S
C7070  H36118  1.102   .     S
C7171  O579    1.432   .     S
C7171  H21103  1.095   .     S
C7171  H29111  1.102   .     S
C7171  H37119  1.102   .     S
C7272  O680    1.432   .     S
C7272  H22104  1.095   .     S
C7272  H30112  1.102   .     S
C7272  H38120  1.102   .     S
C7373  O781    1.432   .     S
C7373  H23105  1.095   .     S
C7373  H31113  1.102   .     S
C7373  H39121  1.102   .     S
C7474  O882    1.432   .     S
C7474  H24106  1.095   .     S
C7474  H32114  1.103   .     S
C7474  H40122  1.102   .     S
