data_1238
_audit_creation_date              2023-09-08
_audit_creation_method            'Materials Studio'
_symmetry_space_group_name_H-M    'P1'
_symmetry_Int_Tables_number       1
_symmetry_cell_setting            triclinic
loop_
_symmetry_equiv_pos_as_xyz
  x,y,z
_cell_length_a                    13.2200
_cell_length_b                    13.2200
_cell_length_c                    12.1990
_cell_angle_alpha                 90.0000
_cell_angle_beta                  90.0000
_cell_angle_gamma                 90.0000
loop_
_atom_site_label
_atom_site_type_symbol
_atom_site_fract_x
_atom_site_fract_y
_atom_site_fract_z
_atom_site_U_iso_or_equiv
_atom_site_adp_type
_atom_site_occupancy
C1     C     0.56427   0.43602   0.08270   0.00000  Uiso   1.00
C2     C     0.53872   0.46165   0.19174   0.00000  Uiso   1.00
C3     C     0.63804   0.36272   0.06730   0.00000  Uiso   1.00
C4     C     0.68609   0.31610   0.15804   0.00000  Uiso   1.00
C5     C     0.65907   0.34173   0.26758   0.00000  Uiso   1.00
C6     C     0.58388   0.41643   0.28132   0.00000  Uiso   1.00
C7     C     0.69982   0.29892   0.36389   0.00000  Uiso   1.00
C8     C     0.72978   0.26734   0.45298   0.00000  Uiso   1.00
C9     C     0.81914   0.19813   0.21174   0.00000  Uiso   1.00
O10    O     0.75765   0.24683   0.13029   0.00000  Uiso   1.00
H11    H     0.66302   0.33724   0.98736   0.00000  Uiso   1.00
H12    H     0.56227   0.43712   0.36454   0.00000  Uiso   1.00
H13    H     0.87448   0.15338   0.16598   0.00000  Uiso   1.00
H14    H     0.77398   0.14755   0.26356   0.00000  Uiso   1.00
H15    H     0.85932   0.25361   0.26246   0.00000  Uiso   1.00
C16    C     0.43573   0.56398   0.08270   0.00000  Uiso   1.00
C17    C     0.46128   0.53835   0.19174   0.00000  Uiso   1.00
C18    C     0.36196   0.63728   0.06730   0.00000  Uiso   1.00
C19    C     0.31391   0.68390   0.15804   0.00000  Uiso   1.00
C20    C     0.34093   0.65827   0.26758   0.00000  Uiso   1.00
C21    C     0.41612   0.58357   0.28132   0.00000  Uiso   1.00
C22    C     0.30018   0.70108   0.36389   0.00000  Uiso   1.00
C23    C     0.27022   0.73266   0.45298   0.00000  Uiso   1.00
C24    C     0.18086   0.80187   0.21174   0.00000  Uiso   1.00
O25    O     0.24235   0.75317   0.13029   0.00000  Uiso   1.00
H26    H     0.33698   0.66276   0.98736   0.00000  Uiso   1.00
H27    H     0.43773   0.56288   0.36454   0.00000  Uiso   1.00
H28    H     0.12552   0.84662   0.16598   0.00000  Uiso   1.00
H29    H     0.22602   0.85245   0.26356   0.00000  Uiso   1.00
H30    H     0.14068   0.74639   0.26246   0.00000  Uiso   1.00
C31    C     0.43602   0.43573   0.91730   0.00000  Uiso   1.00
C32    C     0.46165   0.46128   0.80826   0.00000  Uiso   1.00
C33    C     0.36272   0.36196   0.93270   0.00000  Uiso   1.00
C34    C     0.31610   0.31391   0.84196   0.00000  Uiso   1.00
C35    C     0.34173   0.34093   0.73242   0.00000  Uiso   1.00
C36    C     0.41643   0.41612   0.71868   0.00000  Uiso   1.00
C37    C     0.29892   0.30018   0.63611   0.00000  Uiso   1.00
C38    C     0.26734   0.27022   0.54702   0.00000  Uiso   1.00
C39    C     0.19813   0.18086   0.78826   0.00000  Uiso   1.00
O40    O     0.24683   0.24235   0.86971   0.00000  Uiso   1.00
H41    H     0.33724   0.33698   0.01264   0.00000  Uiso   1.00
H42    H     0.43712   0.43773   0.63546   0.00000  Uiso   1.00
H43    H     0.15338   0.12552   0.83402   0.00000  Uiso   1.00
H44    H     0.14755   0.22602   0.73644   0.00000  Uiso   1.00
H45    H     0.25361   0.14068   0.73754   0.00000  Uiso   1.00
C46    C     0.56398   0.56427   0.91730   0.00000  Uiso   1.00
C47    C     0.53835   0.53872   0.80826   0.00000  Uiso   1.00
C48    C     0.63728   0.63804   0.93270   0.00000  Uiso   1.00
C49    C     0.68390   0.68609   0.84196   0.00000  Uiso   1.00
C50    C     0.65827   0.65907   0.73242   0.00000  Uiso   1.00
C51    C     0.58357   0.58388   0.71868   0.00000  Uiso   1.00
C52    C     0.70108   0.69982   0.63611   0.00000  Uiso   1.00
C53    C     0.73266   0.72978   0.54702   0.00000  Uiso   1.00
C54    C     0.80187   0.81914   0.78826   0.00000  Uiso   1.00
O55    O     0.75317   0.75765   0.86971   0.00000  Uiso   1.00
H56    H     0.66276   0.66302   0.01264   0.00000  Uiso   1.00
H57    H     0.56288   0.56227   0.63546   0.00000  Uiso   1.00
H58    H     0.84662   0.87448   0.83402   0.00000  Uiso   1.00
H59    H     0.85245   0.77398   0.73644   0.00000  Uiso   1.00
H60    H     0.74639   0.85932   0.73754   0.00000  Uiso   1.00
C61    C     0.06427   0.06398   0.08270   0.00000  Uiso   1.00
C62    C     0.03872   0.03835   0.19174   0.00000  Uiso   1.00
C63    C     0.13804   0.13728   0.06730   0.00000  Uiso   1.00
C64    C     0.18609   0.18390   0.15804   0.00000  Uiso   1.00
C65    C     0.15907   0.15827   0.26758   0.00000  Uiso   1.00
C66    C     0.08388   0.08357   0.28132   0.00000  Uiso   1.00
C67    C     0.19982   0.20108   0.36389   0.00000  Uiso   1.00
C68    C     0.22978   0.23266   0.45298   0.00000  Uiso   1.00
C69    C     0.31914   0.30187   0.21174   0.00000  Uiso   1.00
O70    O     0.25765   0.25317   0.13029   0.00000  Uiso   1.00
H71    H     0.16302   0.16276   0.98736   0.00000  Uiso   1.00
H72    H     0.06227   0.06288   0.36454   0.00000  Uiso   1.00
H73    H     0.37448   0.34662   0.16598   0.00000  Uiso   1.00
H74    H     0.27398   0.35245   0.26356   0.00000  Uiso   1.00
H75    H     0.35932   0.24639   0.26246   0.00000  Uiso   1.00
C76    C     0.93573   0.93602   0.08270   0.00000  Uiso   1.00
C77    C     0.96128   0.96165   0.19174   0.00000  Uiso   1.00
C78    C     0.86196   0.86272   0.06730   0.00000  Uiso   1.00
C79    C     0.81391   0.81610   0.15804   0.00000  Uiso   1.00
C80    C     0.84093   0.84173   0.26758   0.00000  Uiso   1.00
C81    C     0.91612   0.91643   0.28132   0.00000  Uiso   1.00
C82    C     0.80018   0.79892   0.36389   0.00000  Uiso   1.00
C83    C     0.77022   0.76734   0.45298   0.00000  Uiso   1.00
C84    C     0.68086   0.69813   0.21174   0.00000  Uiso   1.00
O85    O     0.74235   0.74683   0.13029   0.00000  Uiso   1.00
H86    H     0.83698   0.83724   0.98736   0.00000  Uiso   1.00
H87    H     0.93773   0.93712   0.36454   0.00000  Uiso   1.00
H88    H     0.62552   0.65338   0.16598   0.00000  Uiso   1.00
H89    H     0.72602   0.64755   0.26356   0.00000  Uiso   1.00
H90    H     0.64068   0.75361   0.26246   0.00000  Uiso   1.00
C91    C     0.93602   0.06427   0.91730   0.00000  Uiso   1.00
C92    C     0.96165   0.03872   0.80826   0.00000  Uiso   1.00
C93    C     0.86272   0.13804   0.93270   0.00000  Uiso   1.00
C94    C     0.81610   0.18609   0.84196   0.00000  Uiso   1.00
C95    C     0.84173   0.15907   0.73242   0.00000  Uiso   1.00
C96    C     0.91643   0.08388   0.71868   0.00000  Uiso   1.00
C97    C     0.79892   0.19982   0.63611   0.00000  Uiso   1.00
C98    C     0.76734   0.22978   0.54702   0.00000  Uiso   1.00
C99    C     0.69813   0.31914   0.78826   0.00000  Uiso   1.00
O100   O     0.74683   0.25765   0.86971   0.00000  Uiso   1.00
H101   H     0.83724   0.16302   0.01264   0.00000  Uiso   1.00
H102   H     0.93712   0.06227   0.63546   0.00000  Uiso   1.00
H103   H     0.65338   0.37448   0.83402   0.00000  Uiso   1.00
H104   H     0.64755   0.27398   0.73644   0.00000  Uiso   1.00
H105   H     0.75361   0.35932   0.73754   0.00000  Uiso   1.00
C106   C     0.06398   0.93573   0.91730   0.00000  Uiso   1.00
C107   C     0.03835   0.96128   0.80826   0.00000  Uiso   1.00
C108   C     0.13728   0.86196   0.93270   0.00000  Uiso   1.00
C109   C     0.18390   0.81391   0.84196   0.00000  Uiso   1.00
C110   C     0.15827   0.84093   0.73242   0.00000  Uiso   1.00
C111   C     0.08357   0.91612   0.71868   0.00000  Uiso   1.00
C112   C     0.20108   0.80018   0.63611   0.00000  Uiso   1.00
C113   C     0.23266   0.77022   0.54702   0.00000  Uiso   1.00
C114   C     0.30187   0.68086   0.78826   0.00000  Uiso   1.00
O115   O     0.25317   0.74235   0.86971   0.00000  Uiso   1.00
H116   H     0.16276   0.83698   0.01264   0.00000  Uiso   1.00
H117   H     0.06288   0.93773   0.63546   0.00000  Uiso   1.00
H118   H     0.34662   0.62552   0.83402   0.00000  Uiso   1.00
H119   H     0.35245   0.72602   0.73644   0.00000  Uiso   1.00
H120   H     0.24639   0.64068   0.73754   0.00000  Uiso   1.00
C121   C     0.00000   0.00000   0.00000   0.00000  Uiso   1.00
C122   C     0.50000   0.50000   0.00000   0.00000  Uiso   1.00
loop_
_geom_bond_atom_site_label_1
_geom_bond_atom_site_label_2
_geom_bond_distance
_geom_bond_site_symmetry_2
_ccdc_geom_bond_type
C1     C2      1.414   .     D
C1     C3      1.388   .     S
C1     C122    1.567   .     S
C2     C6      1.381   .     S
C2     C17     1.441   .     S
C3     C4      1.417   .     D
C3     H11     1.083   1_554 S
C4     C5      1.424   .     S
C4     O10     1.359   .     S
C5     C6      1.411   .     D
C5     C7      1.411   .     S
C6     H12     1.090   .     S
C7     C8      1.230   .     T
C8     C98     1.345   .     S
C9     O10     1.436   .     S
C9     H13     1.094   .     S
C9     H14     1.097   .     S
C9     H15     1.097   .     S
H11    C3      1.083   1_556 S
C16    C17     1.414   .     D
C16    C18     1.388   .     S
C16    C122    1.567   .     S
C17    C21     1.381   .     S
C18    C19     1.417   .     D
C18    H26     1.083   1_554 S
C19    C20     1.424   .     S
C19    O25     1.359   .     S
C20    C21     1.411   .     D
C20    C22     1.411   .     S
C21    H27     1.090   .     S
C22    C23     1.230   .     T
C23    C113    1.345   .     S
C24    O25     1.436   .     S
C24    H28     1.094   .     S
C24    H29     1.097   .     S
C24    H30     1.097   .     S
H26    C18     1.083   1_556 S
C31    C32     1.414   .     D
C31    C33     1.388   .     S
C31    C122    1.567   1_556 S
C32    C36     1.381   .     S
C32    C47     1.441   .     S
C33    C34     1.417   .     D
C33    H41     1.083   1_556 S
C34    C35     1.424   .     S
C34    O40     1.359   .     S
C35    C36     1.411   .     D
C35    C37     1.411   .     S
C36    H42     1.090   .     S
C37    C38     1.230   .     T
C38    C68     1.345   .     S
C39    O40     1.436   .     S
C39    H43     1.094   .     S
C39    H44     1.097   .     S
C39    H45     1.097   .     S
H41    C33     1.083   1_554 S
C46    C47     1.414   .     D
C46    C48     1.388   .     S
C46    C122    1.567   1_556 S
C47    C51     1.381   .     S
C48    C49     1.417   .     D
C48    H56     1.083   1_556 S
C49    C50     1.424   .     S
C49    O55     1.359   .     S
C50    C51     1.411   .     D
C50    C52     1.411   .     S
C51    H57     1.090   .     S
C52    C53     1.230   .     T
C53    C83     1.345   .     S
C54    O55     1.436   .     S
C54    H58     1.094   .     S
C54    H59     1.097   .     S
C54    H60     1.097   .     S
H56    C48     1.083   1_554 S
C61    C62     1.414   .     D
C61    C63     1.388   .     S
C61    C121    1.567   .     S
C62    C66     1.381   .     S
C62    C77     1.441   1_445 S
C63    C64     1.417   .     D
C63    H71     1.083   1_554 S
C64    C65     1.424   .     S
C64    O70     1.359   .     S
C65    C66     1.411   .     D
C65    C67     1.411   .     S
C66    H72     1.090   .     S
C67    C68     1.230   .     T
C69    O70     1.436   .     S
C69    H73     1.094   .     S
C69    H74     1.097   .     S
C69    H75     1.097   .     S
H71    C63     1.083   1_556 S
C76    C77     1.414   .     S
C76    C78     1.388   .     D
C76    C121    1.567   1_665 S
C77    C81     1.381   .     D
C77    C62     1.441   1_665 S
C78    C79     1.417   .     S
C78    H86     1.083   1_554 S
C79    C80     1.424   .     D
C79    O85     1.359   .     S
C80    C81     1.411   .     S
C80    C82     1.411   .     S
C81    H87     1.090   .     S
C82    C83     1.230   .     T
C84    O85     1.436   .     S
C84    H88     1.094   .     S
C84    H89     1.097   .     S
C84    H90     1.097   .     S
H86    C78     1.083   1_556 S
C91    C92     1.414   .     D
C91    C93     1.388   .     S
C91    C121    1.567   1_656 S
C92    C96     1.381   .     S
C92    C107    1.441   1_645 S
C93    C94     1.417   .     D
C93    H101    1.083   1_556 S
C94    C95     1.424   .     S
C94    O100    1.359   .     S
C95    C96     1.411   .     D
C95    C97     1.411   .     S
C96    H102    1.090   .     S
C97    C98     1.230   .     T
C99    O100    1.436   .     S
C99    H103    1.094   .     S
C99    H104    1.097   .     S
C99    H105    1.097   .     S
H101   C93     1.083   1_554 S
C106   C107    1.414   .     S
C106   C108    1.388   .     D
C106   C121    1.567   1_566 S
C107   C111    1.381   .     D
C107   C92     1.441   1_465 S
C108   C109    1.417   .     S
C108   H116    1.083   1_556 S
C109   C110    1.424   .     D
C109   O115    1.359   .     S
C110   C111    1.411   .     S
C110   C112    1.411   .     S
C111   H117    1.090   .     S
C112   C113    1.230   .     T
C114   O115    1.436   .     S
C114   H118    1.094   .     S
C114   H119    1.097   .     S
C114   H120    1.097   .     S
H116   C108    1.083   1_554 S
C121   C76     1.567   1_445 S
C121   C91     1.567   1_454 S
C121   C106    1.567   1_544 S
C122   C31     1.567   1_554 S
C122   C46     1.567   1_554 S
