data_1239
_audit_creation_date              2023-09-08
_audit_creation_method            'Materials Studio'
_symmetry_space_group_name_H-M    'P1'
_symmetry_Int_Tables_number       1
_symmetry_cell_setting            triclinic
loop_
_symmetry_equiv_pos_as_xyz
  x,y,z
_cell_length_a                    25.2511
_cell_length_b                    25.2511
_cell_length_c                    6.5262
_cell_angle_alpha                 90.0000
_cell_angle_beta                  90.0000
_cell_angle_gamma                 120.0000
loop_
_atom_site_label
_atom_site_type_symbol
_atom_site_fract_x
_atom_site_fract_y
_atom_site_fract_z
_atom_site_U_iso_or_equiv
_atom_site_adp_type
_atom_site_occupancy
C1     C     0.54885   1.02654   0.25000   0.00000  Uiso   1.00
C2     C     1.15892   0.91518   0.25000   0.00000  Uiso   1.00
C3     C     1.27098   0.86008   0.25000   0.00000  Uiso   1.00
C4     C     1.32635   0.91514   0.25000   0.00000  Uiso   1.00
O5     O     1.10492   1.02718   0.25000   0.00000  Uiso   1.00
C6     C     1.43522   1.02531   0.25000   0.00000  Uiso   1.00
C7     C     0.82518   1.13669   0.25000   0.00000  Uiso   1.00
C8     C     0.71327   1.19207   0.25000   0.00000  Uiso   1.00
C9     C     0.65784   1.13700   0.25000   0.00000  Uiso   1.00
O10    O     0.87926   1.02458   0.25000   0.00000  Uiso   1.00
C11    C     0.99156   1.08228   0.25000   0.00000  Uiso   1.00
C12    C     1.10292   0.80324   0.25000   0.00000  Uiso   1.00
C13    C     1.15798   0.97035   0.25000   0.00000  Uiso   1.00
C14    C     1.10291   0.97072   0.25000   0.00000  Uiso   1.00
O15    O     0.99092   0.63737   0.25000   0.00000  Uiso   1.00
C16    C     0.99279   0.96968   0.25000   0.00000  Uiso   1.00
C17    C     0.88137   1.24867   0.25000   0.00000  Uiso   1.00
C18    C     0.82608   1.08146   0.25000   0.00000  Uiso   1.00
C19    C     0.88115   1.08102   0.25000   0.00000  Uiso   1.00
O20    O     0.99345   1.41457   0.25000   0.00000  Uiso   1.00
C21    C     0.93579   1.46914   0.25000   0.00000  Uiso   1.00
C22    C     1.21487   0.85913   0.25000   0.00000  Uiso   1.00
C23    C     1.04777   0.74716   0.25000   0.00000  Uiso   1.00
C24    C     1.04739   0.69173   0.25000   0.00000  Uiso   1.00
O25    O     1.38074   0.91316   0.25000   0.00000  Uiso   1.00
C26    C     1.04840   0.58275   0.25000   0.00000  Uiso   1.00
C27    C     0.76938   1.19295   0.25000   0.00000  Uiso   1.00
C28    C     0.93657   1.30471   0.25000   0.00000  Uiso   1.00
C29    C     0.93699   1.36014   0.25000   0.00000  Uiso   1.00
O30    O     0.60334   1.13887   0.25000   0.00000  Uiso   1.00
C31    C     0.99266   0.58266   0.25000   0.00000  Uiso   1.00
C32    C     0.88133   1.19280   0.25000   0.00000  Uiso   1.00
C33    C     0.82619   1.30480   0.25000   0.00000  Uiso   1.00
C34    C     0.88127   1.36014   0.25000   0.00000  Uiso   1.00
O35    O     0.99332   1.13879   0.25000   0.00000  Uiso   1.00
C36    C     0.99139   1.46900   0.25000   0.00000  Uiso   1.00
C37    C     1.10282   0.85904   0.25000   0.00000  Uiso   1.00
C38    C     1.15819   0.74712   0.25000   0.00000  Uiso   1.00
C39    C     1.10312   0.69164   0.25000   0.00000  Uiso   1.00
O40    O     0.99071   0.91311   0.25000   0.00000  Uiso   1.00
C41    C     1.04841   1.02541   0.25000   0.00000  Uiso   1.00
C42    C     0.76938   1.13680   0.25000   0.00000  Uiso   1.00
C43    C     0.93650   1.19186   0.25000   0.00000  Uiso   1.00
C44    C     0.93687   1.13678   0.25000   0.00000  Uiso   1.00
O45    O     0.60356   1.02481   0.25000   0.00000  Uiso   1.00
C46    C     0.93582   1.02666   0.25000   0.00000  Uiso   1.00
C47    C     1.21480   0.91524   0.25000   0.00000  Uiso   1.00
C48    C     1.04758   0.85994   0.25000   0.00000  Uiso   1.00
C49    C     1.04715   0.91500   0.25000   0.00000  Uiso   1.00
O50    O     1.38077   1.02735   0.25000   0.00000  Uiso   1.00
C51    C     1.43538   0.96968   0.25000   0.00000  Uiso   1.00
C52    C     0.82525   1.24874   0.25000   0.00000  Uiso   1.00
C53    C     0.71331   1.08165   0.25000   0.00000  Uiso   1.00
C54    C     0.65790   1.08129   0.25000   0.00000  Uiso   1.00
O55    O     0.87927   1.41452   0.25000   0.00000  Uiso   1.00
C56    C     0.54897   1.08231   0.25000   0.00000  Uiso   1.00
C57    C     1.15907   0.80325   0.25000   0.00000  Uiso   1.00
C58    C     1.27087   0.97046   0.25000   0.00000  Uiso   1.00
C59    C     1.32631   0.97087   0.25000   0.00000  Uiso   1.00
O60    O     1.10499   0.63713   0.25000   0.00000  Uiso   1.00
N61    N     0.49207   1.08166   0.25000   0.00000  Uiso   1.00
C62    C     0.49199   0.91186   0.25000   0.00000  Uiso   1.00
C63    C     0.49212   0.97022   0.25000   0.00000  Uiso   1.00
N64    N     0.93645   0.97031   0.25000   0.00000  Uiso   1.00
C65    C     1.10617   1.14001   0.24996   0.00000  Uiso   1.00
C66    C     1.04789   1.08175   0.25002   0.00000  Uiso   1.00
N67    N     1.04775   0.52584   0.25000   0.00000  Uiso   1.00
C68    C     0.87798   0.52574   0.25000   0.00000  Uiso   1.00
C69    C     0.93631   0.52589   0.25000   0.00000  Uiso   1.00
N70    N     0.83203   0.52547   0.25000   0.00000  Uiso   1.00
N71    N     0.49181   0.86595   0.25000   0.00000  Uiso   1.00
N72    N     1.15199   1.18583   0.25002   0.00000  Uiso   1.00
C73    C     0.05671   0.50053   0.75000   0.00000  Uiso   1.00
C74    C     0.66685   0.38922   0.75000   0.00000  Uiso   1.00
C75    C     0.77885   0.33407   0.75000   0.00000  Uiso   1.00
C76    C     0.83420   0.38915   0.75000   0.00000  Uiso   1.00
O77    O     0.61285   0.50122   0.75000   0.00000  Uiso   1.00
C78    C     0.94305   0.49926   0.75000   0.00000  Uiso   1.00
C79    C     0.33310   0.61071   0.75000   0.00000  Uiso   1.00
C80    C     0.22116   0.66607   0.75000   0.00000  Uiso   1.00
C81    C     0.16569   0.61100   0.75000   0.00000  Uiso   1.00
O82    O     0.38717   0.49861   0.75000   0.00000  Uiso   1.00
C83    C     0.49948   0.55631   0.75000   0.00000  Uiso   1.00
C84    C     0.61085   0.27727   0.75000   0.00000  Uiso   1.00
C85    C     0.66591   0.44439   0.75000   0.00000  Uiso   1.00
C86    C     0.61084   0.44477   0.75000   0.00000  Uiso   1.00
O87    O     0.49885   0.11146   0.75000   0.00000  Uiso   1.00
C88    C     0.50072   0.44372   0.75000   0.00000  Uiso   1.00
C89    C     0.38930   0.72270   0.75000   0.00000  Uiso   1.00
C90    C     0.33399   0.55548   0.75000   0.00000  Uiso   1.00
C91    C     0.38906   0.55504   0.75000   0.00000  Uiso   1.00
O92    O     0.50139   0.88867   0.75000   0.00000  Uiso   1.00
C93    C     0.44371   0.94326   0.75000   0.00000  Uiso   1.00
C94    C     0.72278   0.33314   0.75000   0.00000  Uiso   1.00
C95    C     0.55570   0.22120   0.75000   0.00000  Uiso   1.00
C96    C     0.55533   0.16580   0.75000   0.00000  Uiso   1.00
O97    O     0.88857   0.38715   0.75000   0.00000  Uiso   1.00
C98    C     0.55633   0.05686   0.75000   0.00000  Uiso   1.00
C99    C     0.27730   0.66696   0.75000   0.00000  Uiso   1.00
C100   C     0.44452   0.77878   0.75000   0.00000  Uiso   1.00
C101   C     0.44493   0.83422   0.75000   0.00000  Uiso   1.00
O102   O     0.11118   0.61286   0.75000   0.00000  Uiso   1.00
C103   C     0.50058   0.05675   0.75000   0.00000  Uiso   1.00
C104   C     0.38924   0.66682   0.75000   0.00000  Uiso   1.00
C105   C     0.33412   0.77886   0.75000   0.00000  Uiso   1.00
C106   C     0.38920   0.83425   0.75000   0.00000  Uiso   1.00
O107   O     0.50123   0.61282   0.75000   0.00000  Uiso   1.00
C108   C     0.49933   0.94312   0.75000   0.00000  Uiso   1.00
C109   C     0.61074   0.33308   0.75000   0.00000  Uiso   1.00
C110   C     0.66611   0.22116   0.75000   0.00000  Uiso   1.00
C111   C     0.61104   0.16573   0.75000   0.00000  Uiso   1.00
O112   O     0.49864   0.38715   0.75000   0.00000  Uiso   1.00
C113   C     0.55634   0.49946   0.75000   0.00000  Uiso   1.00
C114   C     0.27729   0.61081   0.75000   0.00000  Uiso   1.00
C115   C     0.44441   0.66587   0.75000   0.00000  Uiso   1.00
C116   C     0.44478   0.61080   0.75000   0.00000  Uiso   1.00
O117   O     0.11143   0.49880   0.75000   0.00000  Uiso   1.00
C118   C     0.44374   0.50069   0.75000   0.00000  Uiso   1.00
C119   C     0.72272   0.38926   0.75000   0.00000  Uiso   1.00
C120   C     0.55551   0.33397   0.75000   0.00000  Uiso   1.00
C121   C     0.55507   0.38904   0.75000   0.00000  Uiso   1.00
O122   O     0.88863   0.50133   0.75000   0.00000  Uiso   1.00
C123   C     0.94320   0.44365   0.75000   0.00000  Uiso   1.00
C124   C     0.33318   0.72276   0.75000   0.00000  Uiso   1.00
C125   C     0.22121   0.55566   0.75000   0.00000  Uiso   1.00
C126   C     0.16578   0.55528   0.75000   0.00000  Uiso   1.00
O127   O     0.38719   0.88863   0.75000   0.00000  Uiso   1.00
C128   C     0.05679   0.55626   0.75000   0.00000  Uiso   1.00
C129   C     0.66700   0.27726   0.75000   0.00000  Uiso   1.00
C130   C     0.77878   0.44448   0.75000   0.00000  Uiso   1.00
C131   C     0.83422   0.44489   0.75000   0.00000  Uiso   1.00
O132   O     0.61290   0.11123   0.75000   0.00000  Uiso   1.00
N133   N    -0.00011   0.55560   0.75000   0.00000  Uiso   1.00
C134   C    -0.00016   0.38587   0.75000   0.00000  Uiso   1.00
C135   C    -0.00005   0.44418   0.75000   0.00000  Uiso   1.00
N136   N     0.44437   0.44435   0.75000   0.00000  Uiso   1.00
C137   C     0.61407   0.61407   0.74998   0.00000  Uiso   1.00
C138   C     0.55581   0.55579   0.75001   0.00000  Uiso   1.00
N139   N     0.55569  -0.00004   0.75000   0.00000  Uiso   1.00
C140   C     0.38593  -0.00008   0.75000   0.00000  Uiso   1.00
C141   C     0.44425   0.00002   0.75000   0.00000  Uiso   1.00
N142   N     0.34004  -0.00022   0.75000   0.00000  Uiso   1.00
N143   N    -0.00038   0.33993   0.75000   0.00000  Uiso   1.00
N144   N     0.65989   0.65989   0.75001   0.00000  Uiso   1.00
H145   H     1.27073   0.81481   0.25000   0.00000  Uiso   1.00
H146   H     0.71356   1.23736   0.25000   0.00000  Uiso   1.00
H147   H     1.20274   1.01587   0.25000   0.00000  Uiso   1.00
H148   H     0.78130   1.03595   0.25000   0.00000  Uiso   1.00
H149   H     1.00225   0.74641   0.25000   0.00000  Uiso   1.00
H150   H     0.98205   1.30539   0.25000   0.00000  Uiso   1.00
H151   H     0.78094   1.30459   0.25000   0.00000  Uiso   1.00
H152   H     1.20350   0.74745   0.25000   0.00000  Uiso   1.00
H153   H     0.98202   1.23662   0.25000   0.00000  Uiso   1.00
H154   H     1.00207   0.81516   0.25000   0.00000  Uiso   1.00
H155   H     0.71256   1.03613   0.25000   0.00000  Uiso   1.00
H156   H     1.27156   1.01595   0.25000   0.00000  Uiso   1.00
H157   H     0.77863   0.28881   0.75000   0.00000  Uiso   1.00
H158   H     0.22149   0.71138   0.75000   0.00000  Uiso   1.00
H159   H     0.71067   0.48991   0.75000   0.00000  Uiso   1.00
H160   H     0.28921   0.50998   0.75000   0.00000  Uiso   1.00
H161   H     0.51018   0.22045   0.75000   0.00000  Uiso   1.00
H162   H     0.49001   0.77948   0.75000   0.00000  Uiso   1.00
H163   H     0.28885   0.77861   0.75000   0.00000  Uiso   1.00
H164   H     0.71140   0.22145   0.75000   0.00000  Uiso   1.00
H165   H     0.48994   0.71063   0.75000   0.00000  Uiso   1.00
H166   H     0.51001   0.28919   0.75000   0.00000  Uiso   1.00
H167   H     0.22046   0.51014   0.75000   0.00000  Uiso   1.00
H168   H     0.77946   0.48996   0.75000   0.00000  Uiso   1.00
loop_
_geom_bond_atom_site_label_1
_geom_bond_atom_site_label_2
_geom_bond_distance
_geom_bond_site_symmetry_2
_ccdc_geom_bond_type
C1     O45     1.404   .     S
C1     C56     1.407   .     S
C1     C63     1.427   .     D
C2     C13     1.405   .     D
C2     C37     1.417   .     S
C2     C47     1.410   .     S
C3     C4      1.394   .     S
C3     C22     1.405   .     D
C3     H145    1.140   .     S
C4     O25     1.399   .     S
C4     C59     1.408   .     D
O5     C14     1.401   .     S
O5     C41     1.405   .     S
C6     O50     1.401   .     S
C6     C51     1.407   .     D
C6     N61     1.429   1_655 S
C7     C18     1.406   .     D
C7     C32     1.417   .     S
C7     C42     1.410   .     S
C8     C9      1.395   .     D
C8     C27     1.406   .     S
C8     H146    1.140   .     S
C9     O30     1.400   .     S
C9     C54     1.407   .     S
O10    C19     1.402   .     S
O10    C46     1.403   .     S
C11    O35     1.405   .     S
C11    C46     1.406   .     S
C11    C66     1.429   .     D
C12    C23     1.404   .     S
C12    C37     1.410   .     S
C12    C57     1.418   .     D
C13    C14     1.395   .     S
C13    H147    1.140   .     S
C14    C49     1.407   .     D
O15    C24     1.400   .     S
O15    C31     1.404   .     S
C16    O40     1.403   .     S
C16    C41     1.406   .     D
C16    N64     1.431   .     S
C17    C28     1.405   .     S
C17    C32     1.410   .     S
C17    C52     1.418   .     D
C18    C19     1.396   .     S
C18    H148    1.140   .     S
C19    C44     1.407   .     D
O20    C29     1.401   .     S
O20    C36     1.401   .     S
C21    C36     1.406   .     D
C21    O55     1.404   .     S
C21    C69     1.426   1_565 S
C22    C47     1.418   .     S
C22    C57     1.410   .     S
C23    C24     1.395   .     D
C23    H149    1.140   .     S
C24    C39     1.408   .     S
O25    C51     1.404   .     S
C26    C31     1.406   .     S
C26    O60     1.402   .     S
C26    N67     1.429   .     D
C27    C42     1.418   .     D
C27    C52     1.410   .     S
C28    C29     1.394   .     D
C28    H150    1.140   .     S
C29    C34     1.407   .     S
O30    C56     1.401   .     S
C31    C69     1.428   .     D
C32    C43     1.405   .     D
C33    C34     1.394   .     D
C33    C52     1.404   .     S
C33    H151    1.140   .     S
C34    O55     1.399   .     S
O35    C44     1.401   .     S
C36    N67     1.429   1_565 S
C37    C48     1.406   .     D
C38    C39     1.396   .     D
C38    C57     1.406   .     S
C38    H152    1.140   .     S
C39    O60     1.401   .     S
O40    C49     1.402   .     S
C41    C66     1.429   .     S
C42    C53     1.404   .     S
C43    C44     1.396   .     S
C43    H153    1.140   .     S
O45    C54     1.400   .     S
C46    N64     1.431   .     D
C47    C58     1.405   .     D
C48    C49     1.396   .     S
C48    H154    1.140   .     S
O50    C59     1.401   .     S
C51    C63     1.426   1_655 S
C53    C54     1.395   .     D
C53    H155    1.140   .     S
C56    N61     1.429   .     D
C58    C59     1.395   .     S
C58    H156    1.140   .     S
N61    C6      1.429   1_455 S
C62    C63     1.472   .     S
C62    N71     1.157   .     T
C63    C51     1.426   1_455 S
C65    C66     1.471   .     S
C65    N72     1.157   .     T
N67    C36     1.429   1_545 S
C68    C69     1.471   .     S
C68    N70     1.157   .     T
C69    C21     1.426   1_545 S
C73    O117    1.404   .     S
C73    C128    1.406   .     S
C73    C135    1.428   .     D
C74    C85     1.405   .     D
C74    C109    1.417   .     S
C74    C119    1.410   .     S
C75    C76     1.394   .     D
C75    C94     1.404   .     S
C75    H157    1.140   .     S
C76    O97     1.399   .     S
C76    C131    1.407   .     S
O77    C86     1.401   .     S
O77    C113    1.405   .     S
C78    O122    1.401   .     S
C78    C123    1.406   .     D
C78    N133    1.429   1_655 S
C79    C90     1.406   .     D
C79    C104    1.417   .     S
C79    C114    1.411   .     S
C80    C81     1.396   .     S
C80    C99     1.406   .     D
C80    H158    1.140   .     S
C81    O102    1.401   .     S
C81    C126    1.408   .     D
O82    C91     1.402   .     S
O82    C118    1.403   .     S
C83    O107    1.405   .     S
C83    C118    1.406   .     D
C83    C138    1.429   .     S
C84    C95     1.404   .     S
C84    C109    1.411   .     S
C84    C129    1.418   .     D
C85    C86     1.395   .     S
C85    H159    1.140   .     S
C86    C121    1.408   .     D
O87    C96     1.400   .     S
O87    C103    1.404   .     S
C88    O112    1.403   .     S
C88    C113    1.406   .     S
C88    N136    1.431   .     D
C89    C100    1.405   .     S
C89    C104    1.410   .     S
C89    C124    1.418   .     D
C90    C91     1.396   .     S
C90    H160    1.140   .     S
C91    C116    1.407   .     D
O92    C101    1.401   .     S
O92    C108    1.402   .     S
C93    C108    1.406   .     S
C93    O127    1.404   .     S
C93    C141    1.426   1_565 D
C94    C119    1.418   .     D
C94    C129    1.410   .     S
C95    C96     1.394   .     D
C95    H161    1.140   .     S
C96    C111    1.408   .     S
O97    C123    1.404   .     S
C98    C103    1.406   .     D
C98    O132    1.402   .     S
C98    N139    1.429   .     S
C99    C114    1.418   .     S
C99    C124    1.410   .     S
C100   C101    1.395   .     D
C100   H162    1.140   .     S
C101   C106    1.408   .     S
O102   C128    1.402   .     S
C103   C141    1.427   .     S
C104   C115    1.405   .     D
C105   C106    1.395   .     D
C105   C124    1.405   .     S
C105   H163    1.140   .     S
C106   O127    1.399   .     S
O107   C116    1.401   .     S
C108   N139    1.429   1_565 D
C109   C120    1.406   .     D
C110   C111    1.395   .     D
C110   C129    1.405   .     S
C110   H164    1.140   .     S
C111   O132    1.400   .     S
O112   C121    1.402   .     S
C113   C138    1.429   .     D
C114   C125    1.404   .     D
C115   C116    1.395   .     S
C115   H165    1.140   .     S
O117   C126    1.400   .     S
C118   N136    1.431   .     S
C119   C130    1.405   .     S
C120   C121    1.396   .     S
C120   H166    1.140   .     S
O122   C131    1.400   .     S
C123   C135    1.426   1_655 S
C125   C126    1.395   .     S
C125   H167    1.140   .     S
C128   N133    1.429   .     D
C130   C131    1.395   .     D
C130   H168    1.140   .     S
N133   C78     1.429   1_455 S
C134   C135    1.471   .     S
C134   N143    1.157   .     T
C135   C123    1.426   1_455 S
C137   C138    1.471   .     S
C137   N144    1.157   .     T
N139   C108    1.429   1_545 D
C140   C141    1.471   .     S
C140   N142    1.157   .     T
C141   C93     1.426   1_545 D
