data_1240
_audit_creation_date              2023-09-08
_audit_creation_method            'Materials Studio'
_symmetry_space_group_name_H-M    'P1'
_symmetry_Int_Tables_number       1
_symmetry_cell_setting            triclinic
loop_
_symmetry_equiv_pos_as_xyz
  x,y,z
_cell_length_a                    26.4165
_cell_length_b                    26.4165
_cell_length_c                    6.8000
_cell_angle_alpha                 90.0000
_cell_angle_beta                  90.0000
_cell_angle_gamma                 120.0000
loop_
_atom_site_label
_atom_site_type_symbol
_atom_site_fract_x
_atom_site_fract_y
_atom_site_fract_z
_atom_site_U_iso_or_equiv
_atom_site_adp_type
_atom_site_occupancy
C11    C     0.30565   0.70287   0.25000   0.00000  Uiso   1.00
C22    C     0.26476   0.63592   0.25000   0.00000  Uiso   1.00
C33    C     0.29571   0.59988   0.25000   0.00000  Uiso   1.00
C44    C     0.36271   0.62792   0.25000   0.00000  Uiso   1.00
N55    N     0.39722   0.69239   0.25000   0.00000  Uiso   1.00
C66    C     0.37299   0.73236   0.25000   0.00000  Uiso   1.00
C77    C     0.39234   0.58377   0.25000   0.00000  Uiso   1.00
C88    C     0.45317   0.59551   0.25000   0.00000  Uiso   1.00
C99    C     0.47812   0.54712   0.25000   0.00000  Uiso   1.00
C1010  C     0.43769   0.48201   0.25000   0.00000  Uiso   1.00
C1111  C     0.45707   0.43569   0.25000   0.00000  Uiso   1.00
C1212  C     0.42066   0.80589   0.25000   0.00000  Uiso   1.00
C1313  C     0.41082   0.85690   0.25000   0.00000  Uiso   1.00
C1414  C     0.19100   0.60820   0.25000   0.00000  Uiso   1.00
C1515  C     0.14095   0.54774   0.25000   0.00000  Uiso   1.00
C1616  C     0.93159   0.47750   0.25000   0.00000  Uiso   1.00
C1717  C     0.54380   0.06951   0.25000   0.00000  Uiso   1.00
C1818  C     0.95623   0.43736   0.25000   0.00000  Uiso   1.00
C1919  C     0.97824   0.54261   0.25000   0.00000  Uiso   1.00
C2020  C     0.56470   0.02441   0.25000   0.00000  Uiso   1.00
C2121  C     0.47872   0.04203   0.25000   0.00000  Uiso   1.00
C2222  C     0.59397   0.63216   0.25000   0.00000  Uiso   1.00
C2323  C     0.25963   0.53334   0.25000   0.00000  Uiso   1.00
C2424  C     0.27651   0.74016   0.25000   0.00000  Uiso   1.00
N2525  N     0.25171   0.76881   0.25000   0.00000  Uiso   1.00
N2626  N     0.23188   0.47986   0.25000   0.00000  Uiso   1.00
H2727  H     0.35919   0.53523   0.25000   0.00000  Uiso   1.00
H2828  H     0.48603   0.64409   0.25000   0.00000  Uiso   1.00
H2929  H     0.38890   0.46631   0.25000   0.00000  Uiso   1.00
H3030  H     0.46858   0.81771   0.25000   0.00000  Uiso   1.00
H3131  H     0.36386   0.84381   0.25000   0.00000  Uiso   1.00
H3232  H     0.17667   0.64221   0.25000   0.00000  Uiso   1.00
H3333  H     0.15372   0.51349   0.25000   0.00000  Uiso   1.00
H3434  H     0.92323   0.38850   0.25000   0.00000  Uiso   1.00
C3535  C     0.96073   0.59324   0.25000   0.00000  Uiso   1.00
C3636  C     0.63353   0.04459   0.25000   0.00000  Uiso   1.00
H3737  H     0.46122   0.07379   0.25000   0.00000  Uiso   1.00
H3838  H     0.64001   0.67460   0.25000   0.00000  Uiso   1.00
H3939  H     0.63635   0.62857   0.25000   0.00000  Uiso   1.00
H4040  H     0.57574   0.66391   0.25000   0.00000  Uiso   1.00
H4141  H     0.33436   0.90551   0.25000   0.00000  Uiso   1.00
H4242  H     0.36787   0.00038   0.25000   0.00000  Uiso   1.00
H4343  H     0.32598   0.96232   0.25000   0.00000  Uiso   1.00
H4444  H     0.96899   0.64115   0.25000   0.00000  Uiso   1.00
H4545  H     0.91110   0.57698   0.25000   0.00000  Uiso   1.00
H4646  H     0.00660   0.63575   0.25000   0.00000  Uiso   1.00
C4747  C     0.69435   0.29713   0.25000   0.00000  Uiso   1.00
C4848  C     0.73524   0.36408   0.25000   0.00000  Uiso   1.00
C4949  C     0.70429   0.40012   0.25000   0.00000  Uiso   1.00
C5050  C     0.63729   0.37208   0.25000   0.00000  Uiso   1.00
N5151  N     0.60278   0.30761   0.25000   0.00000  Uiso   1.00
C5252  C     0.62701   0.26764   0.25000   0.00000  Uiso   1.00
C5353  C     0.60766   0.41623   0.25000   0.00000  Uiso   1.00
C5454  C     0.54683   0.40449   0.25000   0.00000  Uiso   1.00
C5555  C     0.52188   0.45288   0.25000   0.00000  Uiso   1.00
C5656  C     0.56231   0.51799   0.25000   0.00000  Uiso   1.00
C5757  C     0.54293   0.56431   0.25000   0.00000  Uiso   1.00
C5858  C     0.57934   0.19411   0.25000   0.00000  Uiso   1.00
C5959  C     0.58918   0.14310   0.25000   0.00000  Uiso   1.00
C6060  C     0.80900   0.39180   0.25000   0.00000  Uiso   1.00
C6161  C     0.85905   0.45226   0.25000   0.00000  Uiso   1.00
C6262  C     0.06841   0.52250   0.25000   0.00000  Uiso   1.00
C6363  C     0.45620   0.93049   0.25000   0.00000  Uiso   1.00
C6464  C     0.04377   0.56264   0.25000   0.00000  Uiso   1.00
C6565  C     0.02176   0.45739   0.25000   0.00000  Uiso   1.00
C6666  C     0.43530   0.97559   0.25000   0.00000  Uiso   1.00
C6767  C     0.52128   0.95797   0.25000   0.00000  Uiso   1.00
C6868  C     0.40603   0.36784   0.25000   0.00000  Uiso   1.00
C6969  C     0.74037   0.46666   0.25000   0.00000  Uiso   1.00
C7070  C     0.72349   0.25984   0.25000   0.00000  Uiso   1.00
N7171  N     0.74829   0.23119   0.25000   0.00000  Uiso   1.00
N7272  N     0.76812   0.52014   0.25000   0.00000  Uiso   1.00
H7373  H     0.64081   0.46477   0.25000   0.00000  Uiso   1.00
H7474  H     0.51397   0.35591   0.25000   0.00000  Uiso   1.00
H7575  H     0.61110   0.53369   0.25000   0.00000  Uiso   1.00
H7676  H     0.53142   0.18229   0.25000   0.00000  Uiso   1.00
H7777  H     0.63614   0.15619   0.25000   0.00000  Uiso   1.00
H7878  H     0.82333   0.35779   0.25000   0.00000  Uiso   1.00
H7979  H     0.84628   0.48651   0.25000   0.00000  Uiso   1.00
H8080  H     0.07677   0.61150   0.25000   0.00000  Uiso   1.00
C8181  C     0.03927   0.40676   0.25000   0.00000  Uiso   1.00
C8282  C     0.36647   0.95541   0.25000   0.00000  Uiso   1.00
H8383  H     0.53878   0.92621   0.25000   0.00000  Uiso   1.00
H8484  H     0.35999   0.32540   0.25000   0.00000  Uiso   1.00
H8585  H     0.36365   0.37143   0.25000   0.00000  Uiso   1.00
H8686  H     0.42426   0.33609   0.25000   0.00000  Uiso   1.00
H8787  H     0.66564   0.09449   0.25000   0.00000  Uiso   1.00
H8888  H     0.63213   0.99962   0.25000   0.00000  Uiso   1.00
H8989  H     0.67402   0.03768   0.25000   0.00000  Uiso   1.00
H9090  H     0.03101   0.35885   0.25000   0.00000  Uiso   1.00
H9191  H     0.08890   0.42302   0.25000   0.00000  Uiso   1.00
H9292  H     0.99340   0.36425   0.25000   0.00000  Uiso   1.00
C9393  C     0.63895   0.36957   0.75000   0.00000  Uiso   1.00
C9494  C     1.02765  -0.03617   0.75000   0.00000  Uiso   1.00
C9595  C     0.59806   0.30262   0.75000   0.00000  Uiso   1.00
C9696  C     1.06854   0.03078   0.75000   0.00000  Uiso   1.00
C9797  C     0.62901   0.26658   0.75000   0.00000  Uiso   1.00
C9898  C     1.03759   0.06682   0.75000   0.00000  Uiso   1.00
C9999  C     0.69601   0.29462   0.75000   0.00000  Uiso   1.00
C100100 C     0.97059   0.03878   0.75000   0.00000  Uiso   1.00
N101101 N     0.73052   0.35909   0.75000   0.00000  Uiso   1.00
N102102 N     0.93608  -0.02569   0.75000   0.00000  Uiso   1.00
C103103 C     0.70629   0.39906   0.75000   0.00000  Uiso   1.00
C104104 C     0.96031  -0.06566   0.75000   0.00000  Uiso   1.00
C105105 C     0.72564   0.25047   0.75000   0.00000  Uiso   1.00
C106106 C     0.94096   0.08293   0.75000   0.00000  Uiso   1.00
C107107 C     0.78647   0.26221   0.75000   0.00000  Uiso   1.00
C108108 C     0.88013   0.07119   0.75000   0.00000  Uiso   1.00
C109109 C     0.81142   0.21382   0.75000   0.00000  Uiso   1.00
C110110 C     0.85518   0.11958   0.75000   0.00000  Uiso   1.00
C111111 C     0.77099   0.14871   0.75000   0.00000  Uiso   1.00
C112112 C     0.89561   0.18469   0.75000   0.00000  Uiso   1.00
C113113 C     0.79037   0.10239   0.75000   0.00000  Uiso   1.00
C114114 C     0.87623   0.23101   0.75000   0.00000  Uiso   1.00
C115115 C     0.75396   0.47259   0.75000   0.00000  Uiso   1.00
C116116 C     0.91264  -0.13919   0.75000   0.00000  Uiso   1.00
C117117 C     0.74412   0.52360   0.75000   0.00000  Uiso   1.00
C118118 C     0.92248  -0.19020   0.75000   0.00000  Uiso   1.00
C119119 C     0.52430   0.27490   0.75000   0.00000  Uiso   1.00
C120120 C     1.14230   0.05850   0.75000   0.00000  Uiso   1.00
C121121 C     0.47425   0.21444   0.75000   0.00000  Uiso   1.00
C122122 C     1.19235   0.11896   0.75000   0.00000  Uiso   1.00
C123123 C     1.26489   0.14420   0.75000   0.00000  Uiso   1.00
C124124 C     0.40171   0.18920   0.75000   0.00000  Uiso   1.00
C125125 C     0.87710  -0.26379   0.75000   0.00000  Uiso   1.00
C126126 C     0.78950   0.59719   0.75000   0.00000  Uiso   1.00
C127127 C     1.28953   0.10406   0.75000   0.00000  Uiso   1.00
C128128 C     0.37707   0.22934   0.75000   0.00000  Uiso   1.00
C129129 C     1.31154   0.20931   0.75000   0.00000  Uiso   1.00
C130130 C     0.35506   0.12409   0.75000   0.00000  Uiso   1.00
C131131 C     0.89800  -0.30889   0.75000   0.00000  Uiso   1.00
C132132 C     0.76860   0.64229   0.75000   0.00000  Uiso   1.00
C133133 C     0.81202  -0.29127   0.75000   0.00000  Uiso   1.00
C134134 C     0.85458   0.62467   0.75000   0.00000  Uiso   1.00
C135135 C     0.92727   0.29886   0.75000   0.00000  Uiso   1.00
C136136 C     0.73933   0.03454   0.75000   0.00000  Uiso   1.00
C137137 C     0.59293   0.20004   0.75000   0.00000  Uiso   1.00
C138138 C     1.07367   0.13336   0.75000   0.00000  Uiso   1.00
C139139 C     0.60981   0.40686   0.75000   0.00000  Uiso   1.00
C140140 C     1.05679  -0.07346   0.75000   0.00000  Uiso   1.00
N141141 N     0.58501   0.43551   0.75000   0.00000  Uiso   1.00
N142142 N     1.08159  -0.10211   0.75000   0.00000  Uiso   1.00
N143143 N     0.56518   0.14656   0.75000   0.00000  Uiso   1.00
N144144 N     1.10142   0.18684   0.75000   0.00000  Uiso   1.00
H145145 H     0.69249   0.20193   0.75000   0.00000  Uiso   1.00
H146146 H     0.97411   0.13147   0.75000   0.00000  Uiso   1.00
H147147 H     0.81933   0.31079   0.75000   0.00000  Uiso   1.00
H148148 H     0.84727   0.02261   0.75000   0.00000  Uiso   1.00
H149149 H     0.72220   0.13301   0.75000   0.00000  Uiso   1.00
H150150 H     0.94440   0.20039   0.75000   0.00000  Uiso   1.00
H151151 H     0.80188   0.48441   0.75000   0.00000  Uiso   1.00
H152152 H     0.86472  -0.15101   0.75000   0.00000  Uiso   1.00
H153153 H     0.69716   0.51051   0.75000   0.00000  Uiso   1.00
H154154 H     0.96944  -0.17711   0.75000   0.00000  Uiso   1.00
H155155 H     0.50997   0.30891   0.75000   0.00000  Uiso   1.00
H156156 H     1.15663   0.02449   0.75000   0.00000  Uiso   1.00
H157157 H     0.48702   0.18019   0.75000   0.00000  Uiso   1.00
H158158 H     1.17958   0.15321   0.75000   0.00000  Uiso   1.00
H159159 H     1.25653   0.05520   0.75000   0.00000  Uiso   1.00
H160160 H     0.41007   0.27820   0.75000   0.00000  Uiso   1.00
C161161 C     1.29403   0.25994   0.75000   0.00000  Uiso   1.00
C162162 C     0.37257   0.07346   0.75000   0.00000  Uiso   1.00
C163163 C     0.96683  -0.28871   0.75000   0.00000  Uiso   1.00
C164164 C     0.69977   0.62211   0.75000   0.00000  Uiso   1.00
H165165 H     0.79452  -0.25951   0.75000   0.00000  Uiso   1.00
H166166 H     0.87208   0.59291   0.75000   0.00000  Uiso   1.00
H167167 H     0.97331   0.34130   0.75000   0.00000  Uiso   1.00
H168168 H     0.69329  -0.00790   0.75000   0.00000  Uiso   1.00
H169169 H     0.96965   0.29527   0.75000   0.00000  Uiso   1.00
H170170 H     0.69695   0.03813   0.75000   0.00000  Uiso   1.00
H171171 H     0.90904   0.33061   0.75000   0.00000  Uiso   1.00
H172172 H     0.75756   0.00279   0.75000   0.00000  Uiso   1.00
H173173 H     0.66766   0.57221   0.75000   0.00000  Uiso   1.00
H174174 H     0.99894  -0.23881   0.75000   0.00000  Uiso   1.00
H175175 H     0.70117   0.66708   0.75000   0.00000  Uiso   1.00
H176176 H     0.96543  -0.33368   0.75000   0.00000  Uiso   1.00
H177177 H     0.65928   0.62902   0.75000   0.00000  Uiso   1.00
H178178 H     1.00732  -0.29562   0.75000   0.00000  Uiso   1.00
H179179 H     1.30229   0.30785   0.75000   0.00000  Uiso   1.00
H180180 H     0.36431   0.02555   0.75000   0.00000  Uiso   1.00
H181181 H     1.24440   0.24368   0.75000   0.00000  Uiso   1.00
H182182 H     0.42220   0.08972   0.75000   0.00000  Uiso   1.00
H183183 H     1.33990   0.30245   0.75000   0.00000  Uiso   1.00
H184184 H     0.32670   0.03095   0.75000   0.00000  Uiso   1.00
loop_
_geom_bond_atom_site_label_1
_geom_bond_atom_site_label_2
_geom_bond_distance
_geom_bond_site_symmetry_2
_ccdc_geom_bond_type
C11    C22     1.544   .     D
C11    C66     1.545   .     S
C11    C2424   1.524   .     S
C22    C33     1.534   .     S
C22    C1414   1.705   .     S
C33    C44     1.540   .     D
C33    C2323   1.524   .     S
C44    N55     1.476   .     S
C44    C77     1.699   .     S
N55    C66     1.483   .     D
C66    C1212   1.707   .     S
C77    C88     1.476   .     D
C77    H2727   1.135   .     S
C88    C99     1.706   .     S
C88    H2828   1.134   .     S
C99    C1010   1.504   .     D
C99    C5757   1.536   .     S
C1010  C1111   1.545   .     S
C1010  H2929   1.140   .     S
C1111  C5555   1.536   .     D
C1111  C6868   1.617   .     S
C1212  C1313   1.495   .     D
C1212  H3030   1.142   .     S
C1313  H3131   1.109   .     S
C1313  C6363   1.699   .     S
C1414  C1515   1.479   .     D
C1414  H3232   1.136   .     S
C1515  H3333   1.112   .     S
C1515  C6262   1.685   .     S
C1616  C1818   1.496   .     D
C1616  C1919   1.535   .     S
C1616  C6161   1.685   .     S
C1717  C2020   1.543   .     D
C1717  C2121   1.495   .     S
C1717  C5959   1.699   .     S
C1818  H3434   1.140   .     S
C1818  C6565   1.536   1_655 S
C1919  C3535   1.619   .     S
C1919  C6464   1.536   1_655 D
C2020  C3636   1.619   .     S
C2020  C6767   1.544   1_545 S
C2121  H3737   1.143   .     S
C2121  C6666   1.544   1_545 D
C2222  H3838   1.172   .     S
C2222  H3939   1.170   .     S
C2222  H4040   1.157   .     S
C2222  C5757   1.617   .     S
C2323  N2626   1.224   .     T
C2424  N2525   1.224   .     T
C3535  H4444   1.172   .     S
C3535  H4545   1.158   .     S
C3535  H4646   1.170   1_655 S
C3636  H8787   1.157   .     S
C3636  H8989   1.172   .     S
C3636  H8888   1.170   1_545 S
H4141  C8282   1.157   .     S
H4242  C8282   1.170   1_545 S
H4343  C8282   1.172   .     S
H4646  C3535   1.170   1_455 S
C4747  C4848   1.544   .     D
C4747  C5252   1.545   .     S
C4747  C7070   1.524   .     S
C4848  C4949   1.534   .     S
C4848  C6060   1.705   .     S
C4949  C5050   1.540   .     D
C4949  C6969   1.524   .     S
C5050  N5151   1.476   .     S
C5050  C5353   1.699   .     S
N5151  C5252   1.483   .     D
C5252  C5858   1.707   .     S
C5353  C5454   1.476   .     D
C5353  H7373   1.135   .     S
C5454  C5555   1.706   .     S
C5454  H7474   1.134   .     S
C5555  C5656   1.504   .     S
C5656  C5757   1.545   .     D
C5656  H7575   1.140   .     S
C5858  C5959   1.495   .     D
C5858  H7676   1.142   .     S
C5959  H7777   1.109   .     S
C6060  C6161   1.479   .     D
C6060  H7878   1.136   .     S
C6161  H7979   1.112   .     S
C6262  C6464   1.496   .     S
C6262  C6565   1.535   .     D
C6363  C6666   1.543   .     S
C6363  C6767   1.495   .     D
C6464  H8080   1.140   .     S
C6464  C1919   1.536   1_455 D
C6565  C8181   1.619   .     S
C6565  C1818   1.536   1_455 S
C6666  C8282   1.619   .     S
C6666  C2121   1.544   1_565 D
C6767  H8383   1.143   .     S
C6767  C2020   1.544   1_565 S
C6868  H8484   1.172   .     S
C6868  H8585   1.170   .     S
C6868  H8686   1.157   .     S
C6969  N7272   1.224   .     T
C7070  N7171   1.224   .     T
C8181  H9090   1.172   .     S
C8181  H9191   1.158   .     S
C8181  H9292   1.170   1_455 S
C8282  H4242   1.170   1_565 S
H8888  C3636   1.170   1_565 S
H9292  C8181   1.170   1_655 S
C9393  C9595   1.544   .     D
C9393  C103103  1.545   .     S
C9393  C139139  1.524   .     S
C9494  C9696   1.544   .     D
C9494  C104104  1.545   .     S
C9494  C140140  1.524   .     S
C9595  C9797   1.534   .     S
C9595  C119119  1.705   .     S
C9696  C9898   1.534   .     S
C9696  C120120  1.705   .     S
C9797  C9999   1.540   .     D
C9797  C137137  1.524   .     S
C9898  C100100  1.540   .     D
C9898  C138138  1.524   .     S
C9999  N101101  1.476   .     S
C9999  C105105  1.699   .     S
C100100 N102102  1.476   .     S
C100100 C106106  1.699   .     S
N101101 C103103  1.483   .     D
N102102 C104104  1.483   .     D
C103103 C115115  1.707   .     S
C104104 C116116  1.707   .     S
C105105 C107107  1.476   .     D
C105105 H145145  1.135   .     S
C106106 C108108  1.476   .     D
C106106 H146146  1.135   .     S
C107107 C109109  1.706   .     S
C107107 H147147  1.134   .     S
C108108 C110110  1.706   .     S
C108108 H148148  1.134   .     S
C109109 C111111  1.504   .     S
C109109 C114114  1.536   .     D
C110110 C112112  1.504   .     D
C110110 C113113  1.536   .     S
C111111 C113113  1.545   .     D
C111111 H149149  1.140   .     S
C112112 C114114  1.545   .     S
C112112 H150150  1.140   .     S
C113113 C136136  1.617   .     S
C114114 C135135  1.617   .     S
C115115 C117117  1.495   .     D
C115115 H151151  1.142   .     S
C116116 C118118  1.495   .     D
C116116 H152152  1.142   .     S
C117117 C126126  1.699   .     S
C117117 H153153  1.109   .     S
C118118 C125125  1.699   .     S
C118118 H154154  1.109   .     S
C119119 C121121  1.479   .     D
C119119 H155155  1.136   .     S
C120120 C122122  1.479   .     D
C120120 H156156  1.136   .     S
C121121 C124124  1.685   .     S
C121121 H157157  1.112   .     S
C122122 C123123  1.685   .     S
C122122 H158158  1.112   .     S
C123123 C127127  1.496   .     D
C123123 C129129  1.535   .     S
C124124 C128128  1.496   .     S
C124124 C130130  1.535   .     D
C125125 C131131  1.543   .     D
C125125 C133133  1.495   .     S
C126126 C132132  1.543   .     S
C126126 C134134  1.495   .     D
C127127 H159159  1.140   .     S
C127127 C130130  1.536   1_655 S
C128128 H160160  1.140   .     S
C128128 C129129  1.536   1_455 D
C129129 C161161  1.619   .     S
C129129 C128128  1.536   1_655 D
C130130 C162162  1.619   .     S
C130130 C127127  1.536   1_455 S
C131131 C163163  1.619   .     S
C131131 C134134  1.544   1_545 S
C132132 C164164  1.619   .     S
C132132 C133133  1.544   1_565 D
C133133 H165165  1.143   .     S
C133133 C132132  1.544   1_545 D
C134134 H166166  1.143   .     S
C134134 C131131  1.544   1_565 S
C135135 H167167  1.172   .     S
C135135 H169169  1.170   .     S
C135135 H171171  1.157   .     S
C136136 H168168  1.172   .     S
C136136 H170170  1.170   .     S
C136136 H172172  1.157   .     S
C137137 N143143  1.224   .     T
C138138 N144144  1.224   .     T
C139139 N141141  1.224   .     T
C140140 N142142  1.224   .     T
C161161 H179179  1.172   .     S
C161161 H181181  1.158   .     S
C161161 H183183  1.170   .     S
C162162 H180180  1.172   .     S
C162162 H182182  1.158   .     S
C162162 H184184  1.170   .     S
C163163 H174174  1.157   .     S
C163163 H176176  1.170   .     S
C163163 H178178  1.172   .     S
C164164 H173173  1.157   .     S
C164164 H175175  1.170   .     S
C164164 H177177  1.172   .     S
