data_1241
_audit_creation_date              2023-09-08
_audit_creation_method            'Materials Studio'
_symmetry_space_group_name_H-M    'P1'
_symmetry_Int_Tables_number       1
_symmetry_cell_setting            triclinic
loop_
_symmetry_equiv_pos_as_xyz
  x,y,z
_cell_length_a                    21.5650
_cell_length_b                    21.5650
_cell_length_c                    3.3520
_cell_angle_alpha                 90.0000
_cell_angle_beta                  90.0000
_cell_angle_gamma                 120.0000
loop_
_atom_site_label
_atom_site_type_symbol
_atom_site_fract_x
_atom_site_fract_y
_atom_site_fract_z
_atom_site_U_iso_or_equiv
_atom_site_adp_type
_atom_site_occupancy
N1     N     0.68787   0.40311   0.50000   0.00000  Uiso   1.00
H2     H     0.82106   0.48866   0.50000   0.00000  Uiso   1.00
C3     C     0.85391   0.41066   0.50000   0.00000  Uiso   1.00
C4     C     0.80795   0.43350   0.50000   0.00000  Uiso   1.00
C5     C     0.92806   0.45782   0.50000   0.00000  Uiso   1.00
C6     C     0.95803   0.53246   0.50000   0.00000  Uiso   1.00
C7     C     0.03019   0.57443   0.50000   0.00000  Uiso   1.00
C8     C     0.73570   0.38185   0.50000   0.00000  Uiso   1.00
H9     H     0.83660   0.35392   0.50000   0.00000  Uiso   1.00
H10    H     0.94675   0.36786   0.50000   0.00000  Uiso   1.00
H11    H     0.07193   0.43991   0.50000   0.00000  Uiso   1.00
N12    N     0.59689   0.28476   0.50000   0.00000  Uiso   1.00
H13    H     0.51134   0.33240   0.50000   0.00000  Uiso   1.00
C14    C     0.58934   0.44325   0.50000   0.00000  Uiso   1.00
C15    C     0.56650   0.37445   0.50000   0.00000  Uiso   1.00
C16    C     0.54218   0.47024   0.50000   0.00000  Uiso   1.00
C17    C     0.46754   0.42557   0.50000   0.00000  Uiso   1.00
C18    C     0.42557   0.45576   0.50000   0.00000  Uiso   1.00
C19    C     0.61815   0.35385   0.50000   0.00000  Uiso   1.00
H20    H     0.64608   0.48268   0.50000   0.00000  Uiso   1.00
H21    H     0.63214   0.57889   0.50000   0.00000  Uiso   1.00
H22    H     0.56009   0.63202   0.50000   0.00000  Uiso   1.00
N23    N     0.71524   0.31213   0.50000   0.00000  Uiso   1.00
H24    H     0.66760   0.17894   0.50000   0.00000  Uiso   1.00
C25    C     0.55675   0.14609   0.50000   0.00000  Uiso   1.00
C26    C     0.62555   0.19205   0.50000   0.00000  Uiso   1.00
C27    C     0.52976   0.07194   0.50000   0.00000  Uiso   1.00
C28    C     0.57443   0.04197   0.50000   0.00000  Uiso   1.00
C29    C     0.54424   0.96981   0.50000   0.00000  Uiso   1.00
C30    C     0.64615   0.26430   0.50000   0.00000  Uiso   1.00
H31    H     0.51732   0.16340   0.50000   0.00000  Uiso   1.00
H32    H     0.42111   0.05325   0.50000   0.00000  Uiso   1.00
H33    H     0.36798   0.92807   0.50000   0.00000  Uiso   1.00
N34    N     0.31213   0.59689   0.50000   0.00000  Uiso   1.00
H35    H     0.17894   0.51134   0.50000   0.00000  Uiso   1.00
C36    C     0.14609   0.58934   0.50000   0.00000  Uiso   1.00
C37    C     0.19205   0.56650   0.50000   0.00000  Uiso   1.00
C38    C     0.07194   0.54218   0.50000   0.00000  Uiso   1.00
C39    C     0.04197   0.46754   0.50000   0.00000  Uiso   1.00
C40    C     0.96981   0.42557   0.50000   0.00000  Uiso   1.00
C41    C     0.26430   0.61815   0.50000   0.00000  Uiso   1.00
H42    H     0.16340   0.64608   0.50000   0.00000  Uiso   1.00
H43    H     0.05325   0.63214   0.50000   0.00000  Uiso   1.00
H44    H     0.92807   0.56009   0.50000   0.00000  Uiso   1.00
N45    N     0.40311   0.71524   0.50000   0.00000  Uiso   1.00
H46    H     0.48866   0.66760   0.50000   0.00000  Uiso   1.00
C47    C     0.41066   0.55675   0.50000   0.00000  Uiso   1.00
C48    C     0.43350   0.62555   0.50000   0.00000  Uiso   1.00
C49    C     0.45782   0.52976   0.50000   0.00000  Uiso   1.00
C50    C     0.53246   0.57443   0.50000   0.00000  Uiso   1.00
C51    C     0.57443   0.54424   0.50000   0.00000  Uiso   1.00
C52    C     0.38185   0.64615   0.50000   0.00000  Uiso   1.00
H53    H     0.35392   0.51732   0.50000   0.00000  Uiso   1.00
H54    H     0.36786   0.42111   0.50000   0.00000  Uiso   1.00
H55    H     0.43991   0.36798   0.50000   0.00000  Uiso   1.00
N56    N     0.28476   0.68787   0.50000   0.00000  Uiso   1.00
H57    H     0.33240   0.82106   0.50000   0.00000  Uiso   1.00
C58    C     0.44325   0.85391   0.50000   0.00000  Uiso   1.00
C59    C     0.37445   0.80795   0.50000   0.00000  Uiso   1.00
C60    C     0.47024   0.92806   0.50000   0.00000  Uiso   1.00
C61    C     0.42557   0.95803   0.50000   0.00000  Uiso   1.00
C62    C     0.45576   0.03019   0.50000   0.00000  Uiso   1.00
C63    C     0.35385   0.73570   0.50000   0.00000  Uiso   1.00
H64    H     0.48268   0.83660   0.50000   0.00000  Uiso   1.00
H65    H     0.57889   0.94675   0.50000   0.00000  Uiso   1.00
H66    H     0.63202   0.07193   0.50000   0.00000  Uiso   1.00
loop_
_geom_bond_atom_site_label_1
_geom_bond_atom_site_label_2
_geom_bond_distance
_geom_bond_site_symmetry_2
_ccdc_geom_bond_type
N1     C8      1.322   .     S
N1     C19     1.339   .     D
H2     C4      1.076   .     S
C3     C4      1.309   .     D
C3     C5      1.402   .     S
C3     H9      1.086   .     S
C4     C8      1.390   .     S
C5     C6      1.403   .     D
C5     C40     1.386   .     S
C6     H44     1.076   .     S
C6     C7      1.354   1_655 S
C7     C38     1.386   .     D
C7     H43     1.085   .     S
C7     C6      1.354   1_455 S
C8     N23     1.339   .     D
H10    C40     1.085   .     S
H11    C39     1.076   .     S
N12    C19     1.322   .     S
N12    C30     1.339   .     D
H13    C15     1.076   .     S
C14    C15     1.309   .     D
C14    C16     1.402   .     S
C14    H20     1.086   .     S
C15    C19     1.390   .     S
C16    C17     1.403   .     D
C16    C51     1.386   .     S
C17    C18     1.354   .     S
C17    H55     1.076   .     S
C18    C49     1.386   .     D
C18    H54     1.085   .     S
H21    C51     1.085   .     S
H22    C50     1.076   .     S
N23    C30     1.322   .     S
H24    C26     1.076   .     S
C25    C26     1.309   .     D
C25    C27     1.402   .     S
C25    H31     1.086   .     S
C26    C30     1.390   .     S
C27    C28     1.403   .     D
C27    C62     1.386   .     S
C28    H66     1.076   .     S
C28    C29     1.354   1_545 S
C29    C60     1.386   .     D
C29    H65     1.085   .     S
C29    C28     1.354   1_565 S
H32    C62     1.085   .     S
H33    C61     1.076   .     S
N34    C41     1.322   .     S
N34    C52     1.339   .     D
H35    C37     1.076   .     S
C36    C37     1.309   .     D
C36    C38     1.402   .     S
C36    H42     1.086   .     S
C37    C41     1.390   .     S
C38    C39     1.403   .     S
C39    C40     1.354   1_455 D
C40    C39     1.354   1_655 D
C41    N56     1.339   .     D
N45    C52     1.322   .     S
N45    C63     1.339   .     D
H46    C48     1.076   .     S
C47    C48     1.309   .     D
C47    C49     1.402   .     S
C47    H53     1.086   .     S
C48    C52     1.390   .     S
C49    C50     1.403   .     S
C50    C51     1.354   .     D
N56    C63     1.322   .     S
H57    C59     1.076   .     S
C58    C59     1.309   .     D
C58    C60     1.402   .     S
C58    H64     1.086   .     S
C59    C63     1.390   .     S
C60    C61     1.403   .     S
C61    C62     1.354   1_565 D
C62    C61     1.354   1_545 D
