data_1242
_audit_creation_date              2023-09-08
_audit_creation_method            'Materials Studio'
_symmetry_space_group_name_H-M    'P1'
_symmetry_Int_Tables_number       1
_symmetry_cell_setting            triclinic
loop_
_symmetry_equiv_pos_as_xyz
  x,y,z
_cell_length_a                    24.9250
_cell_length_b                    24.9250
_cell_length_c                    3.9937
_cell_angle_alpha                 90.0000
_cell_angle_beta                  90.0000
_cell_angle_gamma                 90.0000
loop_
_atom_site_label
_atom_site_type_symbol
_atom_site_fract_x
_atom_site_fract_y
_atom_site_fract_z
_atom_site_U_iso_or_equiv
_atom_site_adp_type
_atom_site_occupancy
C1     C     2.20470  -0.49051   0.49867   0.00000  Uiso   1.00
C2     C     2.23251  -0.52400   0.66361   0.00000  Uiso   1.00
C3     C     2.28313  -0.52513   0.66963   0.00000  Uiso   1.00
C4     C     2.31434  -0.49324   0.51366   0.00000  Uiso   1.00
C5     C     2.28574  -0.46032   0.34958   0.00000  Uiso   1.00
C6     C     2.23561  -0.45915   0.34277   0.00000  Uiso   1.00
C7     C     2.37915  -0.58204   0.45473   0.00000  Uiso   1.00
C8     C     2.41094  -0.61385   0.45387   0.00000  Uiso   1.00
C9     C     2.45527  -0.59390   0.50561   0.00000  Uiso   1.00
N10    N     2.44566  -0.54747   0.53097   0.00000  Uiso   1.00
C11    C     2.39922  -0.53784   0.50588   0.00000  Uiso   1.00
C12    C     2.41361  -0.37449   0.58683   0.00000  Uiso   1.00
C13    C     2.38037  -0.40775   0.58703   0.00000  Uiso   1.00
C14    C     2.39940  -0.44945   0.53221   0.00000  Uiso   1.00
N15    N     2.44568  -0.43981   0.50332   0.00000  Uiso   1.00
C16    C     2.45531  -0.39352   0.53208   0.00000  Uiso   1.00
C17    C     2.37263  -0.49362   0.51802   0.00000  Uiso   1.00
C18    C     2.61962  -0.40509   0.45153   0.00000  Uiso   1.00
C19    C     2.58783  -0.37328   0.45302   0.00000  Uiso   1.00
C20    C     2.54366  -0.39335   0.50551   0.00000  Uiso   1.00
N21    N     2.55329  -0.43978   0.53116   0.00000  Uiso   1.00
C22    C     2.59970  -0.44942   0.50488   0.00000  Uiso   1.00
C23    C     2.49946  -0.36674   0.51783   0.00000  Uiso   1.00
C24    C     2.58552  -0.61302   0.58217   0.00000  Uiso   1.00
C25    C     2.61881  -0.57972   0.58254   0.00000  Uiso   1.00
C26    C     2.59975  -0.53795   0.53119   0.00000  Uiso   1.00
N27    N     2.55343  -0.54762   0.50372   0.00000  Uiso   1.00
C28    C     2.54377  -0.59394   0.53098   0.00000  Uiso   1.00
C29    C     2.49949  -0.62061   0.51862   0.00000  Uiso   1.00
C30    C     2.62641  -0.49365   0.51850   0.00000  Uiso   1.00
C31    C     2.49909  -0.30844   0.51331   0.00000  Uiso   1.00
C32    C     2.68474  -0.49317   0.52269   0.00000  Uiso   1.00
C33    C     2.49902  -0.67894   0.52286   0.00000  Uiso   1.00
C34    C     2.53084  -0.27721   0.67071   0.00000  Uiso   1.00
C35    C     2.52969  -0.22657   0.66466   0.00000  Uiso   1.00
C36    C     2.49639  -0.19878   0.49737   0.00000  Uiso   1.00
C37    C     2.46523  -0.22973   0.33947   0.00000  Uiso   1.00
C38    C     2.46632  -0.27986   0.34746   0.00000  Uiso   1.00
C39    C     2.71604  -0.52554   0.37288   0.00000  Uiso   1.00
C40    C     2.76666  -0.52441   0.37968   0.00000  Uiso   1.00
C41    C     2.79441  -0.49019   0.53640   0.00000  Uiso   1.00
C42    C     2.76344  -0.45814   0.68367   0.00000  Uiso   1.00
C43    C     2.71332  -0.45962   0.67964   0.00000  Uiso   1.00
C44    C     2.46588  -0.70752   0.68456   0.00000  Uiso   1.00
C45    C     2.46456  -0.75766   0.69030   0.00000  Uiso   1.00
C46    C     2.49613  -0.78863   0.53727   0.00000  Uiso   1.00
C47    C     2.52986  -0.76085   0.37492   0.00000  Uiso   1.00
C48    C     2.53103  -0.71022   0.36868   0.00000  Uiso   1.00
N49    N     2.49267  -0.14519   0.46392   0.00000  Uiso   1.00
N50    N     2.84801  -0.48502   0.55364   0.00000  Uiso   1.00
N51    N     2.49150  -0.84227   0.55992   0.00000  Uiso   1.00
N52    N     2.15108  -0.48645   0.47048   0.00000  Uiso   1.00
C53    C     2.51313  -0.88161   0.45234   0.00000  Uiso   1.00
C54    C     2.50602  -0.93902   0.48783   0.00000  Uiso   1.00
C55    C     2.47279  -0.96661   0.65937   0.00000  Uiso   1.00
C56    C     2.53768  -0.97022   0.33283   0.00000  Uiso   1.00
O57    O     2.57165  -0.94912   0.14787   0.00000  Uiso   1.00
C58    C     2.60992  -0.97357   0.04367   0.00000  Uiso   1.00
C59    C     2.88791  -0.50809   0.47872   0.00000  Uiso   1.00
C60    C     2.94464  -0.49895   0.52935   0.00000  Uiso   1.00
C61    C     2.97359  -0.53175   0.68728   0.00000  Uiso   1.00
C62    C     2.97521  -0.46623   0.37064   0.00000  Uiso   1.00
C63    C     2.11180  -0.50649   0.59479   0.00000  Uiso   1.00
C64    C     2.05440  -0.50075   0.54958   0.00000  Uiso   1.00
C65    C     2.50992  -0.10488   0.59499   0.00000  Uiso   1.00
C66    C     2.50263  -0.04850   0.51688   0.00000  Uiso   1.00
C67    C     2.53592  -0.02060   0.35323   0.00000  Uiso   1.00
C68    C     2.47130  -0.01709   0.67777   0.00000  Uiso   1.00
C69    C     2.02591  -0.46758   0.38211   0.00000  Uiso   1.00
C70    C     2.02335  -0.53268   0.70249   0.00000  Uiso   1.00
O71    O     2.95715  -0.43293   0.16483   0.00000  Uiso   1.00
C72    C     2.92092  -0.40810   0.30335   0.00000  Uiso   1.00
O73    O     2.43887  -0.03503   0.88974   0.00000  Uiso   1.00
C74    C     2.39777  -0.04543   0.72795   0.00000  Uiso   1.00
O75    O     2.04124  -0.56696   0.89820   0.00000  Uiso   1.00
C76    C     2.05779  -0.60424   0.71438   0.00000  Uiso   1.00
C77    C     2.93152  -0.35914   0.25678   0.00000  Uiso   1.00
C78    C     2.38849  -0.09450   0.78290   0.00000  Uiso   1.00
C79    C     2.02626  -0.64300   0.76990   0.00000  Uiso   1.00
C80    C     2.64192  -0.94048  -0.11079   0.00000  Uiso   1.00
H81    H     0.21182   0.44395   0.82104   0.00000  Uiso   1.00
H82    H     0.30483   0.44322   0.82494   0.00000  Uiso   1.00
H83    H     0.30567   0.57192   0.18983   0.00000  Uiso   1.00
H84    H     0.21401   0.57231   0.18538   0.00000  Uiso   1.00
H85    H     0.33539   0.40659   0.41156   0.00000  Uiso   1.00
H86    H     0.39953   0.34245   0.40881   0.00000  Uiso   1.00
H87    H     0.40233   0.66912   0.63615   0.00000  Uiso   1.00
H88    H     0.33676   0.60351   0.63673   0.00000  Uiso   1.00
H89    H     0.66328   0.60627   0.40458   0.00000  Uiso   1.00
H90    H     0.59920   0.67046   0.40925   0.00000  Uiso   1.00
H91    H     0.59686   0.34329   0.62818   0.00000  Uiso   1.00
H92    H     0.66248   0.40894   0.62928   0.00000  Uiso   1.00
H93    H     0.56393   0.70536   0.83507   0.00000  Uiso   1.00
H94    H     0.56002   0.79746   0.81678   0.00000  Uiso   1.00
H95    H     0.43258   0.78767   0.17163   0.00000  Uiso   1.00
H96    H     0.43596   0.69598   0.19634   0.00000  Uiso   1.00
H97    H     0.69879   0.44055   0.21444   0.00000  Uiso   1.00
H98    H     0.79073   0.44411   0.23715   0.00000  Uiso   1.00
H99    H     0.78065   0.57619   0.83870   0.00000  Uiso   1.00
H100   H     0.68922   0.57126   0.82706   0.00000  Uiso   1.00
H101   H     0.43349   0.31239   0.84326   0.00000  Uiso   1.00
H102   H     0.43266   0.22075   0.84424   0.00000  Uiso   1.00
H103   H     0.56221   0.21847   0.21981   0.00000  Uiso   1.00
H104   H     0.56287   0.31144   0.21468   0.00000  Uiso   1.00
H105   H     0.54875   0.12246   0.27507   0.00000  Uiso   1.00
H106   H     0.44069   0.05441   0.81471   0.00000  Uiso   1.00
H107   H     0.61321  -0.01861   0.08874   0.00000  Uiso   1.00
H108   H     0.88550   0.45280   0.33148   0.00000  Uiso   1.00
H109   H     0.95424   0.43462   0.83845   0.00000  Uiso   1.00
H110   H     0.11636   0.46198   0.79963   0.00000  Uiso   1.00
H111   H     0.53722   0.89197   0.82316   0.00000  Uiso   1.00
H112   H     0.56671   0.95395   0.21420   0.00000  Uiso   1.00
H113   H     0.05047   0.56278   0.23356   0.00000  Uiso   1.00
H114   H     0.88739   0.56925   0.43643   0.00000  Uiso   1.00
H115   H     0.37743   0.98725   0.57381   0.00000  Uiso   1.00
H116   H     0.09428   0.40227   0.54717   0.00000  Uiso   1.00
H117   H     0.97356   0.65345   0.17636   0.00000  Uiso   1.00
H118   H     0.89905   0.67248   0.29514   0.00000  Uiso   1.00
H119   H     0.42196   0.87469   0.75351   0.00000  Uiso   1.00
H120   H     0.34665   0.89205   0.86185   0.00000  Uiso   1.00
H121   H     0.03409   0.31626   0.64968   0.00000  Uiso   1.00
H122   H    -0.00999   0.36281   0.94015   0.00000  Uiso   1.00
H123   H     0.66310   0.04645   0.64972   0.00000  Uiso   1.00
H124   H     0.64874   0.10154   0.99353   0.00000  Uiso   1.00
loop_
_geom_bond_atom_site_label_1
_geom_bond_atom_site_label_2
_geom_bond_distance
_geom_bond_site_symmetry_2
_ccdc_geom_bond_type
C1     C2      1.269   .     D
C1     C6      1.262   .     S
C1     N52     1.345   .     S
C2     C3      1.262   .     S
C2     H81     1.140   1_745 S
C3     C4      1.275   .     D
C3     H82     1.140   1_745 S
C4     C5      1.269   .     S
C4     C17     1.453   .     S
C5     C6      1.250   .     D
C5     H83     1.140   1_745 S
C6     H84     1.140   1_745 S
C7     C8      1.121   .     D
C7     C11     1.227   .     S
C7     H85     1.140   1_745 S
C8     C9      1.229   .     S
C8     H86     1.140   1_745 S
C9     N10     1.186   .     S
C9     C29     1.289   .     D
N10    C11     1.186   .     D
C11    C17     1.287   .     S
C12    C13     1.172   .     D
C12    C16     1.163   .     S
C12    H87     1.140   1_745 S
C13    C14     1.163   .     S
C13    H88     1.140   1_745 S
C14    N15     1.184   .     S
C14    C17     1.289   .     D
N15    C16     1.184   .     D
C16    C23     1.288   .     S
C18    C19     1.121   .     D
C18    C22     1.230   .     S
C18    H89     1.140   1_745 S
C19    C20     1.227   .     S
C19    H90     1.140   1_745 S
C20    N21     1.186   .     S
C20    C23     1.287   .     D
N21    C22     1.186   .     D
C22    C30     1.289   .     S
C23    C31     1.453   .     S
C24    C25     1.174   .     D
C24    C28     1.162   .     S
C24    H91     1.140   1_745 S
C25    C26     1.163   .     S
C25    H92     1.140   1_745 S
C26    N27     1.185   .     S
C26    C30     1.290   .     D
N27    C28     1.184   .     D
C28    C29     1.289   .     S
C29    C33     1.454   .     S
C30    C32     1.454   .     S
C31    C34     1.276   .     S
C31    C38     1.270   .     D
C32    C39     1.272   .     D
C32    C43     1.265   .     S
C33    C44     1.268   .     S
C33    C48     1.274   .     D
C34    C35     1.263   .     D
C34    H93     1.140   1_745 S
C35    C36     1.271   .     S
C35    H94     1.140   1_745 S
C36    C37     1.263   .     D
C36    N49     1.346   .     S
C37    C38     1.250   .     S
C37    H95     1.140   1_745 S
C38    H96     1.140   1_745 S
C39    C40     1.262   .     S
C39    H97     1.140   1_745 S
C40    C41     1.264   .     D
C40    H98     1.140   1_745 S
C41    C42     1.257   .     S
C41    N50     1.344   .     S
C42    C43     1.250   .     D
C42    H99     1.140   1_745 S
C43    H100    1.140   1_745 S
C44    C45     1.250   .     D
C44    H101    1.140   1_745 S
C45    C46     1.260   .     S
C45    H102    1.140   1_745 S
C46    C47     1.268   .     D
C46    N51     1.345   .     S
C47    C48     1.263   .     S
C47    H103    1.140   1_745 S
C48    H104    1.140   1_745 S
N49    C65     1.212   .     D
N50    C59     1.187   .     D
N51    C53     1.199   .     D
N52    C63     1.206   .     D
C53    C54     1.449   .     S
C53    H105    1.140   1_745 S
C54    C55     1.276   .     S
C54    C56     1.269   .     D
C55    C68     1.261   1_545 D
C55    H106    1.140   1_745 S
C56    O57     1.241   .     S
C56    C67     1.259   1_545 S
O57    C58     1.206   .     S
C58    C80     1.303   .     D
C58    H107    1.140   1_745 S
C59    C60     1.446   .     S
C59    H108    1.140   1_745 S
C60    C61     1.260   .     D
C60    C62     1.284   .     S
C61    C70     1.242   1_655 S
C61    H109    1.140   1_745 S
C62    O71     1.252   .     S
C62    C69     1.265   1_655 D
C63    C64     1.449   .     S
C63    H110    1.140   1_745 S
C64    C69     1.279   .     S
C64    C70     1.267   .     D
C65    C66     1.451   .     S
C65    H111    1.140   1_745 S
C66    C67     1.265   .     D
C66    C68     1.279   .     S
C67    C56     1.259   1_565 S
C67    H112    1.140   1_745 S
C68    O73     1.253   .     S
C68    C55     1.261   1_565 D
C69    C62     1.265   1_455 D
C69    H113    1.140   1_745 S
C70    O75     1.241   .     S
C70    C61     1.242   1_455 S
O71    C72     1.227   .     S
C72    C77     1.262   .     D
C72    H114    1.140   1_745 S
O73    C74     1.239   .     S
C74    C78     1.264   .     D
C74    H115    1.140   1_745 S
O75    C76     1.254   .     S
C76    C79     1.265   .     D
C76    H116    1.140   1_745 S
C77    H117    1.140   1_745 S
C77    H118    1.140   1_745 S
C78    H119    1.140   1_745 S
C78    H120    1.140   1_745 S
C79    H121    1.140   1_745 S
C79    H122    1.140   1_745 S
C80    H123    1.140   1_744 S
C80    H124    1.140   1_744 S
H81    C2      1.140   1_365 S
H82    C3      1.140   1_365 S
H83    C5      1.140   1_365 S
H84    C6      1.140   1_365 S
H85    C7      1.140   1_365 S
H86    C8      1.140   1_365 S
H87    C12     1.140   1_365 S
H88    C13     1.140   1_365 S
H89    C18     1.140   1_365 S
H90    C19     1.140   1_365 S
H91    C24     1.140   1_365 S
H92    C25     1.140   1_365 S
H93    C34     1.140   1_365 S
H94    C35     1.140   1_365 S
H95    C37     1.140   1_365 S
H96    C38     1.140   1_365 S
H97    C39     1.140   1_365 S
H98    C40     1.140   1_365 S
H99    C42     1.140   1_365 S
H100   C43     1.140   1_365 S
H101   C44     1.140   1_365 S
H102   C45     1.140   1_365 S
H103   C47     1.140   1_365 S
H104   C48     1.140   1_365 S
H105   C53     1.140   1_365 S
H106   C55     1.140   1_365 S
H107   C58     1.140   1_365 S
H108   C59     1.140   1_365 S
H109   C61     1.140   1_365 S
H110   C63     1.140   1_365 S
H111   C65     1.140   1_365 S
H112   C67     1.140   1_365 S
H113   C69     1.140   1_365 S
H114   C72     1.140   1_365 S
H115   C74     1.140   1_365 S
H116   C76     1.140   1_365 S
H117   C77     1.140   1_365 S
H118   C77     1.140   1_365 S
H119   C78     1.140   1_365 S
H120   C78     1.140   1_365 S
H121   C79     1.140   1_365 S
H122   C79     1.140   1_365 S
H123   C80     1.140   1_366 S
H124   C80     1.140   1_366 S
