data_126
_audit_creation_date              2023-09-08
_audit_creation_method            'Materials Studio'
_symmetry_space_group_name_H-M    'P1'
_symmetry_Int_Tables_number       1
_symmetry_cell_setting            triclinic
loop_
_symmetry_equiv_pos_as_xyz
  x,y,z
_cell_length_a                    15.0911
_cell_length_b                    15.0911
_cell_length_c                    3.5988
_cell_angle_alpha                 90.0000
_cell_angle_beta                  90.0000
_cell_angle_gamma                 120.0000
loop_
_atom_site_label
_atom_site_type_symbol
_atom_site_fract_x
_atom_site_fract_y
_atom_site_fract_z
_atom_site_U_iso_or_equiv
_atom_site_adp_type
_atom_site_occupancy
B1     B     0.44674   0.55326   0.50000   0.00000  Uiso   1.00
C2     C     0.38702   0.61298   0.50000   0.00000  Uiso   1.00
B3     B     0.44674   0.89348   0.50000   0.00000  Uiso   1.00
C4     C     0.38702   0.77404   0.50000   0.00000  Uiso   1.00
B5     B     0.10652   0.55326   0.50000   0.00000  Uiso   1.00
C6     C     0.22596   0.61298   0.50000   0.00000  Uiso   1.00
O7     O     0.55852   0.95472   0.50000   0.00000  Uiso   1.00
C8     C     0.66693   0.23861   0.50000   0.00000  Uiso   1.00
C9     C     0.57120   0.05219   0.50000   0.00000  Uiso   1.00
C10    C     0.66411   0.14263   0.50000   0.00000  Uiso   1.00
H11    H     0.73066   0.13415   0.50000   0.00000  Uiso   1.00
O12    O     0.04528   0.60380   0.50000   0.00000  Uiso   1.00
C13    C     0.76139   0.42832   0.50000   0.00000  Uiso   1.00
C14    C     0.94781   0.51901   0.50000   0.00000  Uiso   1.00
C15    C     0.85737   0.52148   0.50000   0.00000  Uiso   1.00
H16    H     0.86585   0.59651   0.50000   0.00000  Uiso   1.00
O17    O     0.39620   0.44148   0.50000   0.00000  Uiso   1.00
C18    C     0.57168   0.33307   0.50000   0.00000  Uiso   1.00
C19    C     0.48099   0.42880   0.50000   0.00000  Uiso   1.00
C20    C     0.47852   0.33589   0.50000   0.00000  Uiso   1.00
H21    H     0.40349   0.26934   0.50000   0.00000  Uiso   1.00
O22    O     0.04528   0.44148   0.50000   0.00000  Uiso   1.00
C23    C     0.76139   0.33307   0.50000   0.00000  Uiso   1.00
C24    C     0.94781   0.42880   0.50000   0.00000  Uiso   1.00
C25    C     0.85737   0.33589   0.50000   0.00000  Uiso   1.00
H26    H     0.86585   0.26934   0.50000   0.00000  Uiso   1.00
O27    O     0.39620   0.95472   0.50000   0.00000  Uiso   1.00
C28    C     0.57168   0.23861   0.50000   0.00000  Uiso   1.00
C29    C     0.48099   0.05219   0.50000   0.00000  Uiso   1.00
C30    C     0.47852   0.14263   0.50000   0.00000  Uiso   1.00
H31    H     0.40349   0.13415   0.50000   0.00000  Uiso   1.00
O32    O     0.55852   0.60380   0.50000   0.00000  Uiso   1.00
C33    C     0.66693   0.42832   0.50000   0.00000  Uiso   1.00
C34    C     0.57120   0.51901   0.50000   0.00000  Uiso   1.00
C35    C     0.66411   0.52148   0.50000   0.00000  Uiso   1.00
H36    H     0.73066   0.59651   0.50000   0.00000  Uiso   1.00
C37    C     0.44044   0.72022   0.50000   0.00000  Uiso   1.00
C38    C     0.27978   0.72022   0.50000   0.00000  Uiso   1.00
C39    C     0.27978   0.55956   0.50000   0.00000  Uiso   1.00
H40    H     0.23829   0.47658   0.50000   0.00000  Uiso   1.00
H41    H     0.52342   0.76171   0.50000   0.00000  Uiso   1.00
H42    H     0.23829   0.76171   0.50000   0.00000  Uiso   1.00
loop_
_geom_bond_atom_site_label_1
_geom_bond_atom_site_label_2
_geom_bond_distance
_geom_bond_site_symmetry_2
_ccdc_geom_bond_type
B1     C2      1.561   .     S
B1     O17     1.463   .     S
B1     O32     1.463   .     S
C2     C37     1.402   .     S
C2     C39     1.402   .     D
B3     C4      1.561   .     S
B3     O7      1.463   .     S
B3     O27     1.463   .     S
C4     C37     1.402   .     D
C4     C38     1.402   .     S
B5     C6      1.561   .     S
B5     O12     1.463   .     S
B5     O22     1.463   .     S
C6     C38     1.402   .     D
C6     C39     1.402   .     S
O7     C9      1.385   1_565 S
C8     C10     1.428   .     S
C8     C23     1.426   .     S
C8     C28     1.437   .     D
C9     O7      1.385   1_545 S
C9     C10     1.384   .     D
C9     C29     1.361   .     S
C10    H11     1.074   .     S
O12    C14     1.385   1_455 S
C13    C15     1.428   .     D
C13    C23     1.437   .     S
C13    C33     1.426   .     S
C14    O12     1.385   1_655 S
C14    C15     1.384   .     S
C14    C24     1.361   .     D
C15    H16     1.074   .     S
O17    C19     1.385   .     S
C18    C20     1.428   .     S
C18    C28     1.426   .     S
C18    C33     1.437   .     D
C19    C20     1.384   .     D
C19    C34     1.361   .     S
C20    H21     1.074   .     S
O22    C24     1.385   1_455 S
C23    C25     1.428   .     D
C24    O22     1.385   1_655 S
C24    C25     1.384   .     S
C25    H26     1.074   .     S
O27    C29     1.385   1_565 S
C28    C30     1.428   .     S
C29    O27     1.385   1_545 S
C29    C30     1.384   .     D
C30    H31     1.074   .     S
O32    C34     1.385   .     S
C33    C35     1.428   .     S
C34    C35     1.384   .     D
C35    H36     1.074   .     S
C37    H41     1.084   .     S
C38    H42     1.084   .     S
C39    H40     1.084   .     S
