data_127
_audit_creation_date              2023-09-08
_audit_creation_method            'Materials Studio'
_symmetry_space_group_name_H-M    'P1'
_symmetry_Int_Tables_number       1
_symmetry_cell_setting            triclinic
loop_
_symmetry_equiv_pos_as_xyz
  x,y,z
_cell_length_a                    44.1014
_cell_length_b                    44.1014
_cell_length_c                    3.5323
_cell_angle_alpha                 90.0000
_cell_angle_beta                  90.0000
_cell_angle_gamma                 90.0000
loop_
_atom_site_label
_atom_site_type_symbol
_atom_site_fract_x
_atom_site_fract_y
_atom_site_fract_z
_atom_site_U_iso_or_equiv
_atom_site_adp_type
_atom_site_occupancy
C1     C     0.56004   0.93993   0.00000   0.00000  Uiso   1.00
C2     C     0.43996   0.06007   0.00000   0.00000  Uiso   1.00
C3     C     0.06007   0.56004   0.00000   0.00000  Uiso   1.00
C4     C     0.93993   0.43996   0.00000   0.00000  Uiso   1.00
C5     C     0.43996   0.93993   0.00000   0.00000  Uiso   1.00
C6     C     0.56004   0.06007   0.00000   0.00000  Uiso   1.00
C7     C     0.93993   0.56004   0.00000   0.00000  Uiso   1.00
C8     C     0.06007   0.43996   0.00000   0.00000  Uiso   1.00
C9     C     0.58472   0.91542   0.00000   0.00000  Uiso   1.00
C10    C     0.41528   0.08458   0.00000   0.00000  Uiso   1.00
C11    C     0.08458   0.58472   0.00000   0.00000  Uiso   1.00
C12    C     0.91542   0.41528   0.00000   0.00000  Uiso   1.00
C13    C     0.41528   0.91542   0.00000   0.00000  Uiso   1.00
C14    C     0.58472   0.08458   0.00000   0.00000  Uiso   1.00
C15    C     0.91542   0.58472   0.00000   0.00000  Uiso   1.00
C16    C     0.08458   0.41528   0.00000   0.00000  Uiso   1.00
C17    C     0.63426   0.86596   0.00000   0.00000  Uiso   1.00
C18    C     0.36574   0.13404   0.00000   0.00000  Uiso   1.00
C19    C     0.13404   0.63426   0.00000   0.00000  Uiso   1.00
C20    C     0.86596   0.36574   0.00000   0.00000  Uiso   1.00
C21    C     0.36574   0.86596   0.00000   0.00000  Uiso   1.00
C22    C     0.63426   0.13404   0.00000   0.00000  Uiso   1.00
C23    C     0.86596   0.63426   0.00000   0.00000  Uiso   1.00
C24    C     0.13404   0.36574   0.00000   0.00000  Uiso   1.00
B25    B     0.65817   0.84207   0.00000   0.00000  Uiso   1.00
B26    B     0.34183   0.15793   0.00000   0.00000  Uiso   1.00
B27    B     0.15793   0.65817   0.00000   0.00000  Uiso   1.00
B28    B     0.84207   0.34183   0.00000   0.00000  Uiso   1.00
B29    B     0.34183   0.84207   0.00000   0.00000  Uiso   1.00
B30    B     0.65817   0.15793   0.00000   0.00000  Uiso   1.00
B31    B     0.84207   0.65817   0.00000   0.00000  Uiso   1.00
B32    B     0.15793   0.34183   0.00000   0.00000  Uiso   1.00
C33    C     0.02732   0.43446   0.00000   0.00000  Uiso   1.00
C34    C     0.97268   0.56554   0.00000   0.00000  Uiso   1.00
C35    C     0.56554   0.02732   0.00000   0.00000  Uiso   1.00
C36    C     0.43446   0.97268   0.00000   0.00000  Uiso   1.00
C37    C     0.97268   0.43446   0.00000   0.00000  Uiso   1.00
C38    C     0.02732   0.56554   0.00000   0.00000  Uiso   1.00
C39    C     0.43446   0.02732   0.00000   0.00000  Uiso   1.00
C40    C     0.56554   0.97268   0.00000   0.00000  Uiso   1.00
C41    C     0.18773   0.26642   0.00000   0.00000  Uiso   1.00
C42    C     0.81227   0.73358   0.00000   0.00000  Uiso   1.00
C43    C     0.73358   0.18773   0.00000   0.00000  Uiso   1.00
C44    C     0.26642   0.81227   0.00000   0.00000  Uiso   1.00
C45    C     0.81227   0.26642   0.00000   0.00000  Uiso   1.00
C46    C     0.18773   0.73358   0.00000   0.00000  Uiso   1.00
C47    C     0.26642   0.18773   0.00000   0.00000  Uiso   1.00
C48    C     0.73358   0.81227   0.00000   0.00000  Uiso   1.00
C49    C     0.21874   0.25808   0.00000   0.00000  Uiso   1.00
C50    C     0.78126   0.74192   0.00000   0.00000  Uiso   1.00
C51    C     0.74192   0.21874   0.00000   0.00000  Uiso   1.00
C52    C     0.25808   0.78126   0.00000   0.00000  Uiso   1.00
C53    C     0.78126   0.25808   0.00000   0.00000  Uiso   1.00
C54    C     0.21874   0.74192   0.00000   0.00000  Uiso   1.00
C55    C     0.25808   0.21874   0.00000   0.00000  Uiso   1.00
C56    C     0.74192   0.78126   0.00000   0.00000  Uiso   1.00
C57    C     0.98499   0.40606   0.00000   0.00000  Uiso   1.00
C58    C     0.01501   0.59394   0.00000   0.00000  Uiso   1.00
C59    C     0.59394   0.98499   0.00000   0.00000  Uiso   1.00
C60    C     0.40606   0.01501   0.00000   0.00000  Uiso   1.00
C61    C     0.01501   0.40606   0.00000   0.00000  Uiso   1.00
C62    C     0.98499   0.59394   0.00000   0.00000  Uiso   1.00
C63    C     0.40606   0.98499   0.00000   0.00000  Uiso   1.00
C64    C     0.59394   0.01501   0.00000   0.00000  Uiso   1.00
C65    C     0.61764   0.91867   0.00000   0.00000  Uiso   1.00
C66    C     0.38236   0.08133   0.00000   0.00000  Uiso   1.00
C67    C     0.08133   0.61764   0.00000   0.00000  Uiso   1.00
C68    C     0.91867   0.38236   0.00000   0.00000  Uiso   1.00
C69    C     0.38236   0.91867   0.00000   0.00000  Uiso   1.00
C70    C     0.61764   0.08133   0.00000   0.00000  Uiso   1.00
C71    C     0.91867   0.61764   0.00000   0.00000  Uiso   1.00
C72    C     0.08133   0.38236   0.00000   0.00000  Uiso   1.00
C73    C     0.64110   0.89670   0.00000   0.00000  Uiso   1.00
C74    C     0.35890   0.10330   0.00000   0.00000  Uiso   1.00
C75    C     0.10330   0.64110   0.00000   0.00000  Uiso   1.00
C76    C     0.89670   0.35890   0.00000   0.00000  Uiso   1.00
C77    C     0.35890   0.89670   0.00000   0.00000  Uiso   1.00
C78    C     0.64110   0.10330   0.00000   0.00000  Uiso   1.00
C79    C     0.89670   0.64110   0.00000   0.00000  Uiso   1.00
C80    C     0.10330   0.35890   0.00000   0.00000  Uiso   1.00
O81    O     0.69037   0.84779   0.00000   0.00000  Uiso   1.00
O82    O     0.30963   0.15221   0.00000   0.00000  Uiso   1.00
O83    O     0.15221   0.69037   0.00000   0.00000  Uiso   1.00
O84    O     0.84779   0.30963   0.00000   0.00000  Uiso   1.00
O85    O     0.30963   0.84779   0.00000   0.00000  Uiso   1.00
O86    O     0.69037   0.15221   0.00000   0.00000  Uiso   1.00
O87    O     0.84779   0.69037   0.00000   0.00000  Uiso   1.00
O88    O     0.15221   0.30963   0.00000   0.00000  Uiso   1.00
C89    C     0.81987   0.70276   0.00000   0.00000  Uiso   1.00
C90    C     0.18013   0.29724   0.00000   0.00000  Uiso   1.00
C91    C     0.29724   0.81987   0.00000   0.00000  Uiso   1.00
C92    C     0.70276   0.18013   0.00000   0.00000  Uiso   1.00
C93    C     0.18013   0.70276   0.00000   0.00000  Uiso   1.00
C94    C     0.81987   0.29724   0.00000   0.00000  Uiso   1.00
C95    C     0.70276   0.81987   0.00000   0.00000  Uiso   1.00
C96    C     0.29724   0.18013   0.00000   0.00000  Uiso   1.00
H97    H     0.17073   0.25072   0.00000   0.00000  Uiso   1.00
H98    H     0.82927   0.74928   0.00000   0.00000  Uiso   1.00
H99    H     0.74928   0.17073   0.00000   0.00000  Uiso   1.00
H100   H     0.25072   0.82927   0.00000   0.00000  Uiso   1.00
H101   H     0.82927   0.25072   0.00000   0.00000  Uiso   1.00
H102   H     0.17073   0.74928   0.00000   0.00000  Uiso   1.00
H103   H     0.25072   0.17073   0.00000   0.00000  Uiso   1.00
H104   H     0.74928   0.82927   0.00000   0.00000  Uiso   1.00
H105   H     0.97665   0.38588   0.00000   0.00000  Uiso   1.00
H106   H     0.02335   0.61412   0.00000   0.00000  Uiso   1.00
H107   H     0.61412   0.97665   0.00000   0.00000  Uiso   1.00
H108   H     0.38588   0.02335   0.00000   0.00000  Uiso   1.00
H109   H     0.02335   0.38588   0.00000   0.00000  Uiso   1.00
H110   H     0.97665   0.61412   0.00000   0.00000  Uiso   1.00
H111   H     0.38588   0.97665   0.00000   0.00000  Uiso   1.00
H112   H     0.61412   0.02335   0.00000   0.00000  Uiso   1.00
H113   H     0.62913   0.93730   0.00000   0.00000  Uiso   1.00
H114   H     0.37087   0.06270   0.00000   0.00000  Uiso   1.00
H115   H     0.06270   0.62913   0.00000   0.00000  Uiso   1.00
H116   H     0.93730   0.37087   0.00000   0.00000  Uiso   1.00
H117   H     0.37087   0.93730   0.00000   0.00000  Uiso   1.00
H118   H     0.62913   0.06270   0.00000   0.00000  Uiso   1.00
H119   H     0.93730   0.62913   0.00000   0.00000  Uiso   1.00
H120   H     0.06270   0.37087   0.00000   0.00000  Uiso   1.00
H121   H     0.66360   0.90304   0.00000   0.00000  Uiso   1.00
H122   H     0.33640   0.09696   0.00000   0.00000  Uiso   1.00
H123   H     0.09696   0.66360   0.00000   0.00000  Uiso   1.00
H124   H     0.90304   0.33640   0.00000   0.00000  Uiso   1.00
H125   H     0.33640   0.90304   0.00000   0.00000  Uiso   1.00
H126   H     0.66360   0.09696   0.00000   0.00000  Uiso   1.00
H127   H     0.90304   0.66360   0.00000   0.00000  Uiso   1.00
H128   H     0.09696   0.33640   0.00000   0.00000  Uiso   1.00
C129   C     0.52737   0.93408   0.00000   0.00000  Uiso   1.00
C130   C     0.47263   0.06592   0.00000   0.00000  Uiso   1.00
C131   C     0.06592   0.52737   0.00000   0.00000  Uiso   1.00
C132   C     0.93408   0.47263   0.00000   0.00000  Uiso   1.00
C133   C     0.47263   0.93408   0.00000   0.00000  Uiso   1.00
C134   C     0.52737   0.06592   0.00000   0.00000  Uiso   1.00
C135   C     0.93408   0.52737   0.00000   0.00000  Uiso   1.00
C136   C     0.06592   0.47263   0.00000   0.00000  Uiso   1.00
C137   C     0.68798   0.76667   0.00000   0.00000  Uiso   1.00
C138   C     0.31202   0.23333   0.00000   0.00000  Uiso   1.00
C139   C     0.23333   0.68798   0.00000   0.00000  Uiso   1.00
C140   C     0.76667   0.31202   0.00000   0.00000  Uiso   1.00
C141   C     0.31202   0.76667   0.00000   0.00000  Uiso   1.00
C142   C     0.68798   0.23333   0.00000   0.00000  Uiso   1.00
C143   C     0.76667   0.68798   0.00000   0.00000  Uiso   1.00
C144   C     0.23333   0.31202   0.00000   0.00000  Uiso   1.00
C145   C     0.71900   0.75833   0.00000   0.00000  Uiso   1.00
C146   C     0.28100   0.24167   0.00000   0.00000  Uiso   1.00
C147   C     0.24167   0.71900   0.00000   0.00000  Uiso   1.00
C148   C     0.75833   0.28100   0.00000   0.00000  Uiso   1.00
C149   C     0.28100   0.75833   0.00000   0.00000  Uiso   1.00
C150   C     0.71900   0.24167   0.00000   0.00000  Uiso   1.00
C151   C     0.75833   0.71900   0.00000   0.00000  Uiso   1.00
C152   C     0.24167   0.28100   0.00000   0.00000  Uiso   1.00
C153   C     0.48497   0.90567   0.00000   0.00000  Uiso   1.00
C154   C     0.51503   0.09433   0.00000   0.00000  Uiso   1.00
C155   C     0.09433   0.48497   0.00000   0.00000  Uiso   1.00
C156   C     0.90567   0.51503   0.00000   0.00000  Uiso   1.00
C157   C     0.51503   0.90567   0.00000   0.00000  Uiso   1.00
C158   C     0.48497   0.09433   0.00000   0.00000  Uiso   1.00
C159   C     0.90567   0.48497   0.00000   0.00000  Uiso   1.00
C160   C     0.09433   0.51503   0.00000   0.00000  Uiso   1.00
C161   C     0.11748   0.41846   0.00000   0.00000  Uiso   1.00
C162   C     0.88252   0.58154   0.00000   0.00000  Uiso   1.00
C163   C     0.58154   0.11748   0.00000   0.00000  Uiso   1.00
C164   C     0.41846   0.88252   0.00000   0.00000  Uiso   1.00
C165   C     0.88252   0.41846   0.00000   0.00000  Uiso   1.00
C166   C     0.11748   0.58154   0.00000   0.00000  Uiso   1.00
C167   C     0.41846   0.11748   0.00000   0.00000  Uiso   1.00
C168   C     0.58154   0.88252   0.00000   0.00000  Uiso   1.00
C169   C     0.14092   0.39647   0.00000   0.00000  Uiso   1.00
C170   C     0.85908   0.60353   0.00000   0.00000  Uiso   1.00
C171   C     0.60353   0.14092   0.00000   0.00000  Uiso   1.00
C172   C     0.39647   0.85908   0.00000   0.00000  Uiso   1.00
C173   C     0.85908   0.39647   0.00000   0.00000  Uiso   1.00
C174   C     0.14092   0.60353   0.00000   0.00000  Uiso   1.00
C175   C     0.39647   0.14092   0.00000   0.00000  Uiso   1.00
C176   C     0.60353   0.85908   0.00000   0.00000  Uiso   1.00
O177   O     0.19013   0.34754   0.00000   0.00000  Uiso   1.00
O178   O     0.80987   0.65246   0.00000   0.00000  Uiso   1.00
O179   O     0.65246   0.19013   0.00000   0.00000  Uiso   1.00
O180   O     0.34754   0.80987   0.00000   0.00000  Uiso   1.00
O181   O     0.80987   0.34754   0.00000   0.00000  Uiso   1.00
O182   O     0.19013   0.65246   0.00000   0.00000  Uiso   1.00
O183   O     0.34754   0.19013   0.00000   0.00000  Uiso   1.00
O184   O     0.65246   0.80987   0.00000   0.00000  Uiso   1.00
C185   C     0.31962   0.20252   0.00000   0.00000  Uiso   1.00
C186   C     0.68039   0.79749   0.00000   0.00000  Uiso   1.00
C187   C     0.79749   0.31962   0.00000   0.00000  Uiso   1.00
C188   C     0.20252   0.68039   0.00000   0.00000  Uiso   1.00
C189   C     0.68039   0.20252   0.00000   0.00000  Uiso   1.00
C190   C     0.31962   0.79749   0.00000   0.00000  Uiso   1.00
C191   C     0.20252   0.31962   0.00000   0.00000  Uiso   1.00
C192   C     0.79749   0.68039   0.00000   0.00000  Uiso   1.00
H193   H     0.67099   0.75096   0.00000   0.00000  Uiso   1.00
H194   H     0.32902   0.24904   0.00000   0.00000  Uiso   1.00
H195   H     0.24904   0.67099   0.00000   0.00000  Uiso   1.00
H196   H     0.75096   0.32902   0.00000   0.00000  Uiso   1.00
H197   H     0.32902   0.75096   0.00000   0.00000  Uiso   1.00
H198   H     0.67099   0.24904   0.00000   0.00000  Uiso   1.00
H199   H     0.75096   0.67099   0.00000   0.00000  Uiso   1.00
H200   H     0.24904   0.32902   0.00000   0.00000  Uiso   1.00
H201   H     0.47666   0.88545   0.00000   0.00000  Uiso   1.00
H202   H     0.52334   0.11455   0.00000   0.00000  Uiso   1.00
H203   H     0.11455   0.47666   0.00000   0.00000  Uiso   1.00
H204   H     0.88545   0.52334   0.00000   0.00000  Uiso   1.00
H205   H     0.52334   0.88545   0.00000   0.00000  Uiso   1.00
H206   H     0.47666   0.11455   0.00000   0.00000  Uiso   1.00
H207   H     0.88545   0.47666   0.00000   0.00000  Uiso   1.00
H208   H     0.11455   0.52334   0.00000   0.00000  Uiso   1.00
H209   H     0.12894   0.43708   0.00000   0.00000  Uiso   1.00
H210   H     0.87106   0.56292   0.00000   0.00000  Uiso   1.00
H211   H     0.56292   0.12894   0.00000   0.00000  Uiso   1.00
H212   H     0.43708   0.87106   0.00000   0.00000  Uiso   1.00
H213   H     0.87106   0.43708   0.00000   0.00000  Uiso   1.00
H214   H     0.12894   0.56292   0.00000   0.00000  Uiso   1.00
H215   H     0.43708   0.12894   0.00000   0.00000  Uiso   1.00
H216   H     0.56292   0.87106   0.00000   0.00000  Uiso   1.00
H217   H     0.16343   0.40279   0.00000   0.00000  Uiso   1.00
H218   H     0.83657   0.59721   0.00000   0.00000  Uiso   1.00
H219   H     0.59721   0.16343   0.00000   0.00000  Uiso   1.00
H220   H     0.40279   0.83657   0.00000   0.00000  Uiso   1.00
H221   H     0.83657   0.40279   0.00000   0.00000  Uiso   1.00
H222   H     0.16343   0.59721   0.00000   0.00000  Uiso   1.00
H223   H     0.40279   0.16343   0.00000   0.00000  Uiso   1.00
H224   H     0.59721   0.83657   0.00000   0.00000  Uiso   1.00
N225   N     0.00000   0.45111   0.00000   0.00000  Uiso   1.00
N226   N     0.00000   0.54889   0.00000   0.00000  Uiso   1.00
N227   N     0.54889   0.00000   0.00000   0.00000  Uiso   1.00
N228   N     0.45111   0.00000   0.00000   0.00000  Uiso   1.00
C229   C     0.77276   0.77276   0.00000   0.00000  Uiso   1.00
C230   C     0.22724   0.22724   0.00000   0.00000  Uiso   1.00
C231   C     0.22724   0.77276   0.00000   0.00000  Uiso   1.00
C232   C     0.77276   0.22724   0.00000   0.00000  Uiso   1.00
H233   H     0.78918   0.78918   0.00000   0.00000  Uiso   1.00
H234   H     0.21082   0.21082   0.00000   0.00000  Uiso   1.00
H235   H     0.21082   0.78918   0.00000   0.00000  Uiso   1.00
H236   H     0.78918   0.21082   0.00000   0.00000  Uiso   1.00
N237   N     0.50000   0.95048   0.00000   0.00000  Uiso   1.00
N238   N     0.50000   0.04952   0.00000   0.00000  Uiso   1.00
N239   N     0.04952   0.50000   0.00000   0.00000  Uiso   1.00
N240   N     0.95048   0.50000   0.00000   0.00000  Uiso   1.00
H241   H     0.50000   0.02752   0.00000   0.00000  Uiso   1.00
H242   H     0.50000   0.97248   0.00000   0.00000  Uiso   1.00
H243   H     0.97248   0.50000   0.00000   0.00000  Uiso   1.00
H244   H     0.02752   0.50000   0.00000   0.00000  Uiso   1.00
C245   C     0.27251   0.27251   0.00000   0.00000  Uiso   1.00
C246   C     0.72749   0.72749   0.00000   0.00000  Uiso   1.00
C247   C     0.72749   0.27251   0.00000   0.00000  Uiso   1.00
C248   C     0.27251   0.72749   0.00000   0.00000  Uiso   1.00
H249   H     0.28893   0.28893   0.00000   0.00000  Uiso   1.00
H250   H     0.71107   0.71107   0.00000   0.00000  Uiso   1.00
H251   H     0.71107   0.28893   0.00000   0.00000  Uiso   1.00
H252   H     0.28893   0.71107   0.00000   0.00000  Uiso   1.00
loop_
_geom_bond_atom_site_label_1
_geom_bond_atom_site_label_2
_geom_bond_distance
_geom_bond_site_symmetry_2
_ccdc_geom_bond_type
C1     C9      1.534   .     S
C1     C40     1.465   .     D
C1     C129    1.464   .     S
C2     C10     1.534   .     S
C2     C39     1.465   .     S
C2     C130    1.464   .     D
C3     C11     1.534   .     S
C3     C38     1.465   .     D
C3     C131    1.464   .     S
C4     C12     1.534   .     S
C4     C37     1.465   .     S
C4     C132    1.464   .     D
C5     C13     1.534   .     S
C5     C36     1.465   .     D
C5     C133    1.464   .     S
C6     C14     1.534   .     S
C6     C35     1.465   .     S
C6     C134    1.464   .     D
C7     C15     1.534   .     S
C7     C34     1.465   .     S
C7     C135    1.464   .     D
C8     C16     1.534   .     S
C8     C33     1.465   .     D
C8     C136    1.464   .     S
C9     C65     1.459   .     S
C9     C168    1.458   .     D
C10    C66     1.459   .     D
C10    C167    1.458   .     S
C11    C67     1.459   .     S
C11    C166    1.458   .     D
C12    C68     1.459   .     D
C12    C165    1.458   .     S
C13    C69     1.459   .     S
C13    C164    1.458   .     D
C14    C70     1.459   .     D
C14    C163    1.458   .     S
C15    C71     1.459   .     D
C15    C162    1.458   .     S
C16    C72     1.459   .     S
C16    C161    1.458   .     D
C17    B25     1.491   .     S
C17    C73     1.389   .     S
C17    C176    1.389   .     D
C18    B26     1.491   .     S
C18    C74     1.389   .     D
C18    C175    1.389   .     S
C19    B27     1.491   .     S
C19    C75     1.389   .     S
C19    C174    1.389   .     D
C20    B28     1.491   .     S
C20    C76     1.389   .     D
C20    C173    1.389   .     S
C21    B29     1.491   .     S
C21    C77     1.389   .     S
C21    C172    1.389   .     D
C22    B30     1.491   .     S
C22    C78     1.389   .     D
C22    C171    1.389   .     S
C23    B31     1.491   .     S
C23    C79     1.389   .     D
C23    C170    1.389   .     S
C24    B32     1.491   .     S
C24    C80     1.389   .     S
C24    C169    1.389   .     D
B25    O81     1.442   .     S
B25    O184    1.442   .     S
B26    O82     1.442   .     S
B26    O183    1.442   .     S
B27    O83     1.442   .     S
B27    O182    1.442   .     S
B28    O84     1.442   .     S
B28    O181    1.442   .     S
B29    O85     1.442   .     S
B29    O180    1.442   .     S
B30    O86     1.442   .     S
B30    O179    1.442   .     S
B31    O87     1.442   .     S
B31    O178    1.442   .     S
B32    O88     1.442   .     S
B32    O177    1.442   .     S
C33    C61     1.365   .     S
C33    N225    1.411   .     S
C34    C62     1.365   .     S
C34    N226    1.411   1_655 D
C35    C64     1.365   .     S
C35    N227    1.411   .     D
C36    C63     1.365   .     S
C36    N228    1.411   1_565 S
C37    C57     1.365   .     S
C37    N225    1.411   1_655 D
C38    C58     1.365   .     S
C38    N226    1.411   .     S
C39    C60     1.365   .     S
C39    N228    1.411   .     D
C40    C59     1.365   .     S
C40    N227    1.411   1_565 S
C41    C49     1.416   .     S
C41    C90     1.400   .     D
C41    H97     1.021   .     S
C42    C50     1.416   .     S
C42    C89     1.400   .     D
C42    H98     1.021   .     S
C43    C51     1.416   .     D
C43    C92     1.400   .     S
C43    H99     1.021   .     S
C44    C52     1.416   .     D
C44    C91     1.400   .     S
C44    H100    1.021   .     S
C45    C53     1.416   .     S
C45    C94     1.400   .     D
C45    H101    1.021   .     S
C46    C54     1.416   .     S
C46    C93     1.400   .     D
C46    H102    1.021   .     S
C47    C55     1.416   .     D
C47    C96     1.400   .     S
C47    H103    1.021   .     S
C48    C56     1.416   .     S
C48    C95     1.400   .     D
C48    H104    1.021   .     S
C49    C152    1.430   .     S
C49    C230    1.411   .     D
C50    C151    1.430   .     S
C50    C229    1.411   .     D
C51    C150    1.430   .     S
C51    C232    1.411   .     S
C52    C149    1.430   .     S
C52    C231    1.411   .     S
C53    C148    1.430   .     S
C53    C232    1.411   .     D
C54    C147    1.430   .     S
C54    C231    1.411   .     D
C55    C146    1.430   .     S
C55    C230    1.411   .     S
C56    C145    1.430   .     D
C56    C229    1.411   .     S
C57    C61     1.324   1_655 D
C57    H105    0.963   .     S
C58    C62     1.324   1_455 D
C58    H106    0.963   .     S
C59    C64     1.324   1_565 D
C59    H107    0.963   .     S
C60    C63     1.324   1_545 D
C60    H108    0.963   .     S
C61    C57     1.324   1_455 D
C61    H109    0.963   .     S
C62    C58     1.324   1_655 D
C62    H110    0.963   .     S
C63    C60     1.324   1_565 D
C63    H111    0.963   .     S
C64    C59     1.324   1_545 D
C64    H112    0.963   .     S
C65    C73     1.418   .     D
C65    H113    0.965   .     S
C66    C74     1.418   .     S
C66    H114    0.965   .     S
C67    C75     1.418   .     D
C67    H115    0.965   .     S
C68    C76     1.418   .     S
C68    H116    0.965   .     S
C69    C77     1.418   .     D
C69    H117    0.965   .     S
C70    C78     1.418   .     S
C70    H118    0.965   .     S
C71    C79     1.418   .     S
C71    H119    0.965   .     S
C72    C80     1.418   .     D
C72    H120    0.965   .     S
C73    H121    1.031   .     S
C74    H122    1.031   .     S
C75    H123    1.031   .     S
C76    H124    1.031   .     S
C77    H125    1.031   .     S
C78    H126    1.031   .     S
C79    H127    1.031   .     S
C80    H128    1.031   .     S
O81    C95     1.347   .     S
O82    C96     1.347   .     S
O83    C93     1.347   .     S
O84    C94     1.347   .     S
O85    C91     1.347   .     S
O86    C92     1.347   .     S
O87    C89     1.347   .     S
O88    C90     1.347   .     S
C89    C192    1.396   .     S
C90    C191    1.396   .     S
C91    C190    1.396   .     D
C92    C189    1.396   .     D
C93    C188    1.396   .     S
C94    C187    1.396   .     S
C95    C186    1.396   .     S
C96    C185    1.396   .     D
C129   C157    1.366   .     D
C129   N237    1.407   .     S
C130   C158    1.366   .     S
C130   N238    1.407   .     S
C131   C160    1.366   .     D
C131   N239    1.407   .     S
C132   C159    1.366   .     S
C132   N240    1.407   .     S
C133   C153    1.366   .     D
C133   N237    1.407   .     S
C134   C154    1.366   .     S
C134   N238    1.407   .     S
C135   C156    1.366   .     S
C135   N240    1.407   .     S
C136   C155    1.366   .     D
C136   N239    1.407   .     S
C137   C145    1.416   .     S
C137   C186    1.400   .     D
C137   H193    1.021   .     S
C138   C146    1.416   .     D
C138   C185    1.400   .     S
C138   H194    1.021   .     S
C139   C147    1.416   .     S
C139   C188    1.400   .     D
C139   H195    1.021   .     S
C140   C148    1.416   .     S
C140   C187    1.400   .     D
C140   H196    1.021   .     S
C141   C149    1.416   .     D
C141   C190    1.400   .     S
C141   H197    1.021   .     S
C142   C150    1.416   .     D
C142   C189    1.400   .     S
C142   H198    1.021   .     S
C143   C151    1.416   .     S
C143   C192    1.400   .     D
C143   H199    1.021   .     S
C144   C152    1.416   .     S
C144   C191    1.400   .     D
C144   H200    1.021   .     S
C145   C246    1.411   .     S
C146   C245    1.411   .     S
C147   C248    1.411   .     D
C148   C247    1.411   .     D
C149   C248    1.411   .     S
C150   C247    1.411   .     S
C151   C246    1.411   .     D
C152   C245    1.411   .     D
C153   C157    1.325   .     S
C153   H201    0.964   .     S
C154   C158    1.325   .     D
C154   H202    0.964   .     S
C155   C160    1.325   .     S
C155   H203    0.964   .     S
C156   C159    1.325   .     D
C156   H204    0.964   .     S
C157   H205    0.964   .     S
C158   H206    0.964   .     S
C159   H207    0.964   .     S
C160   H208    0.964   .     S
C161   C169    1.417   .     S
C161   H209    0.964   .     S
C162   C170    1.417   .     D
C162   H210    0.964   .     S
C163   C171    1.417   .     D
C163   H211    0.964   .     S
C164   C172    1.417   .     S
C164   H212    0.964   .     S
C165   C173    1.417   .     D
C165   H213    0.964   .     S
C166   C174    1.417   .     S
C166   H214    0.964   .     S
C167   C175    1.417   .     D
C167   H215    0.964   .     S
C168   C176    1.417   .     S
C168   H216    0.964   .     S
C169   H217    1.031   .     S
C170   H218    1.031   .     S
C171   H219    1.031   .     S
C172   H220    1.031   .     S
C173   H221    1.031   .     S
C174   H222    1.031   .     S
C175   H223    1.031   .     S
C176   H224    1.031   .     S
O177   C191    1.347   .     S
O178   C192    1.347   .     S
O179   C189    1.347   .     S
O180   C190    1.347   .     S
O181   C187    1.347   .     S
O182   C188    1.347   .     S
O183   C185    1.347   .     S
O184   C186    1.347   .     S
N225   C37     1.411   1_455 D
N226   C34     1.411   1_455 D
N227   C40     1.411   1_545 S
N228   C36     1.411   1_545 S
C229   H233    1.024   .     S
C230   H234    1.024   .     S
C231   H235    1.024   .     S
C232   H236    1.024   .     S
N237   H242    0.970   .     S
N238   H241    0.970   .     S
N239   H244    0.970   .     S
N240   H243    0.970   .     S
C245   H249    1.024   .     S
C246   H250    1.024   .     S
C247   H251    1.024   .     S
C248   H252    1.024   .     S
