data_128
_audit_creation_date              2023-09-08
_audit_creation_method            'Materials Studio'
_symmetry_space_group_name_H-M    'P1'
_symmetry_Int_Tables_number       1
_symmetry_cell_setting            triclinic
loop_
_symmetry_equiv_pos_as_xyz
  x,y,z
_cell_length_a                    22.7331
_cell_length_b                    22.7331
_cell_length_c                    3.4764
_cell_angle_alpha                 90.0000
_cell_angle_beta                  90.0000
_cell_angle_gamma                 120.0000
loop_
_atom_site_label
_atom_site_type_symbol
_atom_site_fract_x
_atom_site_fract_y
_atom_site_fract_z
_atom_site_U_iso_or_equiv
_atom_site_adp_type
_atom_site_occupancy
B1     B     0.47931   0.95861   0.50000   0.00000  Uiso   1.00
B2     B     0.04139   0.52070   0.50000   0.00000  Uiso   1.00
B3     B     0.47931   0.52070   0.50000   0.00000  Uiso   1.00
O4     O     0.08202   0.48714   0.50000   0.00000  Uiso   1.00
C5     C     0.92475   0.40622   0.50000   0.00000  Uiso   1.00
C6     C     0.85418   0.37031   0.50000   0.00000  Uiso   1.00
C7     C     0.27046   0.60362   0.50000   0.00000  Uiso   1.00
C8     C     0.14673   0.54343   0.50000   0.00000  Uiso   1.00
C9     C     0.20677   0.54179   0.50000   0.00000  Uiso   1.00
H10    H     0.20114   0.49199   0.50000   0.00000  Uiso   1.00
H11    H     0.95199   0.37847   0.50000   0.00000  Uiso   1.00
H12    H     0.82803   0.31537   0.50000   0.00000  Uiso   1.00
O13    O     0.51286   0.59488   0.50000   0.00000  Uiso   1.00
C14    C     0.59378   0.51853   0.50000   0.00000  Uiso   1.00
C15    C     0.62969   0.48387   0.50000   0.00000  Uiso   1.00
C16    C     0.39638   0.66684   0.50000   0.00000  Uiso   1.00
C17    C     0.45657   0.60330   0.50000   0.00000  Uiso   1.00
C18    C     0.45821   0.66498   0.50000   0.00000  Uiso   1.00
H19    H     0.50801   0.70915   0.50000   0.00000  Uiso   1.00
H20    H     0.62153   0.57352   0.50000   0.00000  Uiso   1.00
H21    H     0.68463   0.51266   0.50000   0.00000  Uiso   1.00
O22    O     0.40512   0.91798   0.50000   0.00000  Uiso   1.00
C23    C     0.48147   0.07525   0.50000   0.00000  Uiso   1.00
C24    C     0.51613   0.14582   0.50000   0.00000  Uiso   1.00
C25    C     0.33316   0.72954   0.50000   0.00000  Uiso   1.00
C26    C     0.39670   0.85327   0.50000   0.00000  Uiso   1.00
C27    C     0.33502   0.79323   0.50000   0.00000  Uiso   1.00
H28    H     0.29085   0.79886   0.50000   0.00000  Uiso   1.00
H29    H     0.42648   0.04801   0.50000   0.00000  Uiso   1.00
H30    H     0.48734   0.17197   0.50000   0.00000  Uiso   1.00
O31    O     0.51286   0.91798   0.50000   0.00000  Uiso   1.00
C32    C     0.59378   0.07525   0.50000   0.00000  Uiso   1.00
C33    C     0.62969   0.14582   0.50000   0.00000  Uiso   1.00
C34    C     0.39638   0.72954   0.50000   0.00000  Uiso   1.00
C35    C     0.45657   0.85327   0.50000   0.00000  Uiso   1.00
C36    C     0.45821   0.79323   0.50000   0.00000  Uiso   1.00
H37    H     0.50801   0.79886   0.50000   0.00000  Uiso   1.00
H38    H     0.62153   0.04801   0.50000   0.00000  Uiso   1.00
H39    H     0.68463   0.17197   0.50000   0.00000  Uiso   1.00
O40    O     0.40512   0.48714   0.50000   0.00000  Uiso   1.00
C41    C     0.48147   0.40622   0.50000   0.00000  Uiso   1.00
C42    C     0.51613   0.37031   0.50000   0.00000  Uiso   1.00
C43    C     0.33316   0.60362   0.50000   0.00000  Uiso   1.00
C44    C     0.39670   0.54343   0.50000   0.00000  Uiso   1.00
C45    C     0.33502   0.54179   0.50000   0.00000  Uiso   1.00
H46    H     0.29085   0.49199   0.50000   0.00000  Uiso   1.00
H47    H     0.42648   0.37847   0.50000   0.00000  Uiso   1.00
H48    H     0.48734   0.31537   0.50000   0.00000  Uiso   1.00
O49    O     0.08202   0.59488   0.50000   0.00000  Uiso   1.00
C50    C     0.92475   0.51853   0.50000   0.00000  Uiso   1.00
C51    C     0.85418   0.48387   0.50000   0.00000  Uiso   1.00
C52    C     0.27046   0.66684   0.50000   0.00000  Uiso   1.00
C53    C     0.14673   0.60330   0.50000   0.00000  Uiso   1.00
C54    C     0.20677   0.66498   0.50000   0.00000  Uiso   1.00
H55    H     0.20114   0.70915   0.50000   0.00000  Uiso   1.00
H56    H     0.95199   0.57352   0.50000   0.00000  Uiso   1.00
H57    H     0.82803   0.51266   0.50000   0.00000  Uiso   1.00
C58    C     0.63092   0.26184   0.50000   0.00000  Uiso   1.00
C59    C     0.51889   0.03777   0.50000   0.00000  Uiso   1.00
C60    C     0.59263   0.18525   0.50000   0.00000  Uiso   1.00
C61    C     0.73816   0.36908   0.50000   0.00000  Uiso   1.00
C62    C     0.96223   0.48112   0.50000   0.00000  Uiso   1.00
C63    C     0.81475   0.40737   0.50000   0.00000  Uiso   1.00
C64    C     0.63092   0.36908   0.50000   0.00000  Uiso   1.00
C65    C     0.51889   0.48111   0.50000   0.00000  Uiso   1.00
C66    C     0.59263   0.40737   0.50000   0.00000  Uiso   1.00
C67    C     0.59596   0.29798   0.50000   0.00000  Uiso   1.00
C68    C     0.70202   0.29798   0.50000   0.00000  Uiso   1.00
C69    C     0.70202   0.40404   0.50000   0.00000  Uiso   1.00
H70    H     0.72950   0.27050   0.50000   0.00000  Uiso   1.00
H71    H     0.72950   0.45900   0.50000   0.00000  Uiso   1.00
H72    H     0.54100   0.27050   0.50000   0.00000  Uiso   1.00
loop_
_geom_bond_atom_site_label_1
_geom_bond_atom_site_label_2
_geom_bond_distance
_geom_bond_site_symmetry_2
_ccdc_geom_bond_type
B1     O22     1.463   .     S
B1     O31     1.463   .     S
B1     C59     1.558   1_565 S
B2     O4      1.463   .     S
B2     O49     1.463   .     S
B2     C62     1.558   1_455 S
B3     O13     1.463   .     S
B3     O40     1.463   .     S
B3     C65     1.558   .     S
O4     C8      1.385   .     S
C5     C6      1.389   .     S
C5     H11     1.083   .     S
C5     C62     1.474   .     D
C6     H12     1.082   .     S
C6     C63     1.506   .     D
C7     C9      1.427   .     S
C7     C43     1.425   .     S
C7     C52     1.437   .     D
C8     C9      1.384   .     D
C8     C53     1.361   .     S
C9     H10     1.074   .     S
O13    C17     1.385   .     S
C14    C15     1.389   .     D
C14    H20     1.083   .     S
C14    C65     1.474   .     S
C15    H21     1.082   .     S
C15    C66     1.506   .     S
C16    C18     1.427   .     S
C16    C34     1.425   .     S
C16    C43     1.437   .     D
C17    C18     1.384   .     D
C17    C44     1.361   .     S
C18    H19     1.074   .     S
O22    C26     1.385   .     S
C23    C24     1.389   .     S
C23    H29     1.083   .     S
C23    C59     1.474   .     D
C24    H30     1.082   .     S
C24    C60     1.506   .     D
C25    C27     1.427   .     D
C25    C34     1.437   .     S
C25    C52     1.425   .     S
C26    C27     1.384   .     S
C26    C35     1.361   .     D
C27    H28     1.074   .     S
O31    C35     1.385   .     S
C32    C33     1.389   .     D
C32    H38     1.083   .     S
C32    C59     1.474   .     S
C33    H39     1.082   .     S
C33    C60     1.506   .     S
C34    C36     1.427   .     D
C35    C36     1.384   .     S
C36    H37     1.074   .     S
O40    C44     1.385   .     S
C41    C42     1.389   .     S
C41    H47     1.083   .     S
C41    C65     1.474   .     D
C42    H48     1.082   .     S
C42    C66     1.506   .     D
C43    C45     1.427   .     S
C44    C45     1.384   .     D
C45    H46     1.074   .     S
O49    C53     1.385   .     S
C50    C51     1.389   .     D
C50    H56     1.083   .     S
C50    C62     1.474   .     S
C51    H57     1.082   .     S
C51    C63     1.506   .     S
C52    C54     1.427   .     S
C53    C54     1.384   .     D
C54    H55     1.074   .     S
C58    C60     1.508   .     S
C58    C67     1.400   .     D
C58    C68     1.400   .     S
C59    B1      1.558   1_545 S
C61    C63     1.508   .     S
C61    C68     1.400   .     D
C61    C69     1.400   .     S
C62    B2      1.558   1_655 S
C64    C66     1.508   .     S
C64    C67     1.400   .     S
C64    C69     1.400   .     D
C67    H72     1.082   .     S
C68    H70     1.082   .     S
C69    H71     1.082   .     S
