data_129
_audit_creation_date              2023-09-08
_audit_creation_method            'Materials Studio'
_symmetry_space_group_name_H-M    'P1'
_symmetry_Int_Tables_number       1
_symmetry_cell_setting            triclinic
loop_
_symmetry_equiv_pos_as_xyz
  x,y,z
_cell_length_a                    34.0624
_cell_length_b                    32.5429
_cell_length_c                    3.6448
_cell_angle_alpha                 90.0000
_cell_angle_beta                  90.0000
_cell_angle_gamma                 90.0000
loop_
_atom_site_label
_atom_site_type_symbol
_atom_site_fract_x
_atom_site_fract_y
_atom_site_fract_z
_atom_site_U_iso_or_equiv
_atom_site_adp_type
_atom_site_occupancy
C1     C     0.46351   0.95849   0.21110   0.00000  Uiso   1.00
C2     C     0.42815   0.02023   0.21807   0.00000  Uiso   1.00
C3     C     0.46342   0.08290   0.20804   0.00000  Uiso   1.00
C4     C     0.42705   0.10767   0.16644   0.00000  Uiso   1.00
C5     C     0.42310   0.14295   0.33346   0.00000  Uiso   1.00
C6     C     0.39024   0.16716   0.28638   0.00000  Uiso   1.00
C7     C     0.35993   0.15633   0.07618   0.00000  Uiso   1.00
C8     C     0.36406   0.12149  -0.09455   0.00000  Uiso   1.00
C9     C     0.39795   0.09841  -0.05949   0.00000  Uiso   1.00
C10    C     0.32464   0.18156   0.03200   0.00000  Uiso   1.00
C11    C     0.78659   0.26492  -0.08424   0.00000  Uiso   1.00
C12    C     0.77647   0.22731  -0.18496   0.00000  Uiso   1.00
N13    N     0.32296   0.21626   0.15393   0.00000  Uiso   1.00
C14    C     0.26079   0.78703  -0.09562   0.00000  Uiso   1.00
S15    S     0.78089   0.66607   0.19116   0.00000  Uiso   1.00
H16    H     0.79657   0.21007  -0.32708   0.00000  Uiso   1.00
H17    H     0.39841   0.03611   0.22392   0.00000  Uiso   1.00
H18    H     0.44509   0.15155   0.50645   0.00000  Uiso   1.00
H19    H     0.38812   0.19387   0.42168   0.00000  Uiso   1.00
H20    H     0.34204   0.11273  -0.26632   0.00000  Uiso   1.00
H21    H     0.40151   0.07338  -0.21265   0.00000  Uiso   1.00
C22    C     0.53649   0.04151   0.21110   0.00000  Uiso   1.00
C23    C     0.57185   0.97977   0.21807   0.00000  Uiso   1.00
C24    C     0.53658   0.91710   0.20804   0.00000  Uiso   1.00
C25    C     0.57295   0.89233   0.16644   0.00000  Uiso   1.00
C26    C     0.57690   0.85705   0.33346   0.00000  Uiso   1.00
C27    C     0.60976   0.83284   0.28638   0.00000  Uiso   1.00
C28    C     0.64007   0.84367   0.07618   0.00000  Uiso   1.00
C29    C     0.63594   0.87851  -0.09455   0.00000  Uiso   1.00
C30    C     0.60205   0.90159  -0.05949   0.00000  Uiso   1.00
C31    C     0.67536   0.81844   0.03200   0.00000  Uiso   1.00
C32    C     0.21341   0.73508  -0.08424   0.00000  Uiso   1.00
C33    C     0.22353   0.77269  -0.18496   0.00000  Uiso   1.00
N34    N     0.67704   0.78374   0.15393   0.00000  Uiso   1.00
C35    C     0.73921   0.21297  -0.09562   0.00000  Uiso   1.00
S36    S     0.21911   0.33393   0.19116   0.00000  Uiso   1.00
H37    H     0.20343   0.78993  -0.32708   0.00000  Uiso   1.00
H38    H     0.60159   0.96389   0.22392   0.00000  Uiso   1.00
H39    H     0.55491   0.84845   0.50645   0.00000  Uiso   1.00
H40    H     0.61188   0.80613   0.42168   0.00000  Uiso   1.00
H41    H     0.65796   0.88727  -0.26632   0.00000  Uiso   1.00
H42    H     0.59849   0.92662  -0.21265   0.00000  Uiso   1.00
C43    C     0.03649   0.45849  -0.21110   0.00000  Uiso   1.00
C44    C     0.07185   0.52023  -0.21807   0.00000  Uiso   1.00
C45    C     0.03658   0.58290  -0.20804   0.00000  Uiso   1.00
C46    C     0.07295   0.60767  -0.16644   0.00000  Uiso   1.00
C47    C     0.07690   0.64295  -0.33346   0.00000  Uiso   1.00
C48    C     0.10976   0.66716  -0.28638   0.00000  Uiso   1.00
C49    C     0.14007   0.65633  -0.07618   0.00000  Uiso   1.00
C50    C     0.13594   0.62149   0.09455   0.00000  Uiso   1.00
C51    C     0.10205   0.59841   0.05949   0.00000  Uiso   1.00
C52    C     0.17536   0.68156  -0.03200   0.00000  Uiso   1.00
C53    C     0.71341   0.76492   0.08424   0.00000  Uiso   1.00
C54    C     0.72353   0.72731   0.18496   0.00000  Uiso   1.00
N55    N     0.17704   0.71626  -0.15393   0.00000  Uiso   1.00
C56    C     0.23921   0.28703   0.09562   0.00000  Uiso   1.00
S57    S     0.71911   0.16607  -0.19116   0.00000  Uiso   1.00
H58    H     0.70343   0.71007   0.32708   0.00000  Uiso   1.00
H59    H     0.10159   0.53611  -0.22392   0.00000  Uiso   1.00
H60    H     0.05491   0.65155  -0.50645   0.00000  Uiso   1.00
H61    H     0.11188   0.69387  -0.42168   0.00000  Uiso   1.00
H62    H     0.15796   0.61273   0.26632   0.00000  Uiso   1.00
H63    H     0.09849   0.57338   0.21265   0.00000  Uiso   1.00
C64    C     0.96351   0.54151  -0.21110   0.00000  Uiso   1.00
C65    C     0.92815   0.47977  -0.21807   0.00000  Uiso   1.00
C66    C     0.96342   0.41710  -0.20804   0.00000  Uiso   1.00
C67    C     0.92705   0.39233  -0.16644   0.00000  Uiso   1.00
C68    C     0.92310   0.35705  -0.33346   0.00000  Uiso   1.00
C69    C     0.89024   0.33284  -0.28638   0.00000  Uiso   1.00
C70    C     0.85993   0.34367  -0.07618   0.00000  Uiso   1.00
C71    C     0.86406   0.37851   0.09455   0.00000  Uiso   1.00
C72    C     0.89795   0.40159   0.05949   0.00000  Uiso   1.00
C73    C     0.82464   0.31844  -0.03200   0.00000  Uiso   1.00
C74    C     0.28659   0.23508   0.08424   0.00000  Uiso   1.00
C75    C     0.27647   0.27269   0.18496   0.00000  Uiso   1.00
N76    N     0.82296   0.28374  -0.15393   0.00000  Uiso   1.00
C77    C     0.76079   0.71297   0.09562   0.00000  Uiso   1.00
S78    S     0.28089   0.83393  -0.19116   0.00000  Uiso   1.00
H79    H     0.29657   0.28993   0.32708   0.00000  Uiso   1.00
H80    H     0.89841   0.46389  -0.22392   0.00000  Uiso   1.00
H81    H     0.94509   0.34845  -0.50645   0.00000  Uiso   1.00
H82    H     0.88812   0.30613  -0.42168   0.00000  Uiso   1.00
H83    H     0.84204   0.38727   0.26632   0.00000  Uiso   1.00
H84    H     0.90151   0.42662   0.21265   0.00000  Uiso   1.00
C85    C     0.03649   0.54151  -0.21110   0.00000  Uiso   1.00
C86    C     0.07185   0.47977  -0.21807   0.00000  Uiso   1.00
C87    C     0.03658   0.41710  -0.20804   0.00000  Uiso   1.00
C88    C     0.07295   0.39233  -0.16644   0.00000  Uiso   1.00
C89    C     0.07690   0.35705  -0.33346   0.00000  Uiso   1.00
C90    C     0.10976   0.33284  -0.28638   0.00000  Uiso   1.00
C91    C     0.14007   0.34367  -0.07618   0.00000  Uiso   1.00
C92    C     0.13594   0.37851   0.09455   0.00000  Uiso   1.00
C93    C     0.10205   0.40159   0.05949   0.00000  Uiso   1.00
C94    C     0.17536   0.31844  -0.03200   0.00000  Uiso   1.00
C95    C     0.71341   0.23508   0.08424   0.00000  Uiso   1.00
C96    C     0.72353   0.27269   0.18496   0.00000  Uiso   1.00
N97    N     0.17704   0.28374  -0.15393   0.00000  Uiso   1.00
C98    C     0.23921   0.71297   0.09562   0.00000  Uiso   1.00
S99    S     0.71911   0.83393  -0.19116   0.00000  Uiso   1.00
H100   H     0.70343   0.28993   0.32708   0.00000  Uiso   1.00
H101   H     0.10159   0.46389  -0.22392   0.00000  Uiso   1.00
H102   H     0.05491   0.34845  -0.50645   0.00000  Uiso   1.00
H103   H     0.11188   0.30613  -0.42168   0.00000  Uiso   1.00
H104   H     0.15796   0.38727   0.26632   0.00000  Uiso   1.00
H105   H     0.09849   0.42662   0.21265   0.00000  Uiso   1.00
C106   C     0.96351   0.45849  -0.21110   0.00000  Uiso   1.00
C107   C     0.92815   0.52023  -0.21807   0.00000  Uiso   1.00
C108   C     0.96342   0.58290  -0.20804   0.00000  Uiso   1.00
C109   C     0.92705   0.60767  -0.16644   0.00000  Uiso   1.00
C110   C     0.92310   0.64295  -0.33346   0.00000  Uiso   1.00
C111   C     0.89024   0.66716  -0.28638   0.00000  Uiso   1.00
C112   C     0.85993   0.65633  -0.07618   0.00000  Uiso   1.00
C113   C     0.86406   0.62149   0.09455   0.00000  Uiso   1.00
C114   C     0.89795   0.59841   0.05949   0.00000  Uiso   1.00
C115   C     0.82464   0.68156  -0.03200   0.00000  Uiso   1.00
C116   C     0.28659   0.76492   0.08424   0.00000  Uiso   1.00
C117   C     0.27647   0.72731   0.18496   0.00000  Uiso   1.00
N118   N     0.82296   0.71626  -0.15393   0.00000  Uiso   1.00
C119   C     0.76079   0.28703   0.09562   0.00000  Uiso   1.00
S120   S     0.28089   0.16607  -0.19116   0.00000  Uiso   1.00
H121   H     0.29657   0.71007   0.32708   0.00000  Uiso   1.00
H122   H     0.89841   0.53611  -0.22392   0.00000  Uiso   1.00
H123   H     0.94509   0.65155  -0.50645   0.00000  Uiso   1.00
H124   H     0.88812   0.69387  -0.42168   0.00000  Uiso   1.00
H125   H     0.84204   0.61273   0.26632   0.00000  Uiso   1.00
H126   H     0.90151   0.57338   0.21265   0.00000  Uiso   1.00
C127   C     0.46351   0.04151   0.21110   0.00000  Uiso   1.00
C128   C     0.42815   0.97977   0.21807   0.00000  Uiso   1.00
C129   C     0.46342   0.91710   0.20804   0.00000  Uiso   1.00
C130   C     0.42705   0.89233   0.16644   0.00000  Uiso   1.00
C131   C     0.42310   0.85705   0.33346   0.00000  Uiso   1.00
C132   C     0.39024   0.83284   0.28638   0.00000  Uiso   1.00
C133   C     0.35993   0.84367   0.07618   0.00000  Uiso   1.00
C134   C     0.36406   0.87851  -0.09455   0.00000  Uiso   1.00
C135   C     0.39795   0.90159  -0.05949   0.00000  Uiso   1.00
C136   C     0.32464   0.81844   0.03200   0.00000  Uiso   1.00
C137   C     0.78659   0.73508  -0.08424   0.00000  Uiso   1.00
C138   C     0.77647   0.77269  -0.18496   0.00000  Uiso   1.00
N139   N     0.32296   0.78374   0.15393   0.00000  Uiso   1.00
C140   C     0.26079   0.21297  -0.09562   0.00000  Uiso   1.00
S141   S     0.78089   0.33393   0.19116   0.00000  Uiso   1.00
H142   H     0.79657   0.78993  -0.32708   0.00000  Uiso   1.00
H143   H     0.39841   0.96389   0.22392   0.00000  Uiso   1.00
H144   H     0.44509   0.84845   0.50645   0.00000  Uiso   1.00
H145   H     0.38812   0.80613   0.42168   0.00000  Uiso   1.00
H146   H     0.34204   0.88727  -0.26632   0.00000  Uiso   1.00
H147   H     0.40151   0.92662  -0.21265   0.00000  Uiso   1.00
C148   C     0.53649   0.95849   0.21110   0.00000  Uiso   1.00
C149   C     0.57185   0.02023   0.21807   0.00000  Uiso   1.00
C150   C     0.53658   0.08290   0.20804   0.00000  Uiso   1.00
C151   C     0.57295   0.10767   0.16644   0.00000  Uiso   1.00
C152   C     0.57690   0.14295   0.33346   0.00000  Uiso   1.00
C153   C     0.60976   0.16716   0.28638   0.00000  Uiso   1.00
C154   C     0.64007   0.15633   0.07618   0.00000  Uiso   1.00
C155   C     0.63594   0.12149  -0.09455   0.00000  Uiso   1.00
C156   C     0.60205   0.09841  -0.05949   0.00000  Uiso   1.00
C157   C     0.67536   0.18156   0.03200   0.00000  Uiso   1.00
C158   C     0.21341   0.26492  -0.08424   0.00000  Uiso   1.00
C159   C     0.22353   0.22731  -0.18496   0.00000  Uiso   1.00
N160   N     0.67704   0.21626   0.15393   0.00000  Uiso   1.00
C161   C     0.73921   0.78703  -0.09562   0.00000  Uiso   1.00
S162   S     0.21911   0.66607   0.19116   0.00000  Uiso   1.00
H163   H     0.20343   0.21007  -0.32708   0.00000  Uiso   1.00
H164   H     0.60159   0.03611   0.22392   0.00000  Uiso   1.00
H165   H     0.55491   0.15155   0.50645   0.00000  Uiso   1.00
H166   H     0.61188   0.19387   0.42168   0.00000  Uiso   1.00
H167   H     0.65796   0.11273  -0.26632   0.00000  Uiso   1.00
H168   H     0.59849   0.07338  -0.21265   0.00000  Uiso   1.00
C169   C     0.50000   0.10218   0.20679   0.00000  Uiso   1.00
C170   C     0.50000   0.97919   0.21043   0.00000  Uiso   1.00
H171   H     0.50000   0.13542   0.20465   0.00000  Uiso   1.00
C172   C     0.50000   0.89782   0.20679   0.00000  Uiso   1.00
C173   C     0.50000   0.02081   0.21043   0.00000  Uiso   1.00
H174   H     0.50000   0.86458   0.20465   0.00000  Uiso   1.00
C175   C     0.00000   0.60218  -0.20679   0.00000  Uiso   1.00
C176   C     0.00000   0.47919  -0.21043   0.00000  Uiso   1.00
H177   H     0.00000   0.63542  -0.20465   0.00000  Uiso   1.00
C178   C     0.00000   0.39782  -0.20679   0.00000  Uiso   1.00
C179   C     0.00000   0.52081  -0.21043   0.00000  Uiso   1.00
H180   H     0.00000   0.36458  -0.20465   0.00000  Uiso   1.00
loop_
_geom_bond_atom_site_label_1
_geom_bond_atom_site_label_2
_geom_bond_distance
_geom_bond_site_symmetry_2
_ccdc_geom_bond_type
C1     C128    1.390   .     D
C1     C129    1.347   .     S
C1     C170    1.414   .     S
C2     H17     1.137   .     S
C2     C127    1.390   .     D
C2     C128    1.317   1_545 S
C3     C4      1.486   .     D
C3     C127    1.347   .     S
C3     C169    1.395   .     S
C4     C5      1.306   .     S
C4     C9      1.323   .     S
C5     C6      1.379   .     D
C5     H18     1.018   .     S
C6     C7      1.333   .     S
C6     H19     1.002   .     S
C7     C8      1.301   .     S
C7     C10     1.465   .     D
C8     C9      1.383   .     D
C8     H20     1.018   .     S
C9     H21     0.995   .     S
C10    N13     1.215   .     S
C10    S120    1.771   .     S
C11    C12     1.323   .     D
C11    N76     1.405   .     S
C11    C119    1.311   .     S
C12    H16     1.026   .     S
C12    C35     1.391   .     S
N13    C74     1.405   .     D
C14    C33     1.391   .     D
C14    S78     1.709   .     S
C14    C116    1.311   .     S
S15    C77     1.709   .     S
S15    C115    1.771   .     S
C22    C149    1.390   .     S
C22    C150    1.347   .     S
C22    C173    1.414   .     D
C23    H38     1.137   .     S
C23    C148    1.390   .     S
C23    C149    1.317   1_565 D
C24    C25     1.486   .     S
C24    C148    1.347   .     S
C24    C172    1.395   .     D
C25    C26     1.306   .     S
C25    C30     1.323   .     D
C26    C27     1.379   .     D
C26    H39     1.018   .     S
C27    C28     1.333   .     S
C27    H40     1.002   .     S
C28    C29     1.301   .     D
C28    C31     1.465   .     S
C29    C30     1.383   .     S
C29    H41     1.018   .     S
C30    H42     0.995   .     S
C31    N34     1.215   .     D
C31    S99     1.771   .     S
C32    C33     1.323   .     S
C32    N55     1.405   .     D
C32    C98     1.311   .     S
C33    H37     1.026   .     S
N34    C53     1.405   .     S
C35    S57     1.709   .     S
C35    C95     1.311   .     D
S36    C56     1.709   .     S
S36    C94     1.771   .     S
C43    C86     1.390   .     D
C43    C87     1.347   .     S
C43    C176    1.414   .     S
C44    H59     1.137   .     S
C44    C85     1.390   .     D
C44    C86     1.317   .     S
C45    C46     1.486   .     D
C45    C85     1.347   .     S
C45    C175    1.395   .     S
C46    C47     1.306   .     S
C46    C51     1.323   .     S
C47    C48     1.379   .     D
C47    H60     1.018   .     S
C48    C49     1.333   .     S
C48    H61     1.002   .     S
C49    C50     1.301   .     S
C49    C52     1.465   .     D
C50    C51     1.383   .     D
C50    H62     1.018   .     S
C51    H63     0.995   .     S
C52    N55     1.215   .     S
C52    S162    1.771   .     S
C53    C54     1.323   .     D
C53    C161    1.311   .     S
C54    H58     1.026   .     S
C54    C77     1.391   .     S
C56    C75     1.391   .     D
C56    C158    1.311   .     S
S57    C157    1.771   .     S
C64    C107    1.390   .     S
C64    C108    1.347   .     S
C64    C179    1.414   1_655 D
C65    H80     1.137   .     S
C65    C106    1.390   .     S
C65    C107    1.317   .     D
C66    C67     1.486   .     S
C66    C106    1.347   .     S
C66    C178    1.395   1_655 D
C67    C68     1.306   .     D
C67    C72     1.323   .     S
C68    C69     1.379   .     S
C68    H81     1.018   .     S
C69    C70     1.333   .     D
C69    H82     1.002   .     S
C70    C71     1.301   .     S
C70    C73     1.465   .     S
C71    C72     1.383   .     D
C71    H83     1.018   .     S
C72    H84     0.995   .     S
C73    N76     1.215   .     D
C73    S141    1.771   .     S
C74    C75     1.323   .     S
C74    C140    1.311   .     S
C75    H79     1.026   .     S
C77    C137    1.311   .     D
S78    C136    1.771   .     S
C85    C179    1.414   .     S
C86    H101    1.137   .     S
C87    C88     1.486   .     D
C87    C178    1.395   .     S
C88    C89     1.306   .     S
C88    C93     1.323   .     S
C89    C90     1.379   .     D
C89    H102    1.018   .     S
C90    C91     1.333   .     S
C90    H103    1.002   .     S
C91    C92     1.301   .     S
C91    C94     1.465   .     D
C92    C93     1.383   .     D
C92    H104    1.018   .     S
C93    H105    0.995   .     S
C94    N97     1.215   .     S
C95    C96     1.323   .     S
C95    N160    1.405   .     S
C96    H100    1.026   .     S
C96    C119    1.391   .     D
N97    C158    1.405   .     D
C98    C117    1.391   .     D
C98    S162    1.709   .     S
S99    C161    1.709   .     S
C106   C176    1.414   1_655 D
C107   H122    1.137   .     S
C108   C109    1.486   .     S
C108   C175    1.395   1_655 D
C109   C110    1.306   .     D
C109   C114    1.323   .     S
C110   C111    1.379   .     S
C110   H123    1.018   .     S
C111   C112    1.333   .     D
C111   H124    1.002   .     S
C112   C113    1.301   .     S
C112   C115    1.465   .     S
C113   C114    1.383   .     D
C113   H125    1.018   .     S
C114   H126    0.995   .     S
C115   N118    1.215   .     D
C116   C117    1.323   .     S
C116   N139    1.405   .     D
C117   H121    1.026   .     S
N118   C137    1.405   .     S
C119   S141    1.709   .     S
S120   C140    1.709   .     S
C127   C173    1.414   .     S
C128   C2      1.317   1_565 S
C128   H143    1.137   .     S
C129   C130    1.486   .     D
C129   C172    1.395   .     S
C130   C131    1.306   .     S
C130   C135    1.323   .     S
C131   C132    1.379   .     D
C131   H144    1.018   .     S
C132   C133    1.333   .     S
C132   H145    1.002   .     S
C133   C134    1.301   .     S
C133   C136    1.465   .     D
C134   C135    1.383   .     D
C134   H146    1.018   .     S
C135   H147    0.995   .     S
C136   N139    1.215   .     S
C137   C138    1.323   .     S
C138   H142    1.026   .     S
C138   C161    1.391   .     D
C140   C159    1.391   .     D
C148   C170    1.414   .     D
C149   C23     1.317   1_545 D
C149   H164    1.137   .     S
C150   C151    1.486   .     S
C150   C169    1.395   .     D
C151   C152    1.306   .     D
C151   C156    1.323   .     S
C152   C153    1.379   .     S
C152   H165    1.018   .     S
C153   C154    1.333   .     D
C153   H166    1.002   .     S
C154   C155    1.301   .     S
C154   C157    1.465   .     S
C155   C156    1.383   .     D
C155   H167    1.018   .     S
C156   H168    0.995   .     S
C157   N160    1.215   .     D
C158   C159    1.323   .     S
C159   H163    1.026   .     S
C169   H171    1.082   .     S
C170   C173    1.354   1_565 S
C172   H174    1.082   .     S
C173   C170    1.354   1_545 S
C175   C108    1.395   1_455 D
C175   H177    1.082   .     S
C176   C106    1.414   1_455 D
C176   C179    1.354   .     S
C178   C66     1.395   1_455 D
C178   H180    1.082   .     S
C179   C64     1.414   1_455 D
