data_130
_audit_creation_date              2023-09-08
_audit_creation_method            'Materials Studio'
_symmetry_space_group_name_H-M    'P6'
_symmetry_Int_Tables_number       168
_symmetry_cell_setting            hexagonal
loop_
_symmetry_equiv_pos_as_xyz
  x,y,z
  -y,x-y,z
  -x+y,-x,z
  -x,-y,z
  y,-x+y,z
  x-y,x,z
_cell_length_a                    38.0000
_cell_length_b                    38.0000
_cell_length_c                    4.6000
_cell_angle_alpha                 90.0000
_cell_angle_beta                  90.0000
_cell_angle_gamma                 120.0000
loop_
_atom_site_label
_atom_site_type_symbol
_atom_site_fract_x
_atom_site_fract_y
_atom_site_fract_z
_atom_site_U_iso_or_equiv
_atom_site_adp_type
_atom_site_occupancy
C1     C     0.47228   0.02810   0.49629   0.00000  Uiso   1.00
C2     C     0.54958   0.96715   0.73005   0.00000  Uiso   1.00
C3     C     0.55638   0.93430   0.72769   0.00000  Uiso   1.00
C4     C     0.51933   0.91090   0.27849   0.00000  Uiso   1.00
C5     C     0.51247   0.94371   0.28008   0.00000  Uiso   1.00
C6     C     0.51581   0.61173   0.27167   0.00000  Uiso   1.00
C7     C     0.52269   0.57892   0.27308   0.00000  Uiso   1.00
C8     C     0.48880   0.55752   0.73617   0.00000  Uiso   1.00
C9     C     0.48198   0.59036   0.73397   0.00000  Uiso   1.00
H10    H     0.56111   0.98881   0.90777   0.00000  Uiso   1.00
H11    H     0.57301   0.93034   0.90428   0.00000  Uiso   1.00
H12    H     0.50705   0.88868   0.10458   0.00000  Uiso   1.00
H13    H     0.49503   0.94707   0.10655   0.00000  Uiso   1.00
H14    H     0.52685   0.63316   0.09253   0.00000  Uiso   1.00
H15    H     0.53888   0.57478   0.09425   0.00000  Uiso   1.00
H16    H     0.47854   0.53666   0.91883   0.00000  Uiso   1.00
H17    H     0.46662   0.59511   0.91556   0.00000  Uiso   1.00
C18    C     0.45820   0.09371   0.50000   0.00000  Uiso   1.00
N19    N     0.45181   0.12693   0.50000   0.00000  Uiso   1.00
C20    C     0.48288   0.16325   0.50000   0.00000  Uiso   1.00
C21    C     0.48157   0.20144   0.50000   0.00000  Uiso   1.00
C22    C     0.51837   0.23814   0.50000   0.00000  Uiso   1.00
C23    C     0.51839   0.27493   0.50000   0.00000  Uiso   1.00
C24    C     0.48169   0.27493   0.50000   0.00000  Uiso   1.00
C25    C     0.44490   0.23823   0.50000   0.00000  Uiso   1.00
C26    C     0.44488   0.20144   0.50000   0.00000  Uiso   1.00
C27    C     0.48038   0.31313   0.50000   0.00000  Uiso   1.00
N28    N     0.51146   0.34944   0.50000   0.00000  Uiso   1.00
C29    C     0.50506   0.38267   0.50000   0.00000  Uiso   1.00
C30    C     0.49095   0.44825   0.50000   0.00000  Uiso   1.00
H31    H     0.51355   0.16600   0.50000   0.00000  Uiso   1.00
H32    H     0.54710   0.23852   0.50000   0.00000  Uiso   1.00
H33    H     0.54706   0.30334   0.50000   0.00000  Uiso   1.00
H34    H     0.41617   0.23786   0.50000   0.00000  Uiso   1.00
H35    H     0.41621   0.17304   0.50000   0.00000  Uiso   1.00
H36    H     0.44972   0.30955   0.50000   0.00000  Uiso   1.00
C37    C     0.51408   0.52035   0.50000   0.00000  Uiso   1.00
loop_
_geom_bond_atom_site_label_1
_geom_bond_atom_site_label_2
_geom_bond_distance
_geom_bond_site_symmetry_2
_ccdc_geom_bond_type
C1     C2      1.424   4_665 S
C1     C37     1.466   2_655 S
C1     C5      1.361   4_665 D
C2     C3      1.396   .     D
C2     H10     1.085   .     S
C2     C1      1.424   4_665 S
C3     H11     1.085   .     S
C3     C18     1.395   4_665 S
C4     C5      1.396   .     S
C4     H12     1.085   .     S
C4     C18     1.396   4_665 D
C5     H13     1.085   .     S
C5     C1      1.361   4_665 D
C6     C7      1.396   .     S
C6     H14     1.085   .     S
C6     C29     1.395   4_665 D
C7     H15     1.085   .     S
C7     C30     1.374   4_665 D
C8     C9      1.396   .     D
C8     H16     1.085   .     S
C8     C30     1.410   4_665 S
C9     H17     1.085   .     S
C9     C29     1.395   4_665 S
C18    N19     1.400   .     S
C18    C3      1.395   4_665 S
C18    C4      1.396   4_665 D
N19    C20     1.292   .     D
C20    C21     1.477   .     S
C20    H31     1.117   .     S
C21    C22     1.397   .     S
C21    C26     1.394   .     D
C22    C23     1.398   .     D
C22    H32     1.085   .     S
C23    C24     1.395   .     S
C23    H33     1.085   .     S
C24    C25     1.396   .     D
C24    C27     1.477   .     S
C25    C26     1.398   .     S
C25    H34     1.085   .     S
C26    H35     1.084   .     S
C27    N28     1.292   .     D
C27    H36     1.103   .     S
N28    C29     1.400   .     S
C29    C6      1.395   4_665 D
C29    C9      1.395   4_665 S
C30    C7      1.374   4_665 D
C30    C8      1.410   4_665 S
C30    C37     1.299   4_665 S
C37    C1      1.466   3_665 S
C37    C30     1.299   4_665 S
C37    C37     1.372   4_665 D
