data_131
_audit_creation_date              2023-09-08
_audit_creation_method            'Materials Studio'
_symmetry_space_group_name_H-M    'P1'
_symmetry_Int_Tables_number       1
_symmetry_cell_setting            triclinic
loop_
_symmetry_equiv_pos_as_xyz
  x,y,z
_cell_length_a                    32.9600
_cell_length_b                    32.9600
_cell_length_c                    3.6000
_cell_angle_alpha                 90.0000
_cell_angle_beta                  90.0000
_cell_angle_gamma                 120.0000
loop_
_atom_site_label
_atom_site_type_symbol
_atom_site_fract_x
_atom_site_fract_y
_atom_site_fract_z
_atom_site_U_iso_or_equiv
_atom_site_adp_type
_atom_site_occupancy
C1     C     0.01298   0.55184   0.49924   0.00000  Uiso   1.00
C2     C     0.96115   0.51298   0.49873   0.00000  Uiso   1.00
C3     C     0.94818   0.46115   0.50006   0.00000  Uiso   1.00
C4     C     0.10366   0.57771   0.50012   0.00000  Uiso   1.00
O5     O     0.11645   0.62856   0.49929   0.00000  Uiso   1.00
N6     N     0.85830   0.43507   0.49947   0.00000  Uiso   1.00
N7     N     0.19156   0.60212   0.50011   0.00000  Uiso   1.00
C8     C     0.22952   0.58920   0.49989   0.00000  Uiso   1.00
C9     C     0.28143   0.62787   0.49975   0.00000  Uiso   1.00
C10    C     0.29475   0.67982   0.49989   0.00000  Uiso   1.00
O11    O     0.25697   0.69299   0.49988   0.00000  Uiso   1.00
O12    O     0.07701   0.47437   0.50210   0.00000  Uiso   1.00
C13    C     0.05608   0.42185   0.49648   0.00000  Uiso   1.00
C14    C     0.09606   0.41046   0.49610   0.00000  Uiso   1.00
C15    C     0.08476   0.35913   0.50364   0.00000  Uiso   1.00
H16    H     0.02259   0.59021   0.50000   0.00000  Uiso   1.00
H17    H     0.86770   0.47245   0.50000   0.00000  Uiso   1.00
H18    H     0.20106   0.63953   0.50000   0.00000  Uiso   1.00
H19    H     0.21977   0.55079   0.50000   0.00000  Uiso   1.00
H20    H     0.03384   0.40686   0.73584   0.00000  Uiso   1.00
H21    H     0.03328   0.40597   0.25321   0.00000  Uiso   1.00
H22    H     0.13407   0.44005   0.50000   0.00000  Uiso   1.00
H23    H     0.05071   0.33049   0.50000   0.00000  Uiso   1.00
H24    H     0.11043   0.34978   0.50000   0.00000  Uiso   1.00
C25    C     0.44816   0.46114   0.49924   0.00000  Uiso   1.00
C26    C     0.48702   0.44817   0.49873   0.00000  Uiso   1.00
C27    C     0.53885   0.48703   0.50006   0.00000  Uiso   1.00
C28    C     0.42229   0.52595   0.50012   0.00000  Uiso   1.00
O29    O     0.37144   0.48789   0.49929   0.00000  Uiso   1.00
N30    N     0.56493   0.42323   0.49947   0.00000  Uiso   1.00
N31    N     0.39788   0.58944   0.50011   0.00000  Uiso   1.00
C32    C     0.41080   0.64032   0.49989   0.00000  Uiso   1.00
C33    C     0.37213   0.65356   0.49975   0.00000  Uiso   1.00
C34    C     0.32018   0.61493   0.49989   0.00000  Uiso   1.00
O35    O     0.30701   0.56398   0.49988   0.00000  Uiso   1.00
O36    O     0.52563   0.60264   0.50210   0.00000  Uiso   1.00
C37    C     0.57815   0.63423   0.49648   0.00000  Uiso   1.00
C38    C     0.58954   0.68560   0.49610   0.00000  Uiso   1.00
C39    C     0.64087   0.72563   0.50364   0.00000  Uiso   1.00
H40    H     0.40979   0.43238   0.50000   0.00000  Uiso   1.00
H41    H     0.52755   0.39525   0.50000   0.00000  Uiso   1.00
H42    H     0.36047   0.56153   0.50000   0.00000  Uiso   1.00
H43    H     0.44921   0.66898   0.50000   0.00000  Uiso   1.00
H44    H     0.59314   0.62698   0.73584   0.00000  Uiso   1.00
H45    H     0.59403   0.62731   0.25321   0.00000  Uiso   1.00
H46    H     0.55995   0.69402   0.50000   0.00000  Uiso   1.00
H47    H     0.66951   0.72022   0.50000   0.00000  Uiso   1.00
H48    H     0.65022   0.76065   0.50000   0.00000  Uiso   1.00
C49    C     0.53886   0.98702   0.49924   0.00000  Uiso   1.00
C50    C     0.55183   0.03885   0.49873   0.00000  Uiso   1.00
C51    C     0.51297   0.05182   0.50006   0.00000  Uiso   1.00
C52    C     0.47405   0.89634   0.50012   0.00000  Uiso   1.00
O53    O     0.51211   0.88355   0.49929   0.00000  Uiso   1.00
N54    N     0.57677   0.14170   0.49947   0.00000  Uiso   1.00
N55    N     0.41056   0.80844   0.50011   0.00000  Uiso   1.00
C56    C     0.35968   0.77048   0.49989   0.00000  Uiso   1.00
C57    C     0.34644   0.71857   0.49975   0.00000  Uiso   1.00
C58    C     0.38507   0.70525   0.49989   0.00000  Uiso   1.00
O59    O     0.43602   0.74303   0.49988   0.00000  Uiso   1.00
O60    O     0.39736   0.92299   0.50210   0.00000  Uiso   1.00
C61    C     0.36577   0.94392   0.49648   0.00000  Uiso   1.00
C62    C     0.31440   0.90394   0.49610   0.00000  Uiso   1.00
C63    C     0.27437   0.91524   0.50364   0.00000  Uiso   1.00
H64    H     0.56762   0.97741   0.50000   0.00000  Uiso   1.00
H65    H     0.60475   0.13230   0.50000   0.00000  Uiso   1.00
H66    H     0.43847   0.79894   0.50000   0.00000  Uiso   1.00
H67    H     0.33102   0.78023   0.50000   0.00000  Uiso   1.00
H68    H     0.37302   0.96616   0.73584   0.00000  Uiso   1.00
H69    H     0.37269   0.96672   0.25321   0.00000  Uiso   1.00
H70    H     0.30598   0.86593   0.50000   0.00000  Uiso   1.00
H71    H     0.27978   0.94929   0.50000   0.00000  Uiso   1.00
H72    H     0.23935   0.88957   0.50000   0.00000  Uiso   1.00
C73    C     0.98702   0.44816   0.50076   0.00000  Uiso   1.00
C74    C     0.03885   0.48702   0.50127   0.00000  Uiso   1.00
C75    C     0.05182   0.53885   0.49994   0.00000  Uiso   1.00
C76    C     0.89634   0.42229   0.49988   0.00000  Uiso   1.00
O77    O     0.88355   0.37144   0.50071   0.00000  Uiso   1.00
N78    N     0.14170   0.56493   0.50053   0.00000  Uiso   1.00
N79    N     0.80844   0.39788   0.49989   0.00000  Uiso   1.00
C80    C     0.77048   0.41080   0.50011   0.00000  Uiso   1.00
C81    C     0.71857   0.37213   0.50025   0.00000  Uiso   1.00
C82    C     0.70525   0.32018   0.50011   0.00000  Uiso   1.00
O83    O     0.74303   0.30701   0.50012   0.00000  Uiso   1.00
O84    O     0.92299   0.52563   0.49790   0.00000  Uiso   1.00
C85    C     0.94392   0.57815   0.50352   0.00000  Uiso   1.00
C86    C     0.90394   0.58954   0.50390   0.00000  Uiso   1.00
C87    C     0.91524   0.64087   0.49636   0.00000  Uiso   1.00
H88    H     0.97741   0.40979   0.50000   0.00000  Uiso   1.00
H89    H     0.13230   0.52755   0.50000   0.00000  Uiso   1.00
H90    H     0.79894   0.36047   0.50000   0.00000  Uiso   1.00
H91    H     0.78023   0.44921   0.50000   0.00000  Uiso   1.00
H92    H     0.96616   0.59314   0.26416   0.00000  Uiso   1.00
H93    H     0.96672   0.59403   0.74679   0.00000  Uiso   1.00
H94    H     0.86593   0.55995   0.50000   0.00000  Uiso   1.00
H95    H     0.94929   0.66951   0.50000   0.00000  Uiso   1.00
H96    H     0.88957   0.65022   0.50000   0.00000  Uiso   1.00
C97    C     0.55184   0.53886   0.50076   0.00000  Uiso   1.00
C98    C     0.51298   0.55183   0.50127   0.00000  Uiso   1.00
C99    C     0.46115   0.51297   0.49994   0.00000  Uiso   1.00
C100   C     0.57771   0.47405   0.49988   0.00000  Uiso   1.00
O101   O     0.62856   0.51211   0.50071   0.00000  Uiso   1.00
N102   N     0.43507   0.57677   0.50053   0.00000  Uiso   1.00
N103   N     0.60212   0.41056   0.49989   0.00000  Uiso   1.00
C104   C     0.58920   0.35968   0.50011   0.00000  Uiso   1.00
C105   C     0.62787   0.34644   0.50025   0.00000  Uiso   1.00
C106   C     0.67982   0.38507   0.50011   0.00000  Uiso   1.00
O107   O     0.69299   0.43602   0.50012   0.00000  Uiso   1.00
O108   O     0.47437   0.39736   0.49790   0.00000  Uiso   1.00
C109   C     0.42185   0.36577   0.50352   0.00000  Uiso   1.00
C110   C     0.41046   0.31440   0.50390   0.00000  Uiso   1.00
C111   C     0.35913   0.27437   0.49636   0.00000  Uiso   1.00
H112   H     0.59021   0.56762   0.50000   0.00000  Uiso   1.00
H113   H     0.47245   0.60475   0.50000   0.00000  Uiso   1.00
H114   H     0.63953   0.43847   0.50000   0.00000  Uiso   1.00
H115   H     0.55079   0.33102   0.50000   0.00000  Uiso   1.00
H116   H     0.40686   0.37302   0.26416   0.00000  Uiso   1.00
H117   H     0.40597   0.37269   0.74679   0.00000  Uiso   1.00
H118   H     0.44005   0.30598   0.50000   0.00000  Uiso   1.00
H119   H     0.33049   0.27978   0.50000   0.00000  Uiso   1.00
H120   H     0.34978   0.23935   0.50000   0.00000  Uiso   1.00
C121   C     0.46114   0.01298   0.50076   0.00000  Uiso   1.00
C122   C     0.44817   0.96115   0.50127   0.00000  Uiso   1.00
C123   C     0.48703   0.94818   0.49994   0.00000  Uiso   1.00
C124   C     0.52595   0.10366   0.49988   0.00000  Uiso   1.00
O125   O     0.48789   0.11645   0.50071   0.00000  Uiso   1.00
N126   N     0.42323   0.85830   0.50053   0.00000  Uiso   1.00
N127   N     0.58944   0.19156   0.49989   0.00000  Uiso   1.00
C128   C     0.64032   0.22952   0.50011   0.00000  Uiso   1.00
C129   C     0.65356   0.28143   0.50025   0.00000  Uiso   1.00
C130   C     0.61493   0.29475   0.50011   0.00000  Uiso   1.00
O131   O     0.56398   0.25697   0.50012   0.00000  Uiso   1.00
O132   O     0.60264   0.07701   0.49790   0.00000  Uiso   1.00
C133   C     0.63423   0.05608   0.50352   0.00000  Uiso   1.00
C134   C     0.68560   0.09606   0.50390   0.00000  Uiso   1.00
C135   C     0.72563   0.08476   0.49636   0.00000  Uiso   1.00
H136   H     0.43238   0.02259   0.50000   0.00000  Uiso   1.00
H137   H     0.39525   0.86770   0.50000   0.00000  Uiso   1.00
H138   H     0.56153   0.20106   0.50000   0.00000  Uiso   1.00
H139   H     0.66898   0.21977   0.50000   0.00000  Uiso   1.00
H140   H     0.62698   0.03384   0.26416   0.00000  Uiso   1.00
H141   H     0.62731   0.03328   0.74679   0.00000  Uiso   1.00
H142   H     0.69402   0.13407   0.50000   0.00000  Uiso   1.00
H143   H     0.72022   0.05071   0.50000   0.00000  Uiso   1.00
H144   H     0.76065   0.11043   0.50000   0.00000  Uiso   1.00
loop_
_geom_bond_atom_site_label_1
_geom_bond_atom_site_label_2
_geom_bond_distance
_geom_bond_site_symmetry_2
_ccdc_geom_bond_type
C1     C2      1.540   1_455 S
C1     H16     1.140   .     S
C1     C75     1.540   .     D
C2     C1      1.540   1_655 S
C2     C3      1.540   .     D
C2     O84     1.510   .     S
C3     C73     1.540   .     S
C3     C76     1.540   .     S
C4     O5      1.510   .     D
C4     C75     1.540   .     S
C4     N78     1.509   .     S
N6     H17     1.110   .     S
N6     C76     1.509   .     S
N6     N79     1.479   .     S
N7     C8      1.510   .     S
N7     H18     1.110   .     S
N7     N78     1.479   .     S
C8     C9      1.540   .     D
C8     H19     1.140   .     S
C9     C10     1.540   .     S
C9     C34     1.536   .     S
C10    O11     1.510   .     D
C10    C57     1.536   .     S
O12    C13     1.510   .     S
O12    C74     1.510   .     S
C13    C14     1.540   .     S
C13    H20     1.078   .     S
C13    H21     1.101   .     S
C14    C15     1.540   .     D
C14    H22     1.140   .     S
C15    H23     1.045   .     S
C15    H24     1.035   .     S
C25    C26     1.540   .     D
C25    H40     1.140   .     S
C25    C99     1.540   .     S
C26    C27     1.540   .     S
C26    O108    1.510   .     S
C27    C97     1.540   .     D
C27    C100    1.540   .     S
C28    O29     1.510   .     D
C28    C99     1.540   .     S
C28    N102    1.509   .     S
N30    H41     1.110   .     S
N30    C100    1.509   .     S
N30    N103    1.479   .     S
N31    C32     1.510   .     S
N31    H42     1.110   .     S
N31    N102    1.479   .     S
C32    C33     1.540   .     D
C32    H43     1.140   .     S
C33    C34     1.540   .     S
C33    C58     1.536   .     S
C34    O35     1.510   .     D
O36    C37     1.510   .     S
O36    C98     1.510   .     S
C37    C38     1.540   .     S
C37    H44     1.078   .     S
C37    H45     1.101   .     S
C38    C39     1.540   .     D
C38    H46     1.140   .     S
C39    H47     1.045   .     S
C39    H48     1.035   .     S
C49    C50     1.540   1_565 D
C49    H64     1.140   .     S
C49    C123    1.540   .     S
C50    C49     1.540   1_545 D
C50    C51     1.540   .     S
C50    O132    1.510   .     S
C51    C121    1.540   .     D
C51    C124    1.540   .     S
C52    O53     1.510   .     D
C52    C123    1.540   .     S
C52    N126    1.509   .     S
N54    H65     1.110   .     S
N54    C124    1.509   .     S
N54    N127    1.479   .     S
N55    C56     1.510   .     S
N55    H66     1.110   .     S
N55    N126    1.479   .     S
C56    C57     1.540   .     D
C56    H67     1.140   .     S
C57    C58     1.540   .     S
C58    O59     1.510   .     D
O60    C61     1.510   .     S
O60    C122    1.510   .     S
C61    C62     1.540   .     S
C61    H68     1.078   .     S
C61    H69     1.101   .     S
C62    C63     1.540   .     D
C62    H70     1.140   .     S
C63    H71     1.045   .     S
C63    H72     1.035   .     S
C73    C74     1.540   1_655 D
C73    H88     1.140   .     S
C74    C73     1.540   1_455 D
C74    C75     1.540   .     S
C76    O77     1.510   .     D
N78    H89     1.110   .     S
N79    C80     1.510   .     S
N79    H90     1.110   .     S
C80    C81     1.540   .     D
C80    H91     1.140   .     S
C81    C82     1.540   .     S
C81    C106    1.536   .     S
C82    O83     1.510   .     D
C82    C129    1.536   .     S
O84    C85     1.510   .     S
C85    C86     1.540   .     S
C85    H92     1.078   .     S
C85    H93     1.101   .     S
C86    C87     1.540   .     D
C86    H94     1.140   .     S
C87    H95     1.045   .     S
C87    H96     1.035   .     S
C97    C98     1.540   .     S
C97    H112    1.140   .     S
C98    C99     1.540   .     D
C100   O101    1.510   .     D
N102   H113    1.110   .     S
N103   C104    1.510   .     S
N103   H114    1.110   .     S
C104   C105    1.540   .     D
C104   H115    1.140   .     S
C105   C106    1.540   .     S
C105   C130    1.536   .     S
C106   O107    1.510   .     D
O108   C109    1.510   .     S
C109   C110    1.540   .     S
C109   H116    1.078   .     S
C109   H117    1.101   .     S
C110   C111    1.540   .     D
C110   H118    1.140   .     S
C111   H119    1.045   .     S
C111   H120    1.035   .     S
C121   C122    1.540   1_545 S
C121   H136    1.140   .     S
C122   C121    1.540   1_565 S
C122   C123    1.540   .     D
C124   O125    1.510   .     D
N126   H137    1.110   .     S
N127   C128    1.510   .     S
N127   H138    1.110   .     S
C128   C129    1.540   .     D
C128   H139    1.140   .     S
C129   C130    1.540   .     S
C130   O131    1.510   .     D
O132   C133    1.510   .     S
C133   C134    1.540   .     S
C133   H140    1.078   .     S
C133   H141    1.101   .     S
C134   C135    1.540   .     D
C134   H142    1.140   .     S
C135   H143    1.045   .     S
C135   H144    1.035   .     S
