data_132
_audit_creation_date              2023-09-08
_audit_creation_method            'Materials Studio'
_symmetry_space_group_name_H-M    'P1'
_symmetry_Int_Tables_number       1
_symmetry_cell_setting            triclinic
loop_
_symmetry_equiv_pos_as_xyz
  x,y,z
_cell_length_a                    31.8230
_cell_length_b                    31.8230
_cell_length_c                    3.7000
_cell_angle_alpha                 90.0000
_cell_angle_beta                  90.0000
_cell_angle_gamma                 120.0000
loop_
_atom_site_label
_atom_site_type_symbol
_atom_site_fract_x
_atom_site_fract_y
_atom_site_fract_z
_atom_site_U_iso_or_equiv
_atom_site_adp_type
_atom_site_occupancy
C1     C     0.61574   0.30387  -0.01360   0.00000  Uiso   1.00
C2     C     0.64445   0.28081  -0.01286   0.00000  Uiso   1.00
C3     C     0.62213   0.22476  -0.03221   0.00000  Uiso   1.00
O4     O     0.64833   0.20926  -0.13119   0.00000  Uiso   1.00
N5     N     0.57387   0.19160   0.05579   0.00000  Uiso   1.00
N6     N     0.54803   0.13938   0.03002   0.00000  Uiso   1.00
C7     C     0.56435   0.10856   0.01490   0.00000  Uiso   1.00
C8     C     0.53074   0.05297   0.00714   0.00000  Uiso   1.00
C9     C     0.55034   0.02155   0.00620   0.00000  Uiso   1.00
C10    C     0.47952   0.03001   0.00635   0.00000  Uiso   1.00
H11    H     0.57671   0.28160  -0.02398   0.00000  Uiso   1.00
H12    H     0.55263   0.20624   0.13953   0.00000  Uiso   1.00
H13    H     0.60300   0.12224   0.02409   0.00000  Uiso   1.00
H14    H     0.58934   0.03700   0.00726   0.00000  Uiso   1.00
H15    H     0.46226   0.05193   0.00749   0.00000  Uiso   1.00
C16    C     0.69613   0.31187  -0.01360   0.00000  Uiso   1.00
C17    C     0.71920   0.36365  -0.01286   0.00000  Uiso   1.00
C18    C     0.77524   0.39737  -0.03221   0.00000  Uiso   1.00
O19    O     0.79074   0.43908  -0.13119   0.00000  Uiso   1.00
N20    N     0.80840   0.38227   0.05579   0.00000  Uiso   1.00
N21    N     0.86062   0.40865   0.03002   0.00000  Uiso   1.00
C22    C     0.89144   0.45579   0.01490   0.00000  Uiso   1.00
C23    C     0.94703   0.47777   0.00714   0.00000  Uiso   1.00
C24    C     0.97846   0.52880   0.00620   0.00000  Uiso   1.00
C25    C     0.96999   0.44950   0.00635   0.00000  Uiso   1.00
H26    H     0.71840   0.29511  -0.02398   0.00000  Uiso   1.00
H27    H     0.79376   0.34639   0.13953   0.00000  Uiso   1.00
H28    H     0.87776   0.48075   0.02409   0.00000  Uiso   1.00
H29    H     0.96300   0.55234   0.00726   0.00000  Uiso   1.00
H30    H     0.94807   0.41033   0.00749   0.00000  Uiso   1.00
C31    C     0.68813   0.38426  -0.01360   0.00000  Uiso   1.00
C32    C     0.63635   0.35555  -0.01286   0.00000  Uiso   1.00
C33    C     0.60263   0.37787  -0.03221   0.00000  Uiso   1.00
O34    O     0.56092   0.35167  -0.13119   0.00000  Uiso   1.00
N35    N     0.61773   0.42613   0.05579   0.00000  Uiso   1.00
N36    N     0.59135   0.45197   0.03002   0.00000  Uiso   1.00
C37    C     0.54421   0.43565   0.01490   0.00000  Uiso   1.00
C38    C     0.52223   0.46926   0.00714   0.00000  Uiso   1.00
C39    C     0.47120   0.44966   0.00620   0.00000  Uiso   1.00
C40    C     0.55050   0.52048   0.00635   0.00000  Uiso   1.00
H41    H     0.70489   0.42329  -0.02398   0.00000  Uiso   1.00
H42    H     0.65362   0.44737   0.13953   0.00000  Uiso   1.00
H43    H     0.51925   0.39700   0.02409   0.00000  Uiso   1.00
H44    H     0.44766   0.41066   0.00726   0.00000  Uiso   1.00
H45    H     0.58967   0.53774   0.00749   0.00000  Uiso   1.00
C46    C     0.38426   0.69613  -0.01360   0.00000  Uiso   1.00
C47    C     0.35555   0.71920  -0.01286   0.00000  Uiso   1.00
C48    C     0.37787   0.77524  -0.03221   0.00000  Uiso   1.00
O49    O     0.35167   0.79074  -0.13119   0.00000  Uiso   1.00
N50    N     0.42613   0.80840   0.05579   0.00000  Uiso   1.00
N51    N     0.45197   0.86062   0.03002   0.00000  Uiso   1.00
C52    C     0.43565   0.89144   0.01490   0.00000  Uiso   1.00
C53    C     0.46926   0.94703   0.00714   0.00000  Uiso   1.00
C54    C     0.44966   0.97846   0.00620   0.00000  Uiso   1.00
C55    C     0.52048   0.96999   0.00635   0.00000  Uiso   1.00
H56    H     0.42329   0.71840  -0.02398   0.00000  Uiso   1.00
H57    H     0.44737   0.79376   0.13953   0.00000  Uiso   1.00
H58    H     0.39700   0.87776   0.02409   0.00000  Uiso   1.00
H59    H     0.41066   0.96300   0.00726   0.00000  Uiso   1.00
H60    H     0.53774   0.94807   0.00749   0.00000  Uiso   1.00
C61    C     0.30387   0.68813  -0.01360   0.00000  Uiso   1.00
C62    C     0.28081   0.63635  -0.01286   0.00000  Uiso   1.00
C63    C     0.22476   0.60263  -0.03221   0.00000  Uiso   1.00
O64    O     0.20926   0.56092  -0.13119   0.00000  Uiso   1.00
N65    N     0.19160   0.61773   0.05579   0.00000  Uiso   1.00
N66    N     0.13938   0.59135   0.03002   0.00000  Uiso   1.00
C67    C     0.10856   0.54421   0.01490   0.00000  Uiso   1.00
C68    C     0.05297   0.52223   0.00714   0.00000  Uiso   1.00
C69    C     0.02155   0.47121   0.00620   0.00000  Uiso   1.00
C70    C     0.03001   0.55050   0.00635   0.00000  Uiso   1.00
H71    H     0.28160   0.70489  -0.02398   0.00000  Uiso   1.00
H72    H     0.20624   0.65362   0.13953   0.00000  Uiso   1.00
H73    H     0.12224   0.51925   0.02409   0.00000  Uiso   1.00
H74    H     0.03700   0.44766   0.00726   0.00000  Uiso   1.00
H75    H     0.05193   0.58967   0.00749   0.00000  Uiso   1.00
C76    C     0.31187   0.61574  -0.01360   0.00000  Uiso   1.00
C77    C     0.36365   0.64445  -0.01286   0.00000  Uiso   1.00
C78    C     0.39737   0.62213  -0.03221   0.00000  Uiso   1.00
O79    O     0.43908   0.64833  -0.13119   0.00000  Uiso   1.00
N80    N     0.38227   0.57387   0.05579   0.00000  Uiso   1.00
N81    N     0.40865   0.54803   0.03002   0.00000  Uiso   1.00
C82    C     0.45579   0.56435   0.01490   0.00000  Uiso   1.00
C83    C     0.47777   0.53074   0.00714   0.00000  Uiso   1.00
C84    C     0.52880   0.55034   0.00620   0.00000  Uiso   1.00
C85    C     0.44950   0.47952   0.00635   0.00000  Uiso   1.00
H86    H     0.29511   0.57671  -0.02398   0.00000  Uiso   1.00
H87    H     0.34639   0.55263   0.13953   0.00000  Uiso   1.00
H88    H     0.48075   0.60300   0.02409   0.00000  Uiso   1.00
H89    H     0.55234   0.58934   0.00726   0.00000  Uiso   1.00
H90    H     0.41033   0.46226   0.00749   0.00000  Uiso   1.00
loop_
_geom_bond_atom_site_label_1
_geom_bond_atom_site_label_2
_geom_bond_distance
_geom_bond_site_symmetry_2
_ccdc_geom_bond_type
C1     C2      1.430   .     D
C1     H11     1.080   .     S
C1     C32     1.434   .     S
C2     C3      1.557   .     S
C2     C16     1.434   .     S
C3     O4      1.218   .     D
C3     N5      1.399   .     S
N5     N6      1.442   .     S
N5     H12     1.042   .     S
N6     C7      1.321   .     D
C7     C8      1.543   .     S
C7     H13     1.081   .     S
C8     C9      1.419   .     D
C8     C10     1.414   .     S
C9     H14     1.083   .     S
C9     C55     1.427   1_545 S
C10    H15     1.082   .     S
C10    C54     1.427   1_545 D
C16    C17     1.430   .     D
C16    H26     1.080   .     S
C17    C18     1.557   .     S
C17    C31     1.434   .     S
C18    O19     1.218   .     D
C18    N20     1.399   .     S
N20    N21     1.442   .     S
N20    H27     1.042   .     S
N21    C22     1.321   .     D
C22    C23     1.543   .     S
C22    H28     1.081   .     S
C23    C24     1.419   .     D
C23    C25     1.414   .     S
C24    H29     1.083   .     S
C24    C70     1.427   1_655 S
C25    H30     1.082   .     S
C25    C69     1.427   1_655 D
C31    C32     1.430   .     D
C31    H41     1.080   .     S
C32    C33     1.557   .     S
C33    O34     1.218   .     D
C33    N35     1.399   .     S
N35    N36     1.442   .     S
N35    H42     1.042   .     S
N36    C37     1.321   .     D
C37    C38     1.543   .     S
C37    H43     1.081   .     S
C38    C39     1.419   .     D
C38    C40     1.414   .     S
C39    H44     1.083   .     S
C39    C85     1.427   .     S
C40    H45     1.082   .     S
C40    C84     1.427   .     D
C46    C47     1.430   .     S
C46    H56     1.080   .     S
C46    C77     1.434   .     D
C47    C48     1.557   .     S
C47    C61     1.434   .     D
C48    O49     1.218   .     D
C48    N50     1.399   .     S
N50    N51     1.442   .     S
N50    H57     1.042   .     S
N51    C52     1.321   .     D
C52    C53     1.543   .     S
C52    H58     1.081   .     S
C53    C54     1.419   .     S
C53    C55     1.414   .     D
C54    C10     1.427   1_565 D
C54    H59     1.083   .     S
C55    C9      1.427   1_565 S
C55    H60     1.082   .     S
C61    C62     1.430   .     S
C61    H71     1.080   .     S
C62    C63     1.557   .     S
C62    C76     1.434   .     D
C63    O64     1.218   .     D
C63    N65     1.399   .     S
N65    N66     1.442   .     S
N65    H72     1.042   .     S
N66    C67     1.321   .     D
C67    C68     1.543   .     S
C67    H73     1.081   .     S
C68    C69     1.419   .     S
C68    C70     1.414   .     D
C69    C25     1.427   1_455 D
C69    H74     1.083   .     S
C70    C24     1.427   1_455 S
C70    H75     1.082   .     S
C76    C77     1.430   .     S
C76    H86     1.080   .     S
C77    C78     1.557   .     S
C78    O79     1.218   .     D
C78    N80     1.399   .     S
N80    N81     1.442   .     S
N80    H87     1.042   .     S
N81    C82     1.321   .     D
C82    C83     1.543   .     S
C82    H88     1.081   .     S
C83    C84     1.419   .     S
C83    C85     1.414   .     D
C84    H89     1.083   .     S
C85    H90     1.082   .     S
