data_135
_audit_creation_date              2023-09-08
_audit_creation_method            'Materials Studio'
_symmetry_space_group_name_H-M    'P1'
_symmetry_Int_Tables_number       1
_symmetry_cell_setting            triclinic
loop_
_symmetry_equiv_pos_as_xyz
  x,y,z
_cell_length_a                    46.8300
_cell_length_b                    46.8300
_cell_length_c                    4.5000
_cell_angle_alpha                 90.0000
_cell_angle_beta                  90.0000
_cell_angle_gamma                 120.0000
loop_
_atom_site_label
_atom_site_type_symbol
_atom_site_fract_x
_atom_site_fract_y
_atom_site_fract_z
_atom_site_U_iso_or_equiv
_atom_site_adp_type
_atom_site_occupancy
C1     C     0.48957   0.48749   1.05924   0.00000  Uiso   1.00
C2     C     0.51863   0.51736   1.06567   0.00000  Uiso   1.00
C3     C     0.52004   0.55043   1.05538   0.00000  Uiso   1.00
C4     C     0.55215   0.52009   1.07370   0.00000  Uiso   1.00
C5     C     0.48776   0.45438   1.06261   0.00000  Uiso   1.00
C6     C     0.45624   0.48481   1.04319   0.00000  Uiso   1.00
C7     C     0.54582   0.57668   0.90071   0.00000  Uiso   1.00
C8     C     0.54782   0.60698   0.88127   0.00000  Uiso   1.00
C9     C     0.52456   0.61297   1.01882   0.00000  Uiso   1.00
C10    C     0.49923   0.58704   1.17969   0.00000  Uiso   1.00
C11    C     0.49702   0.55661   1.19688   0.00000  Uiso   1.00
C12    C     0.55986   0.50001   0.90118   0.00000  Uiso   1.00
C13    C     0.59100   0.50382   0.90628   0.00000  Uiso   1.00
C14    C     0.61602   0.52794   1.08293   0.00000  Uiso   1.00
C15    C     0.60837   0.54818   1.25500   0.00000  Uiso   1.00
C16    C     0.57725   0.54445   1.24909   0.00000  Uiso   1.00
C17    C     0.44982   0.50411   0.84805   0.00000  Uiso   1.00
C18    C     0.41904   0.50109   0.83473   0.00000  Uiso   1.00
C19    C     0.39311   0.47818   1.01219   0.00000  Uiso   1.00
C20    C     0.39941   0.45826   1.20290   0.00000  Uiso   1.00
C21    C     0.43026   0.46146   1.21783   0.00000  Uiso   1.00
C22    C     0.46326   0.42826   0.89608   0.00000  Uiso   1.00
C23    C     0.46025   0.39745   0.90067   0.00000  Uiso   1.00
C24    C     0.48164   0.39128   1.06975   0.00000  Uiso   1.00
C25    C     0.50599   0.41731   1.23736   0.00000  Uiso   1.00
C26    C     0.50879   0.44803   1.23541   0.00000  Uiso   1.00
N27    N     0.52757   0.64411   0.99154   0.00000  Uiso   1.00
N28    N     0.64727   0.53101   1.07839   0.00000  Uiso   1.00
N29    N     0.47780   0.35973   1.07330   0.00000  Uiso   1.00
N30    N     0.36239   0.47618   0.99316   0.00000  Uiso   1.00
C31    C     0.67283   0.54975   1.23806   0.00000  Uiso   1.00
C32    C     0.33620   0.45802   1.14782   0.00000  Uiso   1.00
C33    C     0.70271   0.54861   1.18936   0.00000  Uiso   1.00
C34    C     0.30743   0.46118   1.10051   0.00000  Uiso   1.00
C35    C     0.70513   0.52801   0.97625   0.00000  Uiso   1.00
C36    C     0.73348   0.52683   0.93742   0.00000  Uiso   1.00
C37    C     0.76179   0.54586   1.11531   0.00000  Uiso   1.00
C38    C     0.75944   0.56742   1.32334   0.00000  Uiso   1.00
C39    C     0.73093   0.56846   1.35861   0.00000  Uiso   1.00
C40    C     0.30666   0.48334   0.89439   0.00000  Uiso   1.00
C41    C     0.27922   0.48620   0.85692   0.00000  Uiso   1.00
C42    C     0.25025   0.46696   1.02745   0.00000  Uiso   1.00
C43    C     0.25102   0.44411   1.23207   0.00000  Uiso   1.00
C44    C     0.27877   0.44169   1.26640   0.00000  Uiso   1.00
C45    C     0.79016   0.54135   1.10308   0.00000  Uiso   1.00
C46    C     0.22264   0.47215   1.01021   0.00000  Uiso   1.00
C47    C     0.22682   0.50370   0.94187   0.00000  Uiso   1.00
C48    C     0.20111   0.50964   0.96408   0.00000  Uiso   1.00
C49    C     0.16945   0.48489   1.04719   0.00000  Uiso   1.00
C50    C     0.16483   0.45334   1.10242   0.00000  Uiso   1.00
C51    C     0.19027   0.44695   1.08481   0.00000  Uiso   1.00
C52    C     0.14340   0.49266   1.07604   0.00000  Uiso   1.00
N53    N     0.11360   0.46913   1.12039   0.00000  Uiso   1.00
C54    C     0.08762   0.47437   1.19332   0.00000  Uiso   1.00
C55    C     0.09045   0.49618   1.41964   0.00000  Uiso   1.00
C56    C     0.06420   0.50024   1.49678   0.00000  Uiso   1.00
C57    C     0.03392   0.48305   1.34801   0.00000  Uiso   1.00
C58    C     0.03202   0.46306   1.10744   0.00000  Uiso   1.00
C59    C     0.05778   0.45791   1.03912   0.00000  Uiso   1.00
C60    C     0.00430   0.48625   1.43177   0.00000  Uiso   1.00
C61    C     0.79018   0.51596   0.93048   0.00000  Uiso   1.00
C62    C     0.81525   0.50903   0.94942   0.00000  Uiso   1.00
C63    C     0.84244   0.52696   1.13604   0.00000  Uiso   1.00
C64    C     0.84325   0.55285   1.29983   0.00000  Uiso   1.00
C65    C     0.81841   0.56013   1.28262   0.00000  Uiso   1.00
C66    C     0.86790   0.51825   1.15264   0.00000  Uiso   1.00
N67    N     0.89330   0.53554   1.31915   0.00000  Uiso   1.00
C68    C     0.91978   0.53006   1.35540   0.00000  Uiso   1.00
C69    C     0.91661   0.49891   1.32744   0.00000  Uiso   1.00
C70    C     0.94352   0.49461   1.35374   0.00000  Uiso   1.00
C71    C     0.97526   0.52087   1.41624   0.00000  Uiso   1.00
C72    C     0.97814   0.55222   1.43889   0.00000  Uiso   1.00
C73    C     0.95116   0.55647   1.41412   0.00000  Uiso   1.00
C74    C     0.00559   0.51643   1.42153   0.00000  Uiso   1.00
C75    C     0.03850   0.54764   1.38765   0.00000  Uiso   1.00
C76    C     0.06029   0.55085   1.16101   0.00000  Uiso   1.00
C77    C     0.09080   0.57883   1.13373   0.00000  Uiso   1.00
C78    C     0.10028   0.60601   1.32065   0.00000  Uiso   1.00
C79    C     0.07827   0.60284   1.54757   0.00000  Uiso   1.00
C80    C     0.04856   0.57406   1.58573   0.00000  Uiso   1.00
N81    N     0.13067   0.63486   1.27403   0.00000  Uiso   1.00
C82    C     0.97432   0.45448   0.53752   0.00000  Uiso   1.00
C83    C     0.95443   0.45499   0.76893   0.00000  Uiso   1.00
C84    C     0.92671   0.42648   0.86286   0.00000  Uiso   1.00
C85    C     0.91815   0.39566   0.74253   0.00000  Uiso   1.00
C86    C     0.93895   0.39500   0.52222   0.00000  Uiso   1.00
C87    C     0.96630   0.42337   0.42449   0.00000  Uiso   1.00
N88    N     0.88976   0.36701   0.83995   0.00000  Uiso   1.00
C89    C     0.50771   0.65346   1.09154   0.00000  Uiso   1.00
C90    C     0.51577   0.68723   1.04992   0.00000  Uiso   1.00
C91    C     0.50131   0.35324   1.10862   0.00000  Uiso   1.00
C92    C     0.49324   0.31944   1.14956   0.00000  Uiso   1.00
C93    C     0.54408   0.71086   0.89875   0.00000  Uiso   1.00
C94    C     0.55136   0.74290   0.87074   0.00000  Uiso   1.00
C95    C     0.53009   0.75351   0.99461   0.00000  Uiso   1.00
C96    C     0.50074   0.72893   1.13980   0.00000  Uiso   1.00
C97    C     0.49448   0.69726   1.16772   0.00000  Uiso   1.00
C98    C     0.46068   0.29311   1.16818   0.00000  Uiso   1.00
C99    C     0.45369   0.26137   1.21398   0.00000  Uiso   1.00
C100   C     0.47942   0.25375   1.24091   0.00000  Uiso   1.00
C101   C     0.51241   0.28055   1.21656   0.00000  Uiso   1.00
C102   C     0.51871   0.31212   1.17490   0.00000  Uiso   1.00
C103   C     0.53886   0.78705   1.00483   0.00000  Uiso   1.00
C104   C     0.47283   0.22118   1.30183   0.00000  Uiso   1.00
C105   C     0.44834   0.20027   1.51160   0.00000  Uiso   1.00
C106   C     0.44535   0.17075   1.59511   0.00000  Uiso   1.00
C107   C     0.46560   0.15954   1.47491   0.00000  Uiso   1.00
C108   C     0.48888   0.17950   1.25964   0.00000  Uiso   1.00
C109   C     0.49246   0.20908   1.17335   0.00000  Uiso   1.00
C110   C     0.56742   0.81077   1.16556   0.00000  Uiso   1.00
C111   C     0.57172   0.84120   1.23199   0.00000  Uiso   1.00
C112   C     0.54933   0.85092   1.13706   0.00000  Uiso   1.00
C113   C     0.52217   0.82842   0.96648   0.00000  Uiso   1.00
C114   C     0.51689   0.79767   0.89988   0.00000  Uiso   1.00
C115   C     0.46257   0.12868   1.57057   0.00000  Uiso   1.00
N116   N     0.48415   0.12162   1.47222   0.00000  Uiso   1.00
C117   C     0.48679   0.09333   1.49027   0.00000  Uiso   1.00
C118   C     0.55462   0.88300   1.21959   0.00000  Uiso   1.00
N119   N     0.53332   0.89127   1.13750   0.00000  Uiso   1.00
C120   C     0.53217   0.91958   1.21475   0.00000  Uiso   1.00
C121   C     0.46254   0.06336   1.61103   0.00000  Uiso   1.00
C122   C     0.46592   0.03573   1.60090   0.00000  Uiso   1.00
C123   C     0.49370   0.03675   1.47100   0.00000  Uiso   1.00
C124   C     0.51830   0.06716   1.35977   0.00000  Uiso   1.00
C125   C     0.51484   0.09461   1.36944   0.00000  Uiso   1.00
C126   C     0.55140   0.94102   1.44317   0.00000  Uiso   1.00
C127   C     0.54895   0.96830   1.51645   0.00000  Uiso   1.00
C128   C     0.52722   0.97537   1.36194   0.00000  Uiso   1.00
C129   C     0.50899   0.95482   1.12659   0.00000  Uiso   1.00
C130   C     0.51081   0.92706   1.05997   0.00000  Uiso   1.00
C131   C     0.52485   1.00526   1.44028   0.00000  Uiso   1.00
C132   C     0.49544   1.00540   1.43588   0.00000  Uiso   1.00
C133   C     0.46242   0.97453   1.37852   0.00000  Uiso   1.00
C134   C     0.55739   0.03502   0.51889   0.00000  Uiso   1.00
C135   C     0.43812   0.97687   1.21521   0.00000  Uiso   1.00
C136   C     0.40752   0.94969   1.16530   0.00000  Uiso   1.00
C137   C     0.39969   0.91859   1.27250   0.00000  Uiso   1.00
C138   C     0.42392   0.91605   1.43319   0.00000  Uiso   1.00
C139   C     0.45438   0.94330   1.48769   0.00000  Uiso   1.00
C140   C     0.58630   0.04163   0.36866   0.00000  Uiso   1.00
C141   C     0.61604   0.06900   0.44130   0.00000  Uiso   1.00
C142   C     0.61835   0.09108   0.66315   0.00000  Uiso   1.00
C143   C     0.58935   0.08407   0.81405   0.00000  Uiso   1.00
C144   C     0.55972   0.05629   0.74733   0.00000  Uiso   1.00
N145   N     0.64906   0.11883   0.72502   0.00000  Uiso   1.00
C146   C     0.65669   0.14213   0.91746   0.00000  Uiso   1.00
C147   C     0.69038   0.16902   0.93175   0.00000  Uiso   1.00
C148   C     0.88373   0.33728   0.79073   0.00000  Uiso   1.00
C149   C     0.85168   0.30932   0.85629   0.00000  Uiso   1.00
N150   N     0.36823   0.89133   1.23160   0.00000  Uiso   1.00
C151   C     0.13874   0.66367   1.37773   0.00000  Uiso   1.00
C152   C     0.17063   0.69183   1.31059   0.00000  Uiso   1.00
C153   C     0.36124   0.86491   1.08460   0.00000  Uiso   1.00
C154   C     0.32853   0.83649   1.11134   0.00000  Uiso   1.00
C155   C     0.71540   0.17045   0.74962   0.00000  Uiso   1.00
C156   C     0.74701   0.19631   0.76116   0.00000  Uiso   1.00
C157   C     0.75632   0.22331   0.95799   0.00000  Uiso   1.00
C158   C     0.73105   0.22135   1.14624   0.00000  Uiso   1.00
C159   C     0.69943   0.19528   1.13092   0.00000  Uiso   1.00
C160   C     0.82639   0.31077   1.01126   0.00000  Uiso   1.00
C161   C     0.79630   0.28317   1.05952   0.00000  Uiso   1.00
C162   C     0.78905   0.25177   0.94953   0.00000  Uiso   1.00
C163   C     0.81528   0.25048   0.80436   0.00000  Uiso   1.00
C164   C     0.84509   0.27824   0.75743   0.00000  Uiso   1.00
C165   C     0.19471   0.69130   1.12827   0.00000  Uiso   1.00
C166   C     0.22453   0.71911   1.07658   0.00000  Uiso   1.00
C167   C     0.23270   0.74998   1.20537   0.00000  Uiso   1.00
C168   C     0.20790   0.75022   1.38487   0.00000  Uiso   1.00
C169   C     0.17838   0.72223   1.43598   0.00000  Uiso   1.00
C170   C     0.30519   0.83517   1.31511   0.00000  Uiso   1.00
C171   C     0.27464   0.80783   1.34402   0.00000  Uiso   1.00
C172   C     0.26459   0.77928   1.16657   0.00000  Uiso   1.00
C173   C     0.28811   0.78108   0.95676   0.00000  Uiso   1.00
C174   C     0.31880   0.80850   0.93354   0.00000  Uiso   1.00
H175   H     0.56506   0.57387   0.79049   0.00000  Uiso   1.00
H176   H     0.56808   0.62662   0.75378   0.00000  Uiso   1.00
H177   H     0.48044   0.59028   1.29475   0.00000  Uiso   1.00
H178   H     0.47606   0.53751   1.31782   0.00000  Uiso   1.00
H179   H     0.54129   0.48060   0.76243   0.00000  Uiso   1.00
H180   H     0.59604   0.48760   0.76731   0.00000  Uiso   1.00
H181   H     0.62704   0.56752   1.39686   0.00000  Uiso   1.00
H182   H     0.57278   0.56129   1.38285   0.00000  Uiso   1.00
H183   H     0.46957   0.52237   0.70979   0.00000  Uiso   1.00
H184   H     0.41504   0.51701   0.68194   0.00000  Uiso   1.00
H185   H     0.38003   0.43985   1.34619   0.00000  Uiso   1.00
H186   H     0.43386   0.44530   1.36965   0.00000  Uiso   1.00
H187   H     0.44574   0.43150   0.76007   0.00000  Uiso   1.00
H188   H     0.44077   0.37766   0.76788   0.00000  Uiso   1.00
H189   H     0.52297   0.41348   1.37705   0.00000  Uiso   1.00
H190   H     0.52814   0.46735   1.36908   0.00000  Uiso   1.00
H191   H     0.67316   0.56645   1.41130   0.00000  Uiso   1.00
H192   H     0.33466   0.44063   1.31958   0.00000  Uiso   1.00
H193   H     0.68411   0.51220   0.83307   0.00000  Uiso   1.00
H194   H     0.73311   0.50992   0.76720   0.00000  Uiso   1.00
H195   H     0.77984   0.58267   1.47391   0.00000  Uiso   1.00
H196   H     0.73049   0.58495   1.52969   0.00000  Uiso   1.00
H197   H     0.32824   0.49902   0.75667   0.00000  Uiso   1.00
H198   H     0.27992   0.50384   0.69240   0.00000  Uiso   1.00
H199   H     0.22980   0.42936   1.37703   0.00000  Uiso   1.00
H200   H     0.27827   0.42431   1.43295   0.00000  Uiso   1.00
H201   H     0.25133   0.52420   0.88647   0.00000  Uiso   1.00
H202   H     0.20595   0.53460   0.91586   0.00000  Uiso   1.00
H203   H     0.14055   0.43309   1.16749   0.00000  Uiso   1.00
H204   H     0.18552   0.42212   1.13768   0.00000  Uiso   1.00
H205   H     0.15030   0.51877   1.07006   0.00000  Uiso   1.00
H206   H     0.11352   0.50978   1.54480   0.00000  Uiso   1.00
H207   H     0.06833   0.51746   1.67621   0.00000  Uiso   1.00
H208   H     0.01015   0.45090   0.96593   0.00000  Uiso   1.00
H209   H     0.05481   0.44114   0.85602   0.00000  Uiso   1.00
H210   H     0.76951   0.50026   0.78421   0.00000  Uiso   1.00
H211   H     0.81356   0.48885   0.81268   0.00000  Uiso   1.00
H212   H     0.86390   0.56776   1.44991   0.00000  Uiso   1.00
H213   H     0.82060   0.58018   1.42360   0.00000  Uiso   1.00
H214   H     0.86467   0.49725   1.01832   0.00000  Uiso   1.00
H215   H     0.89259   0.47728   1.27954   0.00000  Uiso   1.00
H216   H     0.93849   0.46963   1.31303   0.00000  Uiso   1.00
H217   H     1.00141   0.57515   1.46748   0.00000  Uiso   1.00
H218   H     0.95480   0.58140   1.43297   0.00000  Uiso   1.00
H219   H     0.05291   0.53091   1.00152   0.00000  Uiso   1.00
H220   H     0.10724   0.58002   0.95441   0.00000  Uiso   1.00
H221   H     0.08447   0.62300   1.70484   0.00000  Uiso   1.00
H222   H     0.03298   0.57261   1.77426   0.00000  Uiso   1.00
H223   H     0.96029   0.47843   0.87271   0.00000  Uiso   1.00
H224   H     0.91106   0.42792   1.03664   0.00000  Uiso   1.00
H225   H     0.93365   0.37179   0.41622   0.00000  Uiso   1.00
H226   H     0.98026   0.41933   0.25218   0.00000  Uiso   1.00
H227   H     0.48490   0.63717   1.21245   0.00000  Uiso   1.00
H228   H     0.52742   0.37233   1.11880   0.00000  Uiso   1.00
H229   H     0.56128   0.70406   0.80059   0.00000  Uiso   1.00
H230   H     0.57408   0.76091   0.75829   0.00000  Uiso   1.00
H231   H     0.48426   0.73627   1.24485   0.00000  Uiso   1.00
H232   H     0.47226   0.67969   1.28930   0.00000  Uiso   1.00
H233   H     0.43995   0.29759   1.14918   0.00000  Uiso   1.00
H234   H     0.42797   0.24158   1.23004   0.00000  Uiso   1.00
H235   H     0.53302   0.27593   1.24150   0.00000  Uiso   1.00
H236   H     0.54450   0.33184   1.16222   0.00000  Uiso   1.00
H237   H     0.43312   0.20888   1.62134   0.00000  Uiso   1.00
H238   H     0.42701   0.15620   1.76552   0.00000  Uiso   1.00
H239   H     0.50497   0.17177   1.15295   0.00000  Uiso   1.00
H240   H     0.51112   0.22390   1.00604   0.00000  Uiso   1.00
H241   H     0.58435   0.80328   1.25780   0.00000  Uiso   1.00
H242   H     0.59311   0.85788   1.36757   0.00000  Uiso   1.00
H243   H     0.50409   0.83493   0.88527   0.00000  Uiso   1.00
H244   H     0.49465   0.78025   0.77767   0.00000  Uiso   1.00
H245   H     0.44186   0.11233   1.71487   0.00000  Uiso   1.00
H246   H     0.57619   0.89867   1.35801   0.00000  Uiso   1.00
H247   H     0.44005   0.06117   1.70713   0.00000  Uiso   1.00
H248   H     0.44557   0.01265   1.68699   0.00000  Uiso   1.00
H249   H     0.54090   0.07052   1.25866   0.00000  Uiso   1.00
H250   H     0.53429   0.11766   1.27267   0.00000  Uiso   1.00
H251   H     0.56832   0.93614   1.57268   0.00000  Uiso   1.00
H252   H     0.56409   0.98391   1.70064   0.00000  Uiso   1.00
H253   H     0.49285   0.96053   0.99557   0.00000  Uiso   1.00
H254   H     0.49556   0.91096   0.87887   0.00000  Uiso   1.00
H255   H     0.44269   1.00057   1.12777   0.00000  Uiso   1.00
H256   H     0.38911   0.95275   1.04071   0.00000  Uiso   1.00
H257   H     0.41860   0.89217   1.52389   0.00000  Uiso   1.00
H258   H     0.47175   0.93916   1.61594   0.00000  Uiso   1.00
H259   H     0.58597   0.02566   0.18840   0.00000  Uiso   1.00
H260   H     0.63816   0.07360   0.31808   0.00000  Uiso   1.00
H261   H     0.58977   0.10043   0.99027   0.00000  Uiso   1.00
H262   H     0.53752   0.05112   0.86979   0.00000  Uiso   1.00
H263   H     0.63880   0.14300   1.06954   0.00000  Uiso   1.00
H264   H     0.90142   0.33169   0.68362   0.00000  Uiso   1.00
H265   H     0.12221   0.66841   1.51556   0.00000  Uiso   1.00
H266   H     0.37940   0.86234   0.95015   0.00000  Uiso   1.00
H267   H     0.71003   0.15090   0.58724   0.00000  Uiso   1.00
H268   H     0.76468   0.19628   0.60156   0.00000  Uiso   1.00
H269   H     0.73644   0.24095   1.30795   0.00000  Uiso   1.00
H270   H     0.68102   0.19530   1.28186   0.00000  Uiso   1.00
H271   H     0.83034   0.33442   1.09631   0.00000  Uiso   1.00
H272   H     0.77725   0.28615   1.17317   0.00000  Uiso   1.00
H273   H     0.81182   0.22717   0.71595   0.00000  Uiso   1.00
H274   H     0.86384   0.27558   0.63414   0.00000  Uiso   1.00
H275   H     0.19002   0.66829   1.02193   0.00000  Uiso   1.00
H276   H     0.24226   0.71670   0.93529   0.00000  Uiso   1.00
H277   H     0.21186   0.77291   1.49161   0.00000  Uiso   1.00
H278   H     0.16067   0.72416   1.58197   0.00000  Uiso   1.00
H279   H     0.31127   0.85601   1.46385   0.00000  Uiso   1.00
H280   H     0.25859   0.80847   1.51803   0.00000  Uiso   1.00
H281   H     0.28217   0.76041   0.80664   0.00000  Uiso   1.00
H282   H     0.33576   0.80822   0.76675   0.00000  Uiso   1.00
loop_
_geom_bond_atom_site_label_1
_geom_bond_atom_site_label_2
_geom_bond_distance
_geom_bond_site_symmetry_2
_ccdc_geom_bond_type
C1     C2      1.381   .     S
C1     C5      1.510   .     S
C1     C6      1.504   .     D
C2     C3      1.517   .     D
C2     C4      1.510   .     S
C3     C7      1.403   .     S
C3     C11     1.401   .     S
C4     C12     1.399   .     D
C4     C16     1.402   .     S
C5     C22     1.404   .     D
C5     C26     1.399   .     S
C6     C17     1.396   .     S
C6     C21     1.401   .     S
C7     C8      1.377   .     D
C7     H175    1.093   .     S
C8     C9      1.398   .     S
C8     H176    1.097   .     S
C9     C10     1.402   .     S
C9     N27     1.399   .     D
C10    C11     1.378   .     D
C10    H177    1.095   .     S
C11    H178    1.087   .     S
C12    C13     1.378   .     S
C12    H179    1.087   .     S
C13    C14     1.399   .     D
C13    H180    1.097   .     S
C14    C15     1.402   .     S
C14    N28     1.397   .     S
C15    C16     1.379   .     D
C15    H181    1.096   .     S
C16    H182    1.092   .     S
C17    C18     1.377   .     D
C17    H183    1.088   .     S
C18    C19     1.400   .     S
C18    H184    1.097   .     S
C19    C20     1.403   .     S
C19    N30     1.397   .     D
C20    C21     1.378   .     D
C20    H185    1.096   .     S
C21    H186    1.093   .     S
C22    C23     1.378   .     S
C22    H187    1.093   .     S
C23    C24     1.398   .     D
C23    H188    1.097   .     S
C24    C25     1.402   .     S
C24    N29     1.396   .     S
C25    C26     1.378   .     D
C25    H189    1.096   .     S
C26    H190    1.087   .     S
N27    C89     1.291   .     S
N28    C31     1.292   .     D
N29    C91     1.290   .     D
N30    C32     1.292   .     S
C31    C33     1.443   .     S
C31    H191    1.099   .     S
C32    C34     1.443   .     D
C32    H192    1.099   .     S
C33    C35     1.404   .     D
C33    C39     1.401   .     S
C34    C40     1.406   .     S
C34    C44     1.402   .     S
C35    C36     1.367   .     S
C35    H193    1.097   .     S
C36    C37     1.418   .     D
C36    H194    1.096   .     S
C37    C38     1.421   .     S
C37    C45     1.447   .     S
C38    C39     1.369   .     D
C38    H195    1.095   .     S
C39    H196    1.098   .     S
C40    C41     1.367   .     D
C40    H197    1.097   .     S
C41    C42     1.421   .     S
C41    H198    1.098   .     S
C42    C43     1.426   .     S
C42    C46     1.432   .     D
C43    C44     1.368   .     D
C43    H199    1.097   .     S
C44    H200    1.098   .     S
C45    C61     1.421   .     D
C45    C65     1.419   .     S
C46    C47     1.424   .     S
C46    C51     1.419   .     S
C47    C48     1.368   .     D
C47    H201    1.095   .     S
C48    C49     1.401   .     S
C48    H202    1.095   .     S
C49    C50     1.404   .     S
C49    C52     1.443   .     D
C50    C51     1.368   .     D
C50    H203    1.095   .     S
C51    H204    1.095   .     S
C52    N53     1.290   .     S
C52    H205    1.098   .     S
N53    C54     1.395   .     D
C54    C55     1.401   .     S
C54    C59     1.397   .     S
C55    C56     1.379   .     D
C55    H206    1.096   .     S
C56    C57     1.402   .     S
C56    H207    1.088   .     S
C57    C58     1.405   .     S
C57    C60     1.515   .     D
C58    C59     1.378   .     D
C58    H208    1.093   .     S
C59    H209    1.098   .     S
C60    C74     1.385   .     S
C60    C82     1.524   1_456 S
C61    C62     1.368   .     S
C61    H210    1.095   .     S
C62    C63     1.401   .     D
C62    H211    1.097   .     S
C63    C64     1.403   .     S
C63    C66     1.442   .     S
C64    C65     1.368   .     D
C64    H212    1.097   .     S
C65    H213    1.095   .     S
C66    N67     1.292   .     D
C66    H214    1.098   .     S
N67    C68     1.396   .     S
C68    C69     1.396   .     D
C68    C73     1.393   .     S
C69    C70     1.377   .     S
C69    H215    1.095   .     S
C70    C71     1.405   .     D
C70    H216    1.087   .     S
C71    C72     1.409   .     S
C71    C74     1.535   1_655 S
C72    C73     1.378   .     D
C72    H217    1.089   .     S
C73    H218    1.096   .     S
C74    C71     1.535   1_455 S
C74    C75     1.511   .     D
C75    C76     1.397   .     S
C75    C80     1.402   .     S
C76    C77     1.379   .     D
C76    H219    1.088   .     S
C77    C78     1.400   .     S
C77    H220    1.097   .     S
C78    C79     1.405   .     S
C78    N81     1.404   .     D
C79    C80     1.381   .     D
C79    H221    1.097   .     S
C80    H222    1.099   .     S
N81    C151    1.293   .     S
C82    C60     1.524   1_654 S
C82    C83     1.405   .     D
C82    C87     1.405   .     S
C83    C84     1.383   .     S
C83    H223    1.094   .     S
C84    C85     1.399   .     D
C84    H224    1.097   .     S
C85    C86     1.401   .     S
C85    N88     1.406   .     S
C86    C87     1.377   .     D
C86    H225    1.096   .     S
C87    H226    1.090   .     S
N88    C148    1.294   .     D
C89    C90     1.443   .     D
C89    H227    1.097   .     S
C90    C93     1.406   .     S
C90    C97     1.401   .     S
C91    C92     1.444   .     S
C91    H228    1.097   .     S
C92    C98     1.404   .     D
C92    C102    1.401   .     S
C93    C94     1.368   .     D
C93    H229    1.096   .     S
C94    C95     1.430   .     S
C94    H230    1.096   .     S
C95    C96     1.435   .     S
C95    C103    1.412   .     D
C96    C97     1.366   .     D
C96    H231    1.097   .     S
C97    H232    1.097   .     S
C98    C99     1.368   .     S
C98    H233    1.094   .     S
C99    C100    1.423   .     D
C99    H234    1.095   .     S
C100   C101    1.427   .     S
C100   C104    1.423   .     S
C101   C102    1.368   .     D
C101   H235    1.095   .     S
C102   H236    1.095   .     S
C103   C110    1.435   .     S
C103   C114    1.429   .     S
C104   C105    1.429   .     D
C104   C109    1.422   .     S
C105   C106    1.371   .     S
C105   H237    1.096   .     S
C106   C107    1.402   .     D
C106   H238    1.098   .     S
C107   C108    1.408   .     S
C107   C115    1.445   .     S
C108   C109    1.366   .     D
C108   H239    1.096   .     S
C109   H240    1.098   .     S
C110   C111    1.369   .     D
C110   H241    1.096   .     S
C111   C112    1.402   .     S
C111   H242    1.097   .     S
C112   C113    1.406   .     S
C112   C118    1.444   .     D
C113   C114    1.367   .     D
C113   H243    1.096   .     S
C114   H244    1.097   .     S
C115   N116    1.289   .     D
C115   H245    1.098   .     S
N116   C117    1.393   .     S
C117   C121    1.400   .     D
C117   C125    1.395   .     S
C118   N119    1.291   .     S
C118   H246    1.098   .     S
N119   C120    1.397   .     D
C120   C126    1.404   .     S
C120   C130    1.400   .     S
C121   C122    1.381   .     S
C121   H247    1.095   .     S
C122   C123    1.405   .     D
C122   H248    1.094   .     S
C123   C124    1.402   .     S
C123   C132    1.519   1_545 S
C124   C125    1.374   .     D
C124   H249    1.089   .     S
C125   H250    1.096   .     S
C126   C127    1.379   .     D
C126   H251    1.096   .     S
C127   C128    1.402   .     S
C127   H252    1.098   .     S
C128   C129    1.398   .     S
C128   C131    1.500   .     D
C129   C130    1.378   .     D
C129   H253    1.092   .     S
C130   H254    1.097   .     S
C131   C132    1.381   .     S
C131   C134    1.505   1_566 S
C132   C123    1.519   1_565 S
C132   C133    1.521   .     D
C133   C135    1.404   .     S
C133   C139    1.404   .     S
C134   C131    1.505   1_544 S
C134   C140    1.402   .     D
C134   C144    1.397   .     S
C135   C136    1.378   .     D
C135   H255    1.093   .     S
C136   C137    1.398   .     S
C136   H256    1.096   .     S
C137   C138    1.400   .     S
C137   N150    1.398   .     D
C138   C139    1.380   .     D
C138   H257    1.096   .     S
C139   H258    1.091   .     S
C140   C141    1.380   .     S
C140   H259    1.098   .     S
C141   C142    1.402   .     D
C141   H260    1.097   .     S
C142   C143    1.403   .     S
C142   N145    1.402   .     S
C143   C144    1.379   .     D
C143   H261    1.096   .     S
C144   H262    1.092   .     S
N145   C146    1.295   .     D
C146   C147    1.446   .     S
C146   H263    1.098   .     S
C147   C155    1.404   .     D
C147   C159    1.405   .     S
C148   C149    1.445   .     S
C148   H264    1.097   .     S
C149   C160    1.405   .     D
C149   C164    1.401   .     S
N150   C153    1.292   .     S
C151   C152    1.446   .     D
C151   H265    1.098   .     S
C152   C165    1.405   .     S
C152   C169    1.400   .     S
C153   C154    1.447   .     D
C153   H266    1.098   .     S
C154   C170    1.404   .     S
C154   C174    1.403   .     S
C155   C156    1.367   .     S
C155   H267    1.098   .     S
C156   C157    1.422   .     D
C156   H268    1.096   .     S
C157   C158    1.421   .     S
C157   C162    1.444   .     S
C158   C159    1.371   .     D
C158   H269    1.097   .     S
C159   H270    1.098   .     S
C160   C161    1.372   .     S
C160   H271    1.097   .     S
C161   C162    1.422   .     D
C161   H272    1.096   .     S
C162   C163    1.419   .     S
C163   C164    1.367   .     D
C163   H273    1.095   .     S
C164   H274    1.097   .     S
C165   C166    1.372   .     D
C165   H275    1.096   .     S
C166   C167    1.421   .     S
C166   H276    1.095   .     S
C167   C168    1.419   .     S
C167   C172    1.447   .     D
C168   C169    1.368   .     D
C168   H277    1.094   .     S
C169   H278    1.097   .     S
C170   C171    1.368   .     D
C170   H279    1.097   .     S
C171   C172    1.420   .     S
C171   H280    1.096   .     S
C172   C173    1.421   .     S
C173   C174    1.371   .     D
C173   H281    1.096   .     S
C174   H282    1.098   .     S
