data_136
_audit_creation_date              2023-09-08
_audit_creation_method            'Materials Studio'
_symmetry_space_group_name_H-M    'P1'
_symmetry_Int_Tables_number       1
_symmetry_cell_setting            triclinic
loop_
_symmetry_equiv_pos_as_xyz
  x,y,z
_cell_length_a                    37.5000
_cell_length_b                    37.5000
_cell_length_c                    3.4000
_cell_angle_alpha                 90.0000
_cell_angle_beta                  90.0000
_cell_angle_gamma                 120.0000
loop_
_atom_site_label
_atom_site_type_symbol
_atom_site_fract_x
_atom_site_fract_y
_atom_site_fract_z
_atom_site_U_iso_or_equiv
_atom_site_adp_type
_atom_site_occupancy
H1     H     1.56767   0.49744   0.81318   0.00000  Uiso   1.00
H2     H     1.53906   0.58935   0.45167   0.00000  Uiso   1.00
H3     H     1.44140   0.46701   0.74236   0.00000  Uiso   1.00
H4     H     1.49675   0.60521   0.76448   0.00000  Uiso   1.00
H5     H     1.37056   0.57313   0.62539   0.00000  Uiso   1.00
H6     H     1.40727   0.48535   0.33193   0.00000  Uiso   1.00
H7     H     1.62373   0.57181   0.55492   0.00000  Uiso   1.00
H8     H     1.47793   0.65885   0.84052   0.00000  Uiso   1.00
H9     H     1.75116   0.68318   0.96423   0.00000  Uiso   1.00
H10    H     1.68209   0.74419   1.23306   0.00000  Uiso   1.00
H11    H     1.61864   0.68114   1.08065   0.00000  Uiso   1.00
H12    H     1.48336   0.77273   1.48321   0.00000  Uiso   1.00
H13    H     1.35567   0.71600   1.12617   0.00000  Uiso   1.00
H14    H     1.35532   0.65285   0.99313   0.00000  Uiso   1.00
H15    H     1.79513   0.72946   1.38353   0.00000  Uiso   1.00
H16    H     1.86022   0.79329   1.44102   0.00000  Uiso   1.00
H17    H     1.73769   0.79735   0.95953   0.00000  Uiso   1.00
H18    H     1.48767   0.82829   1.25377   0.00000  Uiso   1.00
H19    H     1.48867   0.89275   1.24638   0.00000  Uiso   1.00
H20    H     1.35631   0.76473   1.46821   0.00000  Uiso   1.00
H21    H     1.86121   0.91200   1.44292   0.00000  Uiso   1.00
H22    H     1.37413   0.88788   0.91413   0.00000  Uiso   1.00
H23    H     1.47701   0.98106   1.09869   0.00000  Uiso   1.00
H24    H     1.44139   1.06545   0.63244   0.00000  Uiso   1.00
H25    H     1.35351   0.93641   0.70462   0.00000  Uiso   1.00
H26    H     1.53532   1.02655   0.75475   0.00000  Uiso   1.00
H27    H     1.61740   1.14953   1.15911   0.00000  Uiso   1.00
H28    H     1.48716   1.10357   1.12374   0.00000  Uiso   1.00
H29    H     1.93879   1.14258   0.91108   0.00000  Uiso   1.00
H30    H     1.60831   1.05473   0.68417   0.00000  Uiso   1.00
H31    H     1.82662   1.14912   0.49263   0.00000  Uiso   1.00
H32    H     1.76297   1.02376   0.92412   0.00000  Uiso   1.00
H33    H     1.82547   1.02090   0.86452   0.00000  Uiso   1.00
H34    H     1.70918   1.02542   0.71404   0.00000  Uiso   1.00
H35    H     1.78640   1.15625   0.92591   0.00000  Uiso   1.00
H36    H     1.72545   1.16096   1.06516   0.00000  Uiso   1.00
H37    H     1.66633   0.58571   1.03162   0.00000  Uiso   1.00
H38    H     1.77728   0.86768   0.91419   0.00000  Uiso   1.00
H39    H     1.51660   0.73634   1.40402   0.00000  Uiso   1.00
H40    H     1.34580   0.85262   1.41278   0.00000  Uiso   1.00
H41    H     1.62316   1.02149   1.16638   0.00000  Uiso   1.00
H42    H     1.89584   1.17906   0.36618   0.00000  Uiso   1.00
H43    H     1.59052   0.19385   1.39156   0.00000  Uiso   1.00
H44    H     1.34339  -0.01713   0.31928   0.00000  Uiso   1.00
H45    H     1.58609   0.31785   1.24393   0.00000  Uiso   1.00
H46    H     1.46088   0.24354   1.65290   0.00000  Uiso   1.00
H47    H     1.46699   0.18213   1.58774   0.00000  Uiso   1.00
H48    H     1.25570   0.04477   0.86530   0.00000  Uiso   1.00
H49    H     1.18679  -0.08395   0.53459   0.00000  Uiso   1.00
H50    H     1.25044  -0.08126   0.35030   0.00000  Uiso   1.00
H51    H     1.58082   0.36590   1.59007   0.00000  Uiso   1.00
H52    H     1.57605   0.42617   1.41777   0.00000  Uiso   1.00
H53    H     1.45321   0.28798   1.26300   0.00000  Uiso   1.00
H54    H     1.19887   0.04382   0.71426   0.00000  Uiso   1.00
H55    H     1.13658   0.04173   0.93192   0.00000  Uiso   1.00
H56    H     1.14467  -0.08586   0.98943   0.00000  Uiso   1.00
H57    H     1.45922   0.41113   0.83125   0.00000  Uiso   1.00
H58    H     1.02337  -0.07856   0.95425   0.00000  Uiso   1.00
H59    H     1.03800   0.02469   1.07428   0.00000  Uiso   1.00
H60    H     0.91258  -0.01408   1.38716   0.00000  Uiso   1.00
H61    H     0.95204  -0.10297   1.23784   0.00000  Uiso   1.00
H62    H     1.05017   0.08156   1.39137   0.00000  Uiso   1.00
H63    H     1.01130   0.16690   1.04651   0.00000  Uiso   1.00
H64    H     0.92682   0.03750   0.96861   0.00000  Uiso   1.00
H65    H     1.31752   0.50037   0.42393   0.00000  Uiso   1.00
H66    H     1.10228   0.15634   1.19650   0.00000  Uiso   1.00
H67    H     1.20076   0.38920   1.06618   0.00000  Uiso   1.00
H68    H     1.26303   0.32117   0.79870   0.00000  Uiso   1.00
H69    H     1.32321   0.38415   0.60185   0.00000  Uiso   1.00
H70    H     1.22392   0.28052   1.25692   0.00000  Uiso   1.00
H71    H     1.14514   0.33045   0.96468   0.00000  Uiso   1.00
H72    H     1.08594   0.26643   1.16450   0.00000  Uiso   1.00
H73    H     1.62305   0.28637   1.09843   0.00000  Uiso   1.00
H74    H     1.43188   0.36784   1.29848   0.00000  Uiso   1.00
H75    H     1.32520   0.08012   0.74755   0.00000  Uiso   1.00
H76    H     1.05613  -0.09356   1.42243   0.00000  Uiso   1.00
H77    H     1.14487   0.19057   1.67579   0.00000  Uiso   1.00
H78    H     1.23493   0.45853   0.94613   0.00000  Uiso   1.00
C79    C     1.54472   0.50590   0.74030   0.00000  Uiso   1.00
C80    C     1.55744   0.54626   0.63339   0.00000  Uiso   1.00
C81    C     1.52844   0.55791   0.54199   0.00000  Uiso   1.00
C82    C     1.48633   0.52976   0.57864   0.00000  Uiso   1.00
C83    C     1.47361   0.48908   0.69387   0.00000  Uiso   1.00
C84    C     1.45609   0.54381   0.54000   0.00000  Uiso   1.00
C85    C     1.46610   0.58354   0.66088   0.00000  Uiso   1.00
C86    C     1.43565   0.59439   0.68700   0.00000  Uiso   1.00
C87    C     1.39481   0.56567   0.58915   0.00000  Uiso   1.00
C88    C     1.38465   0.52617   0.47364   0.00000  Uiso   1.00
C89    C     1.41554   0.51598   0.43038   0.00000  Uiso   1.00
C90    C     1.60048   0.57753   0.67315   0.00000  Uiso   1.00
C91    C     1.44619   0.63470   0.84348   0.00000  Uiso   1.00
C92    C     1.64804   0.64569   0.95239   0.00000  Uiso   1.00
C93    C     1.41966   0.67745   1.11368   0.00000  Uiso   1.00
C94    C     1.68600   0.64604   0.94130   0.00000  Uiso   1.00
C95    C     1.72247   0.68316   0.99673   0.00000  Uiso   1.00
C96    C     1.72199   0.71924   1.09974   0.00000  Uiso   1.00
C97    C     1.68399   0.71764   1.13858   0.00000  Uiso   1.00
C98    C     1.64761   0.68142   1.05946   0.00000  Uiso   1.00
C99    C     1.45625   0.71168   1.25426   0.00000  Uiso   1.00
C100   C     1.45565   0.74739   1.36138   0.00000  Uiso   1.00
C101   C     1.42003   0.75040   1.30906   0.00000  Uiso   1.00
C102   C     1.38369   0.71538   1.18259   0.00000  Uiso   1.00
C103   C     1.38346   0.67916   1.09809   0.00000  Uiso   1.00
C104   C     1.76095   0.75827   1.16786   0.00000  Uiso   1.00
C105   C     1.42158   0.79050   1.35281   0.00000  Uiso   1.00
C106   C     1.79609   0.75784   1.30419   0.00000  Uiso   1.00
C107   C     1.83323   0.79431   1.34389   0.00000  Uiso   1.00
C108   C     1.83594   0.83199   1.26154   0.00000  Uiso   1.00
C109   C     1.80099   0.83325   1.12795   0.00000  Uiso   1.00
C110   C     1.76377   0.79628   1.08163   0.00000  Uiso   1.00
C111   C     1.45891   0.82754   1.30538   0.00000  Uiso   1.00
C112   C     1.45958   0.86473   1.29407   0.00000  Uiso   1.00
C113   C     1.42312   0.86604   1.30341   0.00000  Uiso   1.00
C114   C     1.38506   0.82906   1.36901   0.00000  Uiso   1.00
C115   C     1.38529   0.79221   1.40570   0.00000  Uiso   1.00
C116   C     1.88472   0.90483   1.35819   0.00000  Uiso   1.00
C117   C     1.40233   0.91246   1.02620   0.00000  Uiso   1.00
C118   C     1.41402   0.95439   0.91381   0.00000  Uiso   1.00
C119   C     1.45414   0.98689   0.96695   0.00000  Uiso   1.00
C120   C     1.46445   1.02712   0.86583   0.00000  Uiso   1.00
C121   C     1.43424   1.03457   0.70900   0.00000  Uiso   1.00
C122   C     1.39484   1.00189   0.63811   0.00000  Uiso   1.00
C123   C     1.38459   0.96181   0.74608   0.00000  Uiso   1.00
C124   C     1.50641   1.06112   0.93643   0.00000  Uiso   1.00
C125   C     1.53996   1.05542   0.87292   0.00000  Uiso   1.00
C126   C     1.57969   1.08691   0.95549   0.00000  Uiso   1.00
C127   C     1.58642   1.12477   1.09945   0.00000  Uiso   1.00
C128   C     1.51313   1.09908   1.07456   0.00000  Uiso   1.00
C129   C     1.93398   1.11198   0.86644   0.00000  Uiso   1.00
C130   C     1.61353   1.07955   0.88044   0.00000  Uiso   1.00
C131   C     1.86263   1.08393   0.68191   0.00000  Uiso   1.00
C132   C     1.68319   1.09617   0.99106   0.00000  Uiso   1.00
C133   C     1.86299   1.12029   0.56882   0.00000  Uiso   1.00
C134   C     1.82627   1.12131   0.58298   0.00000  Uiso   1.00
C135   C     1.78976   1.08711   0.71835   0.00000  Uiso   1.00
C136   C     1.78976   1.05048   0.80615   0.00000  Uiso   1.00
C137   C     1.82569   1.04880   0.77734   0.00000  Uiso   1.00
C138   C     1.67919   1.05720   0.91412   0.00000  Uiso   1.00
C139   C     1.71358   1.05519   0.79679   0.00000  Uiso   1.00
C140   C     1.75282   1.09049   0.79760   0.00000  Uiso   1.00
C141   C     1.75672   1.12851   0.90508   0.00000  Uiso   1.00
C142   C     1.72207   1.13126   0.99463   0.00000  Uiso   1.00
C143   C     1.55307   1.13085   1.16027   0.00000  Uiso   1.00
C144   C     1.56000   0.17065   1.30053   0.00000  Uiso   1.00
C145   C     1.36375   0.01026   0.47935   0.00000  Uiso   1.00
C146   C     1.53029   0.21481   1.39870   0.00000  Uiso   1.00
C147   C     1.28871  -0.01694   0.48090   0.00000  Uiso   1.00
C148   C     1.56446   0.25364   1.30828   0.00000  Uiso   1.00
C149   C     1.56054   0.28866   1.33802   0.00000  Uiso   1.00
C150   C     1.52305   0.28559   1.45099   0.00000  Uiso   1.00
C151   C     1.48989   0.24697   1.55491   0.00000  Uiso   1.00
C152   C     1.49346   0.21196   1.52358   0.00000  Uiso   1.00
C153   C     1.29022   0.01910   0.62116   0.00000  Uiso   1.00
C154   C     1.25374   0.01741   0.73868   0.00000  Uiso   1.00
C155   C     1.21576  -0.01948   0.71017   0.00000  Uiso   1.00
C156   C     1.21512  -0.05500   0.56750   0.00000  Uiso   1.00
C157   C     1.25133  -0.05357   0.45550   0.00000  Uiso   1.00
C158   C     1.51790   0.32205   1.42274   0.00000  Uiso   1.00
C159   C     1.17722  -0.02089   0.83392   0.00000  Uiso   1.00
C160   C     1.55170   0.36150   1.48347   0.00000  Uiso   1.00
C161   C     1.54886   0.39598   1.39252   0.00000  Uiso   1.00
C162   C     1.51197   0.39215   1.25726   0.00000  Uiso   1.00
C163   C     1.47618   0.35265   1.24176   0.00000  Uiso   1.00
C164   C     1.48001   0.31801   1.30773   0.00000  Uiso   1.00
C165   C     1.17426   0.01497   0.82601   0.00000  Uiso   1.00
C166   C     1.13844   0.01384   0.94562   0.00000  Uiso   1.00
C167   C     1.10450  -0.02301   1.06662   0.00000  Uiso   1.00
C168   C     1.10711  -0.05929   1.08790   0.00000  Uiso   1.00
C169   C     1.14319  -0.05791   0.96529   0.00000  Uiso   1.00
C170   C     1.48909   0.43559   0.91704   0.00000  Uiso   1.00
C171   C     1.50264   0.47730   0.77761   0.00000  Uiso   1.00
C172   C     1.03089  -0.04947   1.08831   0.00000  Uiso   1.00
C173   C     0.99851  -0.03996   1.16936   0.00000  Uiso   1.00
C174   C     1.00746   0.00089   1.16051   0.00000  Uiso   1.00
C175   C     0.97694   0.01087   1.23653   0.00000  Uiso   1.00
C176   C     0.93680  -0.02095   1.32353   0.00000  Uiso   1.00
C177   C     0.92741  -0.06203   1.31657   0.00000  Uiso   1.00
C178   C     0.95860  -0.07137   1.24175   0.00000  Uiso   1.00
C179   C     0.98672   0.05404   1.19461   0.00000  Uiso   1.00
C180   C     1.02633   0.08701   1.27806   0.00000  Uiso   1.00
C181   C     1.03529   0.12754   1.22302   0.00000  Uiso   1.00
C182   C     1.00459   0.13552   1.09205   0.00000  Uiso   1.00
C183   C     0.96572   0.10316   0.99933   0.00000  Uiso   1.00
C184   C     0.95684   0.06253   1.04998   0.00000  Uiso   1.00
C185   C     1.34176   0.49349   0.48125   0.00000  Uiso   1.00
C186   C     1.07726   0.16152   1.27111   0.00000  Uiso   1.00
C187   C     1.29629   0.42230   0.69666   0.00000  Uiso   1.00
C188   C     1.12028   0.23625   1.30594   0.00000  Uiso   1.00
C189   C     1.26133   0.42377   0.82611   0.00000  Uiso   1.00
C190   C     1.22662   0.38732   0.95100   0.00000  Uiso   1.00
C191   C     1.22637   0.34963   0.94881   0.00000  Uiso   1.00
C192   C     1.26168   0.34920   0.81667   0.00000  Uiso   1.00
C193   C     1.29617   0.38517   0.69735   0.00000  Uiso   1.00
C194   C     1.15999   0.24094   1.34065   0.00000  Uiso   1.00
C195   C     1.19406   0.27790   1.22580   0.00000  Uiso   1.00
C196   C     1.18986   0.31103   1.08716   0.00000  Uiso   1.00
C197   C     1.15041   0.30659   1.07854   0.00000  Uiso   1.00
C198   C     1.11625   0.26978   1.19091   0.00000  Uiso   1.00
N199   N     1.60895   0.61091   0.85935   0.00000  Uiso   1.00
N200   N     1.41694   0.64049   0.96894   0.00000  Uiso   1.00
N201   N     1.87584   0.86759   1.27761   0.00000  Uiso   1.00
N202   N     1.42767   0.90534   1.21965   0.00000  Uiso   1.00
N203   N     1.89900   1.08194   0.75059   0.00000  Uiso   1.00
N204   N     1.64880   1.10197   1.04680   0.00000  Uiso   1.00
N205   N     1.52925   0.17716   1.31155   0.00000  Uiso   1.00
N206   N     1.32645  -0.01855   0.37954   0.00000  Uiso   1.00
N207   N     1.51492   0.42931   1.11407   0.00000  Uiso   1.00
N208   N     1.06844  -0.02130   1.15670   0.00000  Uiso   1.00
N209   N     1.33448   0.45785   0.60290   0.00000  Uiso   1.00
N210   N     1.08283   0.19793   1.33682   0.00000  Uiso   1.00
O211   O     1.68923   0.61076   0.89803   0.00000  Uiso   1.00
O212   O     1.80397   0.87052   1.01626   0.00000  Uiso   1.00
O213   O     1.49256   0.71020   1.29472   0.00000  Uiso   1.00
O214   O     1.34650   0.82625   1.40076   0.00000  Uiso   1.00
O215   O     1.64272   1.01988   0.97218   0.00000  Uiso   1.00
O216   O     1.89930   1.15486   0.44343   0.00000  Uiso   1.00
O217   O     1.60081   0.25710   1.15912   0.00000  Uiso   1.00
O218   O     1.43672   0.34620   1.17295   0.00000  Uiso   1.00
O219   O     1.32770   0.05608   0.64550   0.00000  Uiso   1.00
O220   O     1.07603  -0.09643   1.24358   0.00000  Uiso   1.00
O221   O     1.16740   0.21081   1.49738   0.00000  Uiso   1.00
O222   O     1.26174   0.46117   0.85029   0.00000  Uiso   1.00
loop_
_geom_bond_atom_site_label_1
_geom_bond_atom_site_label_2
_geom_bond_distance
_geom_bond_site_symmetry_2
_ccdc_geom_bond_type
H1     C79     1.084   .     S
H2     C81     1.083   .     S
H3     C83     1.082   .     S
H4     C85     1.082   .     S
H5     C87     1.084   .     S
H6     C89     1.082   .     S
H7     C90     1.075   .     S
H8     C91     1.077   .     S
H9     C95     1.081   .     S
H10    C97     1.082   .     S
H11    C98     1.084   .     S
H12    C100    1.080   .     S
H13    C102    1.080   .     S
H14    C103    1.083   .     S
H15    C106    1.081   .     S
H16    C107    1.083   .     S
H17    C110    1.081   .     S
H18    C111    1.079   .     S
H19    C112    1.084   .     S
H20    C115    1.081   .     S
H21    C116    1.082   .     S
H22    C117    1.067   .     S
H23    C119    1.082   .     S
H24    C121    1.082   .     S
H25    C123    1.084   .     S
H26    C125    1.084   .     S
H27    C127    1.084   .     S
H28    C128    1.081   .     S
H29    C129    1.080   .     S
H30    C130    1.081   .     S
H31    C134    1.081   .     S
H32    C136    1.081   .     S
H33    C137    1.083   .     S
H34    C139    1.081   .     S
H35    C141    1.081   .     S
H36    C142    1.083   .     S
H37    O211    1.010   .     S
H38    O212    1.013   .     S
H39    O213    1.014   .     S
H40    O214    1.003   .     S
H41    O215    1.011   .     S
H42    O216    1.014   .     S
H43    C144    1.080   .     S
H44    C145    1.072   .     S
H45    C149    1.082   .     S
H46    C151    1.082   .     S
H47    C152    1.083   .     S
H48    C154    1.081   .     S
H49    C156    1.080   .     S
H50    C157    1.083   .     S
H51    C160    1.082   .     S
H52    C161    1.083   .     S
H53    C164    1.082   .     S
H54    C165    1.081   .     S
H55    C166    1.083   .     S
H56    C169    1.080   .     S
H57    C170    1.074   .     S
H58    C172    1.081   .     S
H59    C174    1.082   .     S
H60    C176    1.083   .     S
H61    C178    1.083   .     S
H62    C180    1.083   .     S
H63    C182    1.085   .     S
H64    C184    1.081   .     S
H65    C185    1.079   .     S
H66    C186    1.079   .     S
H67    C190    1.080   .     S
H68    C192    1.079   .     S
H69    C193    1.083   .     S
H70    C195    1.079   .     S
H71    C197    1.080   .     S
H72    C198    1.083   .     S
H73    O217    1.014   .     S
H74    O218    1.010   .     S
H75    O219    1.014   .     S
H76    O220    1.009   .     S
H77    O221    1.008   .     S
H78    O222    1.013   .     S
C79    C80     1.389   .     D
C79    C171    1.402   .     S
C80    C81     1.395   .     S
C80    C90     1.451   .     S
C81    C82     1.399   .     D
C82    C83     1.407   .     S
C82    C84     1.476   .     S
C83    C171    1.394   .     D
C84    C85     1.404   .     D
C84    C89     1.398   .     S
C85    C86     1.394   .     S
C86    C87     1.402   .     D
C86    C91     1.458   .     S
C87    C88     1.389   .     S
C88    C89     1.397   .     D
C88    C185    1.455   .     S
C90    N199    1.293   .     D
C91    N200    1.292   .     D
C92    C94     1.418   .     D
C92    C98     1.396   .     S
C92    N199    1.428   .     S
C93    C99     1.413   .     D
C93    C103    1.392   .     S
C93    N200    1.425   .     S
C94    C95     1.393   .     S
C94    O211    1.395   .     S
C95    C96     1.406   .     D
C96    C97     1.403   .     S
C96    C104    1.481   .     S
C97    C98     1.387   .     D
C99    C100    1.399   .     S
C99    O213    1.397   .     S
C100   C101    1.407   .     D
C101   C102    1.406   .     S
C101   C105    1.483   .     S
C102   C103    1.384   .     D
C104   C106    1.405   .     D
C104   C110    1.406   .     S
C105   C111    1.404   .     D
C105   C115    1.406   .     S
C106   C107    1.387   .     S
C107   C108    1.393   .     D
C108   C109    1.410   .     S
C108   N201    1.424   .     S
C109   C110    1.400   .     D
C109   O212    1.398   .     S
C111   C112    1.383   .     S
C112   C113    1.393   .     D
C113   C114    1.425   .     S
C113   N202    1.425   .     S
C114   C115    1.392   .     D
C114   O214    1.401   .     S
C116   C177    1.462   1_665 S
C116   N201    1.293   .     D
C117   C118    1.456   .     S
C117   N202    1.289   .     D
C118   C119    1.396   .     S
C118   C123    1.388   .     D
C119   C120    1.400   .     D
C120   C121    1.401   .     S
C120   C124    1.467   .     S
C121   C122    1.390   .     D
C122   C123    1.402   .     S
C122   C145    1.454   1_565 S
C124   C125    1.395   .     D
C124   C128    1.397   .     S
C125   C126    1.390   .     S
C126   C127    1.400   .     D
C126   C130    1.450   .     S
C127   C143    1.394   .     S
C128   C143    1.401   .     D
C129   C183    1.457   1_665 S
C129   N203    1.291   .     D
C130   N204    1.290   .     D
C131   C133    1.410   .     D
C131   C137    1.391   .     S
C131   N203    1.422   .     S
C132   C138    1.417   .     D
C132   C142    1.392   .     S
C132   N204    1.424   .     S
C133   C134    1.397   .     S
C133   O216    1.397   .     S
C134   C135    1.405   .     D
C135   C136    1.405   .     S
C135   C140    1.478   .     S
C136   C137    1.384   .     D
C138   C139    1.388   .     S
C138   O215    1.398   .     S
C139   C140    1.403   .     D
C140   C141    1.407   .     S
C141   C142    1.387   .     D
C143   C144    1.461   1_565 S
C144   C143    1.461   1_545 S
C144   N205    1.293   .     D
C145   C122    1.454   1_545 S
C145   N206    1.314   .     D
C146   C148    1.411   .     S
C146   C152    1.397   .     D
C146   N205    1.424   .     S
C147   C153    1.407   .     D
C147   C157    1.391   .     S
C147   N206    1.487   .     S
C148   C149    1.396   .     D
C148   O217    1.398   .     S
C149   C150    1.405   .     S
C150   C151    1.403   .     D
C150   C158    1.477   .     S
C151   C152    1.389   .     S
C153   C154    1.396   .     S
C153   O219    1.399   .     S
C154   C155    1.407   .     D
C155   C156    1.406   .     S
C155   C159    1.481   .     S
C156   C157    1.385   .     D
C158   C160    1.401   .     S
C158   C164    1.407   .     D
C159   C165    1.404   .     D
C159   C169    1.408   .     S
C160   C161    1.384   .     D
C161   C162    1.395   .     S
C162   C163    1.418   .     D
C162   N207    1.427   .     S
C163   C164    1.395   .     S
C163   O218    1.395   .     S
C165   C166    1.384   .     S
C166   C167    1.393   .     D
C167   C168    1.414   .     S
C167   N208    1.419   .     S
C168   C169    1.392   .     D
C168   O220    1.398   .     S
C170   C171    1.461   .     S
C170   N207    1.292   .     D
C172   C173    1.453   .     S
C172   N208    1.290   .     D
C173   C174    1.395   .     S
C173   C178    1.387   .     D
C174   C175    1.395   .     D
C175   C176    1.407   .     S
C175   C179    1.477   .     S
C176   C177    1.398   .     D
C177   C116    1.462   1_445 S
C177   C178    1.402   .     S
C179   C180    1.407   .     D
C179   C184    1.398   .     S
C180   C181    1.395   .     S
C181   C182    1.399   .     D
C181   C186    1.457   .     S
C182   C183    1.388   .     S
C183   C129    1.457   1_445 S
C183   C184    1.398   .     D
C185   N209    1.291   .     D
C186   N210    1.294   .     D
C187   C189    1.410   .     D
C187   C193    1.390   .     S
C187   N209    1.422   .     S
C188   C194    1.414   .     D
C188   C198    1.395   .     S
C188   N210    1.425   .     S
C189   C190    1.402   .     S
C189   O222    1.397   .     S
C190   C191    1.409   .     D
C191   C192    1.406   .     S
C191   C196    1.486   .     S
C192   C193    1.383   .     D
C194   C195    1.391   .     S
C194   O221    1.397   .     S
C195   C196    1.409   .     D
C196   C197    1.404   .     S
C197   C198    1.387   .     D
