data_137
_audit_creation_date              2023-09-08
_audit_creation_method            'Materials Studio'
_symmetry_space_group_name_H-M    'P1'
_symmetry_Int_Tables_number       1
_symmetry_cell_setting            triclinic
loop_
_symmetry_equiv_pos_as_xyz
  x,y,z
_cell_length_a                    24.1779
_cell_length_b                    24.1780
_cell_length_c                    3.4000
_cell_angle_alpha                 90.0000
_cell_angle_beta                  90.0000
_cell_angle_gamma                 59.9999
loop_
_atom_site_label
_atom_site_type_symbol
_atom_site_fract_x
_atom_site_fract_y
_atom_site_fract_z
_atom_site_U_iso_or_equiv
_atom_site_adp_type
_atom_site_occupancy
C1     C     0.41079   0.39724   1.46379   0.00000  Uiso   1.00
N2     N     0.39427   0.46627   1.46309   0.00000  Uiso   1.00
C3     C     0.44672   0.48283   1.46625   0.00000  Uiso   1.00
C4     C     0.42946   0.55335   1.47159   0.00000  Uiso   1.00
C5     C     0.48279   0.57052   1.47694   0.00000  Uiso   1.00
H6     H     0.46293   0.35763   1.46528   0.00000  Uiso   1.00
H7     H     0.37740   0.59266   1.47188   0.00000  Uiso   1.00
H8     H     0.47005   0.62279   1.48155   0.00000  Uiso   1.00
C9     C     0.58923   0.60277   1.47692   0.00000  Uiso   1.00
N10    N     0.60572   0.53375   1.47677   0.00000  Uiso   1.00
C11    C     0.55327   0.51716   1.47521   0.00000  Uiso   1.00
C12    C     0.57054   0.44663   1.47016   0.00000  Uiso   1.00
C13    C     0.51721   0.42946   1.46515   0.00000  Uiso   1.00
H14    H     0.53710   0.64242   1.47732   0.00000  Uiso   1.00
H15    H     0.62260   0.40732   1.46942   0.00000  Uiso   1.00
H16    H     0.52994   0.37720   1.46053   0.00000  Uiso   1.00
C17    C     0.19202   0.41073   1.45810   0.00000  Uiso   1.00
N18    N     0.13952   0.39421   1.45763   0.00000  Uiso   1.00
C19    C     0.07050   0.44666   1.46169   0.00000  Uiso   1.00
C20    C     0.01724   0.42940   1.46726   0.00000  Uiso   1.00
C21    C     0.94675   0.48273   1.47353   0.00000  Uiso   1.00
H22    H     0.17950   0.46287   1.46011   0.00000  Uiso   1.00
H23    H     0.02999   0.37734   1.46704   0.00000  Uiso   1.00
H24    H     0.90722   0.46999   1.47830   0.00000  Uiso   1.00
C25    C     0.80806   0.58916   1.47532   0.00000  Uiso   1.00
N26    N     0.86059   0.60566   1.47495   0.00000  Uiso   1.00
C27    C     0.92962   0.55321   1.47248   0.00000  Uiso   1.00
C28    C     0.98288   0.57048   1.46721   0.00000  Uiso   1.00
C29    C     0.05338   0.51715   1.46128   0.00000  Uiso   1.00
H30    H     0.82053   0.53704   1.47521   0.00000  Uiso   1.00
H31    H     0.97014   0.62254   1.46698   0.00000  Uiso   1.00
H32    H     0.09291   0.52988   1.45649   0.00000  Uiso   1.00
C33    C     0.39730   0.19196   1.46423   0.00000  Uiso   1.00
N34    N     0.46633   0.13946   1.46286   0.00000  Uiso   1.00
C35    C     0.48289   0.07044   1.46624   0.00000  Uiso   1.00
C36    C     0.55341   0.01718   1.47089   0.00000  Uiso   1.00
C37    C     0.57059   0.94668   1.47647   0.00000  Uiso   1.00
H38    H     0.35768   0.17944   1.46640   0.00000  Uiso   1.00
H39    H     0.59272   0.02993   1.47050   0.00000  Uiso   1.00
H40    H     0.62285   0.90715   1.48056   0.00000  Uiso   1.00
C41    C     0.60283   0.80799   1.47691   0.00000  Uiso   1.00
N42    N     0.53381   0.86053   1.47744   0.00000  Uiso   1.00
C43    C     0.51723   0.92955   1.47565   0.00000  Uiso   1.00
C44    C     0.44669   0.98282   1.47130   0.00000  Uiso   1.00
C45    C     0.42952   0.05332   1.46606   0.00000  Uiso   1.00
H46    H     0.64249   0.82047   1.47663   0.00000  Uiso   1.00
H47    H     0.40738   0.97008   1.47123   0.00000  Uiso   1.00
H48    H     0.37726   0.09285   1.46195   0.00000  Uiso   1.00
C49    C     0.63003   0.63641   1.47664   0.00000  Uiso   1.00
C50    C     0.63647   0.73356   1.47663   0.00000  Uiso   1.00
C51    C     0.73362   0.62996   1.47588   0.00000  Uiso   1.00
C52    C     0.59996   0.70323   1.47689   0.00000  Uiso   1.00
C53    C     0.70329   0.69680   1.47613   0.00000  Uiso   1.00
C54    C     0.69687   0.59989   1.47614   0.00000  Uiso   1.00
H55    H     0.72024   0.54818   1.47594   0.00000  Uiso   1.00
H56    H     0.54824   0.73158   1.47728   0.00000  Uiso   1.00
H57    H     0.73164   0.72017   1.47594   0.00000  Uiso   1.00
C58    C     0.37002   0.36358   1.46286   0.00000  Uiso   1.00
C59    C     0.36363   0.26639   1.46307   0.00000  Uiso   1.00
C60    C     0.26645   0.36996   1.46017   0.00000  Uiso   1.00
C61    C     0.40012   0.29675   1.46390   0.00000  Uiso   1.00
C62    C     0.29681   0.30312   1.46121   0.00000  Uiso   1.00
C63    C     0.30318   0.40006   1.46100   0.00000  Uiso   1.00
H64    H     0.27979   0.45178   1.46020   0.00000  Uiso   1.00
H65    H     0.45183   0.26843   1.46534   0.00000  Uiso   1.00
H66    H     0.26849   0.27973   1.46057   0.00000  Uiso   1.00
loop_
_geom_bond_atom_site_label_1
_geom_bond_atom_site_label_2
_geom_bond_distance
_geom_bond_site_symmetry_2
_ccdc_geom_bond_type
C1     N2      1.509   .     D
C1     H6      1.140   .     S
C1     C58     1.561   .     S
N2     C3      1.509   .     S
C3     C4      1.539   .     D
C3     C13     1.540   .     S
C4     C5      1.540   .     S
C4     H7      1.136   .     S
C5     H8      1.141   .     S
C5     C11     1.539   .     D
C9     N10     1.510   .     D
C9     H14     1.140   .     S
C9     C49     1.561   .     S
N10    C11     1.509   .     S
C11    C12     1.540   .     S
C12    C13     1.540   .     D
C12    H15     1.136   .     S
C13    H16     1.141   .     S
C17    N18     1.509   .     D
C17    H22     1.140   .     S
C17    C60     1.561   .     S
N18    C19     1.509   .     S
C19    C20     1.539   .     D
C19    C29     1.540   .     S
C20    C21     1.540   1_455 S
C20    H23     1.136   .     S
C21    C20     1.540   1_655 S
C21    H24     1.141   .     S
C21    C27     1.539   .     D
C25    N26     1.510   .     D
C25    H30     1.140   .     S
C25    C51     1.561   .     S
N26    C27     1.509   .     S
C27    C28     1.540   .     S
C28    C29     1.540   1_655 D
C28    H31     1.136   .     S
C29    C28     1.540   1_455 D
C29    H32     1.141   .     S
C33    N34     1.509   .     D
C33    H38     1.140   .     S
C33    C59     1.561   .     S
N34    C35     1.509   .     S
C35    C36     1.539   .     S
C35    C45     1.540   .     D
C36    C37     1.540   1_545 D
C36    H39     1.136   .     S
C37    C36     1.540   1_565 D
C37    H40     1.141   .     S
C37    C43     1.539   .     S
C41    N42     1.510   .     D
C41    H46     1.140   .     S
C41    C50     1.561   .     S
N42    C43     1.509   .     S
C43    C44     1.540   .     D
C44    C45     1.540   1_565 S
C44    H47     1.136   .     S
C45    C44     1.540   1_545 S
C45    H48     1.141   .     S
C49    C52     1.402   .     D
C49    C54     1.402   .     S
C50    C52     1.402   .     S
C50    C53     1.402   .     D
C51    C53     1.402   .     S
C51    C54     1.402   .     D
C52    H56     1.084   .     S
C53    H57     1.084   .     S
C54    H55     1.084   .     S
C58    C61     1.402   .     S
C58    C63     1.402   .     D
C59    C61     1.402   .     D
C59    C62     1.402   .     S
C60    C62     1.402   .     D
C60    C63     1.402   .     S
C61    H65     1.084   .     S
C62    H66     1.084   .     S
C63    H64     1.084   .     S
