data_138
_audit_creation_date              2023-09-08
_audit_creation_method            'Materials Studio'
_symmetry_space_group_name_H-M    'P1'
_symmetry_Int_Tables_number       1
_symmetry_cell_setting            triclinic
loop_
_symmetry_equiv_pos_as_xyz
  x,y,z
_cell_length_a                    6.2565
_cell_length_b                    33.6623
_cell_length_c                    37.2432
_cell_angle_alpha                 63.6212
_cell_angle_beta                  87.3491
_cell_angle_gamma                 88.4828
loop_
_atom_site_label
_atom_site_type_symbol
_atom_site_fract_x
_atom_site_fract_y
_atom_site_fract_z
_atom_site_U_iso_or_equiv
_atom_site_adp_type
_atom_site_occupancy
C1     C     0.77376  -0.72058   0.66967   0.00000  Uiso   1.00
C2     C     0.69991  -0.68799   0.62888   0.00000  Uiso   1.00
C3     C     0.77074  -0.70149   0.59922   0.00000  Uiso   1.00
C4     C     0.87950  -0.74626   0.61876   0.00000  Uiso   1.00
C5     C     0.93591  -0.75072   0.66045   0.00000  Uiso   1.00
C6     C     0.56573  -0.65144   0.61919   0.00000  Uiso   1.00
C7     C     0.73224  -0.67579   0.55883   0.00000  Uiso   1.00
C8     C     0.46537  -0.63148   0.57786   0.00000  Uiso   1.00
S9     S     0.35189  -0.57656   0.57161   0.00000  Uiso   1.00
C10    C     0.36310  -0.59360   0.62374   0.00000  Uiso   1.00
C11    C     0.48454  -0.63201   0.64341   0.00000  Uiso   1.00
C12    C     0.63496  -0.62908   0.54557   0.00000  Uiso   1.00
S13    S     0.52241  -0.61567   0.49517   0.00000  Uiso   1.00
C14    C     0.66983  -0.65963   0.49179   0.00000  Uiso   1.00
C15    C     0.76676  -0.68742   0.52722   0.00000  Uiso   1.00
C16    C     0.25249  -0.57082   0.64349   0.00000  Uiso   1.00
C17    C     0.66930  -0.66603   0.45613   0.00000  Uiso   1.00
N18    N     0.78459  -0.69717   0.45281   0.00000  Uiso   1.00
C19    C     0.75780  -0.70871   0.42182   0.00000  Uiso   1.00
C20    C     0.56002  -0.70617   0.40393   0.00000  Uiso   1.00
C21    C     0.53948  -0.72339   0.37650   0.00000  Uiso   1.00
C22    C     0.71549  -0.74260   0.36529   0.00000  Uiso   1.00
C23    C     0.91518  -0.74354   0.38139   0.00000  Uiso   1.00
C24    C     0.93458  -0.72759   0.40973   0.00000  Uiso   1.00
N25    N     0.68519  -0.76441   0.34033   0.00000  Uiso   1.00
C26    C     0.58999  -0.80695   0.35887   0.00000  Uiso   1.00
C27    C     0.74882  -0.74456   0.29940   0.00000  Uiso   1.00
C28    C     0.65255  -0.83834   0.39717   0.00000  Uiso   1.00
C29    C     0.57173  -0.88106   0.41457   0.00000  Uiso   1.00
C30    C     0.42274  -0.89451   0.39467   0.00000  Uiso   1.00
C31    C     0.35452  -0.86210   0.35705   0.00000  Uiso   1.00
C32    C     0.43487  -0.81933   0.33946   0.00000  Uiso   1.00
C33    C     0.76495  -0.69809   0.27710   0.00000  Uiso   1.00
C34    C     0.81721  -0.67908   0.23619   0.00000  Uiso   1.00
C35    C     0.84780  -0.70526   0.21542   0.00000  Uiso   1.00
C36    C     0.84759  -0.75191   0.23864   0.00000  Uiso   1.00
C37    C     0.80207  -0.77110   0.27963   0.00000  Uiso   1.00
N38    N     0.87639  -0.68439   0.17380   0.00000  Uiso   1.00
C39    C     0.80232  -0.70436   0.15398   0.00000  Uiso   1.00
C40    C     0.82320  -0.68907   0.11155   0.00000  Uiso   1.00
N41    N     0.34341  -0.93691   0.40755   0.00000  Uiso   1.00
S42    S     0.96739  -0.64150   0.07827   0.00000  Uiso   1.00
C43    C     0.85858  -0.64540   0.03326   0.00000  Uiso   1.00
C44    C     0.76863  -0.69268   0.05073   0.00000  Uiso   1.00
C45    C     0.73363  -0.71165   0.09249   0.00000  Uiso   1.00
C46    C     0.81026  -0.59468   0.53778   0.00000  Uiso   1.00
C47    C     0.27557  -0.66121   0.58094   0.00000  Uiso   1.00
C48    C     0.73257  -0.71163   0.02520   0.00000  Uiso   1.00
C49    C     0.80172  -0.69086  -0.01582   0.00000  Uiso   1.00
C50    C     0.73053  -0.71709  -0.03713   0.00000  Uiso   1.00
C51    C     0.56788  -0.75047  -0.00683   0.00000  Uiso   1.00
C52    C     0.62710  -0.75528   0.03483   0.00000  Uiso   1.00
C53    C     0.93041  -0.65355  -0.03059   0.00000  Uiso   1.00
C54    C     1.00634  -0.62754  -0.07001   0.00000  Uiso   1.00
C55    C     1.11745  -0.58979  -0.07575   0.00000  Uiso   1.00
S56    S     1.12563  -0.58243  -0.03156   0.00000  Uiso   1.00
C57    C     1.02700  -0.64055  -0.00003   0.00000  Uiso   1.00
C58    C     0.67733  -0.61071   0.01821   0.00000  Uiso   1.00
C59    C     1.22354  -0.67063   0.01658   0.00000  Uiso   1.00
C60    C     1.21792  -0.55883  -0.11285   0.00000  Uiso   1.00
N61    N     1.22798  -0.56746  -0.14376   0.00000  Uiso   1.00
C62    C     1.31524  -0.53831  -0.18081   0.00000  Uiso   1.00
C63    C     1.38891  -0.55701  -0.20649   0.00000  Uiso   1.00
C64    C     1.48368  -0.53149  -0.24389   0.00000  Uiso   1.00
C65    C     1.50440  -0.48517  -0.25825   0.00000  Uiso   1.00
C66    C     1.42306  -0.46578  -0.23361   0.00000  Uiso   1.00
C67    C     1.33229  -0.49175  -0.19574   0.00000  Uiso   1.00
N68    N     1.59908  -0.45889  -0.29629   0.00000  Uiso   1.00
C69    C     1.74266  -0.47706  -0.31579   0.00000  Uiso   1.00
C70    C     1.53299  -0.41356  -0.31885   0.00000  Uiso   1.00
C71    C     1.72394  -0.46581  -0.35675   0.00000  Uiso   1.00
C72    C     1.85914  -0.48491  -0.37550   0.00000  Uiso   1.00
C73    C     2.01837  -0.51619  -0.35442   0.00000  Uiso   1.00
C74    C     2.04319  -0.52532  -0.31381   0.00000  Uiso   1.00
C75    C     1.90876  -0.50637  -0.29488   0.00000  Uiso   1.00
C76    C     1.67922  -0.37928  -0.32751   0.00000  Uiso   1.00
C77    C     1.62171  -0.33536  -0.35113   0.00000  Uiso   1.00
C78    C     1.41793  -0.32441  -0.36792   0.00000  Uiso   1.00
C79    C     1.27005  -0.35913  -0.35797   0.00000  Uiso   1.00
C80    C     1.32606  -0.40302  -0.33356   0.00000  Uiso   1.00
N81    N     2.13301  -0.53580  -0.37532   0.00000  Uiso   1.00
N82    N     1.37577  -0.27991  -0.39279   0.00000  Uiso   1.00
C83    C     1.24936  -0.26921  -0.42264   0.00000  Uiso   1.00
C84    C     1.20151  -0.22423  -0.44926   0.00000  Uiso   1.00
S85    S     1.30319  -0.17960  -0.44251   0.00000  Uiso   1.00
C86    C     1.15070  -0.13807  -0.48625   0.00000  Uiso   1.00
C87    C     1.07736  -0.16479  -0.50786   0.00000  Uiso   1.00
C88    C     1.08832  -0.21085  -0.48405   0.00000  Uiso   1.00
C89    C     1.01824  -0.14228  -0.54753   0.00000  Uiso   1.00
C90    C     1.04820  -0.09594  -0.57007   0.00000  Uiso   1.00
C91    C     0.96294  -0.07976  -0.61154   0.00000  Uiso   1.00
C92    C     0.84153  -0.12016  -0.60982   0.00000  Uiso   1.00
C93    C     0.92779  -0.16127  -0.57347   0.00000  Uiso   1.00
C94    C     1.16197  -0.07231  -0.55472   0.00000  Uiso   1.00
C95    C     1.19965  -0.02672  -0.57111   0.00000  Uiso   1.00
C96    C     1.30899  -0.01316  -0.54675   0.00000  Uiso   1.00
S97    S     1.36241  -0.05723  -0.49923   0.00000  Uiso   1.00
C98    C     1.28758  -0.09923  -0.51674   0.00000  Uiso   1.00
C99    C     1.37885   0.03091  -0.55703   0.00000  Uiso   1.00
C100   C     0.95732  -0.12262  -0.46843   0.00000  Uiso   1.00
C101   C     1.49643  -0.11494  -0.53017   0.00000  Uiso   1.00
H102   H     0.70713  -0.71838   0.69775   0.00000  Uiso   1.00
H103   H     0.90081  -0.76734   0.60189   0.00000  Uiso   1.00
H104   H     1.06182  -0.77014   0.68301   0.00000  Uiso   1.00
H105   H     0.51966  -0.64773   0.67668   0.00000  Uiso   1.00
H106   H     0.86825  -0.71780   0.53174   0.00000  Uiso   1.00
H107   H     0.26626  -0.58303   0.67717   0.00000  Uiso   1.00
H108   H     0.56690  -0.64368   0.43011   0.00000  Uiso   1.00
H109   H     0.41555  -0.68991   0.41194   0.00000  Uiso   1.00
H110   H     0.37823  -0.72196   0.36290   0.00000  Uiso   1.00
H111   H     1.06149  -0.75738   0.37124   0.00000  Uiso   1.00
H112   H     1.09695  -0.72996   0.42326   0.00000  Uiso   1.00
H113   H     0.77113  -0.82871   0.41425   0.00000  Uiso   1.00
H114   H     0.62505  -0.90604   0.44540   0.00000  Uiso   1.00
H115   H     0.23013  -0.87086   0.34035   0.00000  Uiso   1.00
H116   H     0.37521  -0.79415   0.30923   0.00000  Uiso   1.00
H117   H     0.73506  -0.67578   0.29259   0.00000  Uiso   1.00
H118   H     0.83620  -0.64162   0.21872   0.00000  Uiso   1.00
H119   H     0.88538  -0.77449   0.22366   0.00000  Uiso   1.00
H120   H     0.80796  -0.80874   0.29741   0.00000  Uiso   1.00
H121   H     0.71209  -0.73690   0.17064   0.00000  Uiso   1.00
H122   H     0.63936  -0.74333   0.11079   0.00000  Uiso   1.00
H123   H     0.81842  -0.57031   0.50458   0.00000  Uiso   1.00
H124   H     0.97117  -0.61230   0.54665   0.00000  Uiso   1.00
H125   H     0.33224  -0.69714   0.59301   0.00000  Uiso   1.00
H126   H     0.20861  -0.65016   0.54997   0.00000  Uiso   1.00
H127   H     0.79905  -0.70926  -0.06844   0.00000  Uiso   1.00
H128   H     0.44016  -0.76546  -0.01790   0.00000  Uiso   1.00
H129   H     0.60975  -0.78168   0.06726   0.00000  Uiso   1.00
H130   H     0.97519  -0.63797  -0.09453   0.00000  Uiso   1.00
H131   H     0.51871  -0.62820   0.02169   0.00000  Uiso   1.00
H132   H     0.71071  -0.58713  -0.01475   0.00000  Uiso   1.00
H133   H     1.35624  -0.66081  -0.00777   0.00000  Uiso   1.00
H134   H     1.17769  -0.70665   0.02647   0.00000  Uiso   1.00
H135   H     1.28854  -0.52684  -0.11522   0.00000  Uiso   1.00
H136   H     1.37096  -0.59407  -0.19657   0.00000  Uiso   1.00
H137   H     1.54587  -0.54781  -0.26341   0.00000  Uiso   1.00
H138   H     1.43138  -0.42835  -0.24472   0.00000  Uiso   1.00
H139   H     1.27096  -0.47489  -0.17660   0.00000  Uiso   1.00
H140   H     1.59711  -0.44085  -0.37480   0.00000  Uiso   1.00
H141   H     1.84320  -0.47545  -0.40869   0.00000  Uiso   1.00
H142   H     2.17579  -0.54867  -0.29598   0.00000  Uiso   1.00
H143   H     1.93334  -0.51465  -0.26216   0.00000  Uiso   1.00
H144   H     1.84653  -0.38734  -0.31516   0.00000  Uiso   1.00
H145   H     1.73961  -0.30765  -0.35716   0.00000  Uiso   1.00
H146   H     1.10192  -0.35141  -0.36997   0.00000  Uiso   1.00
H147   H     1.20340  -0.43041  -0.32554   0.00000  Uiso   1.00
H148   H     1.17278  -0.29625  -0.42817   0.00000  Uiso   1.00
H149   H     1.01272  -0.23666  -0.49142   0.00000  Uiso   1.00
H150   H     0.99639  -0.04443  -0.63520   0.00000  Uiso   1.00
H151   H     0.71750  -0.11516  -0.63296   0.00000  Uiso   1.00
H152   H     0.93552  -0.19853  -0.56363   0.00000  Uiso   1.00
H153   H     1.14192  -0.00374  -0.60223   0.00000  Uiso   1.00
H154   H     1.46569   0.03800  -0.53427   0.00000  Uiso   1.00
H155   H     0.84370  -0.15159  -0.45177   0.00000  Uiso   1.00
H156   H     0.86996  -0.09470  -0.49363   0.00000  Uiso   1.00
H157   H     1.52250  -0.09536  -0.56403   0.00000  Uiso   1.00
H158   H     1.48457  -0.15176  -0.52189   0.00000  Uiso   1.00
H159   H     0.77108  -0.57594   0.55634   0.00000  Uiso   1.00
H160   H     0.14541  -0.65833   0.60213   0.00000  Uiso   1.00
H161   H     0.66838  -0.59112   0.03655   0.00000  Uiso   1.00
H162   H     1.28229  -0.66672   0.04335   0.00000  Uiso   1.00
H163   H     1.01521  -0.11014  -0.44670   0.00000  Uiso   1.00
H164   H     1.63671  -0.10933  -0.51452   0.00000  Uiso   1.00
loop_
_geom_bond_atom_site_label_1
_geom_bond_atom_site_label_2
_geom_bond_distance
_geom_bond_site_symmetry_2
_ccdc_geom_bond_type
C1     C2      1.511   .     D
C1     C5      1.549   .     S
C1     H102    1.140   .     S
C2     C3      1.419   .     S
C2     C6      1.388   .     S
C3     C4      1.510   .     S
C3     C7      1.391   .     D
C4     C5      1.549   .     D
C4     H103    1.140   .     S
C5     H104    1.140   .     S
C6     C8      1.537   .     S
C6     C11     1.401   .     D
C7     C12     1.541   .     S
C7     C15     1.403   .     S
C8     S9      1.881   .     S
C8     C12     1.542   .     S
C8     C47     1.541   .     S
S9     C10     1.768   .     D
C10    C11     1.394   .     S
C10    C16     1.426   .     S
C11    H105    1.140   .     S
C12    S13     1.891   .     S
C12    C46     1.539   .     S
S13    C14     1.772   .     S
C14    C15     1.390   .     D
C14    C17     1.437   .     S
C15    H106    1.140   .     S
C16    N81     1.307   1_356 D
C16    H107    1.140   .     S
C17    N18     1.304   .     D
C17    H108    1.140   .     S
N18    C19     1.390   .     S
C19    C20     1.415   .     D
C19    C24     1.415   .     S
C20    C21     1.392   .     S
C20    H109    1.140   .     S
C21    C22     1.402   .     D
C21    H110    1.140   .     S
C22    C23     1.404   .     S
C22    N25     1.438   .     S
C23    C24     1.391   .     D
C23    H111    1.140   .     S
C24    H112    1.140   .     S
N25    C26     1.418   .     S
N25    C27     1.408   .     S
C26    C28     1.412   .     D
C26    C32     1.411   .     S
C27    C33     1.412   .     D
C27    C37     1.413   .     S
C28    C29     1.387   .     S
C28    H113    1.140   .     S
C29    C30     1.417   .     D
C29    H114    1.140   .     S
C30    C31     1.417   .     S
C30    N41     1.386   .     S
C31    C32     1.387   .     D
C31    H115    1.140   .     S
C32    H116    1.140   .     S
C33    C34     1.392   .     S
C33    H117    1.140   .     S
C34    C35     1.412   .     D
C34    H118    1.140   .     S
C35    C36     1.417   .     S
C35    N38     1.393   .     S
C36    C37     1.386   .     D
C36    H119    1.140   .     S
C37    H120    1.140   .     S
N38    C39     1.304   .     D
C39    C40     1.429   .     S
C39    H121    1.140   .     S
C40    S42     1.767   .     D
C40    C45     1.391   .     S
N41    C99     1.307   1_446 D
S42    C43     1.896   .     S
C43    C44     1.538   .     S
C43    C57     1.544   .     S
C43    C58     1.540   .     S
C44    C45     1.403   .     D
C44    C48     1.389   .     S
C45    H122    1.140   .     S
C46    H123    1.140   .     S
C46    H124    1.140   .     S
C46    H159    1.140   .     S
C47    H125    1.140   .     S
C47    H126    1.140   .     S
C47    H160    1.140   .     S
C48    C49     1.420   .     S
C48    C52     1.511   .     D
C49    C50     1.511   .     S
C49    C53     1.388   .     D
C50    C51     1.549   .     D
C50    H127    1.140   .     S
C51    C52     1.548   .     S
C51    H128    1.140   .     S
C52    H129    1.140   .     S
C53    C54     1.401   .     S
C53    C57     1.540   .     S
C54    C55     1.391   .     D
C54    H130    1.140   .     S
C55    S56     1.773   .     S
C55    C60     1.437   .     S
S56    C57     1.882   .     S
C57    C59     1.539   .     S
C58    H131    1.140   .     S
C58    H132    1.140   .     S
C58    H161    1.140   .     S
C59    H133    1.140   .     S
C59    H134    1.140   .     S
C59    H162    1.140   .     S
C60    N61     1.305   .     D
C60    H135    1.140   .     S
N61    C62     1.386   .     S
C62    C63     1.415   .     D
C62    C67     1.416   .     S
C63    C64     1.385   .     S
C63    H136    1.140   .     S
C64    C65     1.413   .     D
C64    H137    1.140   .     S
C65    C66     1.414   .     S
C65    N68     1.406   .     S
C66    C67     1.390   .     D
C66    H138    1.140   .     S
C67    H139    1.140   .     S
N68    C69     1.419   .     S
N68    C70     1.437   .     S
C69    C71     1.409   .     S
C69    C75     1.413   .     D
C70    C76     1.404   .     D
C70    C80     1.404   .     S
C71    C72     1.390   .     D
C71    H140    1.140   .     S
C72    C73     1.414   .     S
C72    H141    1.140   .     S
C73    C74     1.419   .     D
C73    N81     1.391   .     S
C74    C75     1.388   .     S
C74    H142    1.140   .     S
C75    H143    1.140   .     S
C76    C77     1.391   .     S
C76    H144    1.140   .     S
C77    C78     1.413   .     D
C77    H145    1.140   .     S
C78    C79     1.414   .     S
C78    N82     1.393   .     S
C79    C80     1.393   .     D
C79    H146    1.140   .     S
C80    H147    1.140   .     S
N81    C16     1.307   1_754 D
N82    C83     1.304   .     D
C83    C84     1.426   .     S
C83    H148    1.140   .     S
C84    S85     1.768   .     D
C84    C88     1.390   .     S
S85    C86     1.889   .     S
C86    C87     1.538   .     S
C86    C98     1.543   .     S
C86    C100    1.541   .     S
C87    C88     1.405   .     D
C87    C89     1.391   .     S
C88    H149    1.140   .     S
C89    C90     1.418   .     S
C89    C93     1.510   .     D
C90    C91     1.510   .     S
C90    C94     1.392   .     D
C91    C92     1.550   .     D
C91    H150    1.140   .     S
C92    C93     1.550   .     S
C92    H151    1.140   .     S
C93    H152    1.140   .     S
C94    C95     1.399   .     S
C94    C98     1.538   .     S
C95    C96     1.393   .     D
C95    H153    1.140   .     S
C96    S97     1.772   .     S
C96    C99     1.433   .     S
S97    C98     1.878   .     S
C98    C101    1.541   .     S
C99    N41     1.307   1_664 D
C99    H154    1.140   .     S
C100   H155    1.140   .     S
C100   H156    1.140   .     S
C100   H163    1.140   .     S
C101   H157    1.140   .     S
C101   H158    1.140   .     S
C101   H164    1.140   .     S
