data_139
_audit_creation_date              2023-09-08
_audit_creation_method            'Materials Studio'
_symmetry_space_group_name_H-M    'P1'
_symmetry_Int_Tables_number       1
_symmetry_cell_setting            triclinic
loop_
_symmetry_equiv_pos_as_xyz
  x,y,z
_cell_length_a                    22.5800
_cell_length_b                    22.5800
_cell_length_c                    7.3000
_cell_angle_alpha                 90.0000
_cell_angle_beta                  90.0000
_cell_angle_gamma                 90.0000
loop_
_atom_site_label
_atom_site_type_symbol
_atom_site_fract_x
_atom_site_fract_y
_atom_site_fract_z
_atom_site_U_iso_or_equiv
_atom_site_adp_type
_atom_site_occupancy
C1     C     0.40787   0.83232   0.55886   0.00000  Uiso   1.00
C2     C     0.44237   0.86660   0.67653   0.00000  Uiso   1.00
C3     C     0.26930   0.69328   0.95056   0.00000  Uiso   1.00
H4     H     0.42442   0.78998   0.51138   0.00000  Uiso   1.00
H5     H     0.48530   0.84913   0.71094   0.00000  Uiso   1.00
H6     H     0.28476   0.64960   0.91170   0.00000  Uiso   1.00
H7     H     0.03057   0.39307   0.07885   0.00000  Uiso   1.00
C8     C     0.59213   0.16768   0.55886   0.00000  Uiso   1.00
C9     C     0.55763   0.13340   0.67653   0.00000  Uiso   1.00
C10    C     0.73070   0.30672   0.95056   0.00000  Uiso   1.00
H11    H     0.57558   0.21002   0.51138   0.00000  Uiso   1.00
H12    H     0.51470   0.15087   0.71094   0.00000  Uiso   1.00
H13    H     0.71524   0.35040   0.91170   0.00000  Uiso   1.00
H14    H     0.96943   0.60693   0.07885   0.00000  Uiso   1.00
C15    C     0.16768   0.40787   0.55886   0.00000  Uiso   1.00
C16    C     0.13340   0.44237   0.67653   0.00000  Uiso   1.00
C17    C     0.30672   0.26930   0.95056   0.00000  Uiso   1.00
H18    H     0.21002   0.42442   0.51138   0.00000  Uiso   1.00
H19    H     0.15087   0.48530   0.71094   0.00000  Uiso   1.00
H20    H     0.35040   0.28476   0.91170   0.00000  Uiso   1.00
H21    H     0.60693   0.03057   0.07885   0.00000  Uiso   1.00
C22    C     0.83232   0.59213   0.55886   0.00000  Uiso   1.00
C23    C     0.86660   0.55763   0.67653   0.00000  Uiso   1.00
C24    C     0.69328   0.73070   0.95056   0.00000  Uiso   1.00
H25    H     0.78998   0.57558   0.51138   0.00000  Uiso   1.00
H26    H     0.84913   0.51470   0.71094   0.00000  Uiso   1.00
H27    H     0.64960   0.71524   0.91170   0.00000  Uiso   1.00
H28    H     0.39307   0.96943   0.07885   0.00000  Uiso   1.00
C29    C     0.59213   0.83232   0.44114   0.00000  Uiso   1.00
C30    C     0.55763   0.86660   0.32347   0.00000  Uiso   1.00
C31    C     0.73070   0.69328   0.04944   0.00000  Uiso   1.00
H32    H     0.57558   0.78998   0.48862   0.00000  Uiso   1.00
H33    H     0.51470   0.84913   0.28906   0.00000  Uiso   1.00
H34    H     0.71524   0.64960   0.08830   0.00000  Uiso   1.00
H35    H     0.96943   0.39307   0.92115   0.00000  Uiso   1.00
C36    C     0.40787   0.16768   0.44114   0.00000  Uiso   1.00
C37    C     0.44237   0.13340   0.32347   0.00000  Uiso   1.00
C38    C     0.26930   0.30672   0.04944   0.00000  Uiso   1.00
H39    H     0.42442   0.21002   0.48862   0.00000  Uiso   1.00
H40    H     0.48530   0.15087   0.28906   0.00000  Uiso   1.00
H41    H     0.28476   0.35040   0.08830   0.00000  Uiso   1.00
H42    H     0.03057   0.60693   0.92115   0.00000  Uiso   1.00
C43    C     0.83232   0.40787   0.44114   0.00000  Uiso   1.00
C44    C     0.86660   0.44237   0.32347   0.00000  Uiso   1.00
C45    C     0.69328   0.26930   0.04944   0.00000  Uiso   1.00
H46    H     0.78998   0.42442   0.48862   0.00000  Uiso   1.00
H47    H     0.84913   0.48530   0.28906   0.00000  Uiso   1.00
H48    H     0.64960   0.28476   0.08830   0.00000  Uiso   1.00
H49    H     0.39307   0.03057   0.92115   0.00000  Uiso   1.00
C50    C     0.16768   0.59213   0.44114   0.00000  Uiso   1.00
C51    C     0.13340   0.55763   0.32347   0.00000  Uiso   1.00
C52    C     0.30672   0.73070   0.04944   0.00000  Uiso   1.00
H53    H     0.21002   0.57558   0.48862   0.00000  Uiso   1.00
H54    H     0.15087   0.51470   0.28906   0.00000  Uiso   1.00
H55    H     0.35040   0.71524   0.08830   0.00000  Uiso   1.00
H56    H     0.60693   0.96943   0.92115   0.00000  Uiso   1.00
C57    C     0.09213   0.66768   0.44114   0.00000  Uiso   1.00
C58    C     0.05763   0.63340   0.32347   0.00000  Uiso   1.00
C59    C     0.23070   0.80672   0.04944   0.00000  Uiso   1.00
H60    H     0.07558   0.71002   0.48862   0.00000  Uiso   1.00
H61    H     0.01470   0.65087   0.28906   0.00000  Uiso   1.00
H62    H     0.21524   0.85040   0.08830   0.00000  Uiso   1.00
H63    H     0.46943   0.10693   0.92115   0.00000  Uiso   1.00
C64    C     0.90787   0.33232   0.44114   0.00000  Uiso   1.00
C65    C     0.94237   0.36660   0.32347   0.00000  Uiso   1.00
C66    C     0.76930   0.19328   0.04944   0.00000  Uiso   1.00
H67    H     0.92442   0.28998   0.48862   0.00000  Uiso   1.00
H68    H     0.98530   0.34913   0.28906   0.00000  Uiso   1.00
H69    H     0.78476   0.14960   0.08830   0.00000  Uiso   1.00
H70    H     0.53057   0.89307   0.92115   0.00000  Uiso   1.00
C71    C     0.33232   0.09213   0.44114   0.00000  Uiso   1.00
C72    C     0.36660   0.05763   0.32347   0.00000  Uiso   1.00
C73    C     0.19328   0.23070   0.04944   0.00000  Uiso   1.00
H74    H     0.28998   0.07558   0.48862   0.00000  Uiso   1.00
H75    H     0.34913   0.01470   0.28906   0.00000  Uiso   1.00
H76    H     0.14960   0.21524   0.08830   0.00000  Uiso   1.00
H77    H     0.89307   0.46943   0.92115   0.00000  Uiso   1.00
C78    C     0.66768   0.90787   0.44114   0.00000  Uiso   1.00
C79    C     0.63340   0.94237   0.32347   0.00000  Uiso   1.00
C80    C     0.80672   0.76930   0.04944   0.00000  Uiso   1.00
H81    H     0.71002   0.92442   0.48862   0.00000  Uiso   1.00
H82    H     0.65087   0.98530   0.28906   0.00000  Uiso   1.00
H83    H     0.85040   0.78476   0.08830   0.00000  Uiso   1.00
H84    H     0.10693   0.53057   0.92115   0.00000  Uiso   1.00
C85    C     0.90787   0.66768   0.55886   0.00000  Uiso   1.00
C86    C     0.94237   0.63340   0.67653   0.00000  Uiso   1.00
C87    C     0.76930   0.80672   0.95056   0.00000  Uiso   1.00
H88    H     0.92442   0.71002   0.51138   0.00000  Uiso   1.00
H89    H     0.98530   0.65087   0.71094   0.00000  Uiso   1.00
H90    H     0.78476   0.85040   0.91170   0.00000  Uiso   1.00
H91    H     0.53057   0.10693   0.07885   0.00000  Uiso   1.00
C92    C     0.09213   0.33232   0.55886   0.00000  Uiso   1.00
C93    C     0.05763   0.36660   0.67653   0.00000  Uiso   1.00
C94    C     0.23070   0.19328   0.95056   0.00000  Uiso   1.00
H95    H     0.07558   0.28998   0.51138   0.00000  Uiso   1.00
H96    H     0.01470   0.34913   0.71094   0.00000  Uiso   1.00
H97    H     0.21524   0.14960   0.91170   0.00000  Uiso   1.00
H98    H     0.46943   0.89307   0.07885   0.00000  Uiso   1.00
C99    C     0.66768   0.09213   0.55886   0.00000  Uiso   1.00
C100   C     0.63340   0.05763   0.67653   0.00000  Uiso   1.00
C101   C     0.80672   0.23070   0.95056   0.00000  Uiso   1.00
H102   H     0.71002   0.07558   0.51138   0.00000  Uiso   1.00
H103   H     0.65087   0.01470   0.71094   0.00000  Uiso   1.00
H104   H     0.85040   0.21524   0.91170   0.00000  Uiso   1.00
H105   H     0.10693   0.46943   0.07885   0.00000  Uiso   1.00
C106   C     0.33232   0.90787   0.55886   0.00000  Uiso   1.00
C107   C     0.36660   0.94237   0.67653   0.00000  Uiso   1.00
C108   C     0.19328   0.76930   0.95056   0.00000  Uiso   1.00
H109   H     0.28998   0.92442   0.51138   0.00000  Uiso   1.00
H110   H     0.34913   0.98530   0.71094   0.00000  Uiso   1.00
H111   H     0.14960   0.78476   0.91170   0.00000  Uiso   1.00
H112   H     0.89307   0.53057   0.07885   0.00000  Uiso   1.00
C113   C     0.42175   0.92175   0.74369   0.00000  Uiso   1.00
N114   N     0.31911   0.81911   0.38951   0.00000  Uiso   1.00
C115   C     0.32318   0.82318   0.20549   0.00000  Uiso   1.00
C116   C     0.96035   0.46035   0.12833   0.00000  Uiso   1.00
H117   H     0.35380   0.85380   0.14106   0.00000  Uiso   1.00
C118   C     0.57825   0.07825   0.74369   0.00000  Uiso   1.00
N119   N     0.68089   0.18089   0.38951   0.00000  Uiso   1.00
C120   C     0.67682   0.17682   0.20549   0.00000  Uiso   1.00
C121   C     0.03965   0.53965   0.12833   0.00000  Uiso   1.00
H122   H     0.64620   0.14620   0.14106   0.00000  Uiso   1.00
C123   C     0.07825   0.42175   0.74369   0.00000  Uiso   1.00
N124   N     0.18089   0.31911   0.38951   0.00000  Uiso   1.00
C125   C     0.17682   0.32318   0.20549   0.00000  Uiso   1.00
C126   C     0.53965   0.96035   0.12833   0.00000  Uiso   1.00
H127   H     0.14620   0.35380   0.14106   0.00000  Uiso   1.00
C128   C     0.92175   0.57825   0.74369   0.00000  Uiso   1.00
N129   N     0.81911   0.68089   0.38951   0.00000  Uiso   1.00
C130   C     0.82318   0.67682   0.20549   0.00000  Uiso   1.00
C131   C     0.46035   0.03965   0.12833   0.00000  Uiso   1.00
H132   H     0.85380   0.64620   0.14106   0.00000  Uiso   1.00
C133   C     0.57825   0.92175   0.25631   0.00000  Uiso   1.00
N134   N     0.68089   0.81911   0.61049   0.00000  Uiso   1.00
C135   C     0.67682   0.82318   0.79451   0.00000  Uiso   1.00
C136   C     0.03965   0.46035   0.87167   0.00000  Uiso   1.00
H137   H     0.64620   0.85380   0.85894   0.00000  Uiso   1.00
C138   C     0.42175   0.07825   0.25631   0.00000  Uiso   1.00
N139   N     0.31911   0.18089   0.61049   0.00000  Uiso   1.00
C140   C     0.32318   0.17682   0.79451   0.00000  Uiso   1.00
C141   C     0.96035   0.53965   0.87167   0.00000  Uiso   1.00
H142   H     0.35380   0.14620   0.85894   0.00000  Uiso   1.00
C143   C     0.92175   0.42175   0.25631   0.00000  Uiso   1.00
N144   N     0.81911   0.31911   0.61049   0.00000  Uiso   1.00
C145   C     0.82318   0.32318   0.79451   0.00000  Uiso   1.00
C146   C     0.46035   0.96035   0.87167   0.00000  Uiso   1.00
H147   H     0.85380   0.35380   0.85894   0.00000  Uiso   1.00
C148   C     0.07825   0.57825   0.25631   0.00000  Uiso   1.00
N149   N     0.18089   0.68089   0.61049   0.00000  Uiso   1.00
C150   C     0.17682   0.67682   0.79451   0.00000  Uiso   1.00
C151   C     0.53965   0.03965   0.87167   0.00000  Uiso   1.00
H152   H     0.14620   0.64620   0.85894   0.00000  Uiso   1.00
C153   C     0.64729   0.14729   0.50095   0.00000  Uiso   1.00
C154   C     0.78758   0.28758   0.90162   0.00000  Uiso   1.00
C155   C     0.35271   0.85271   0.50095   0.00000  Uiso   1.00
C156   C     0.21242   0.71242   0.90162   0.00000  Uiso   1.00
C157   C     0.85271   0.64729   0.50095   0.00000  Uiso   1.00
C158   C     0.71242   0.78758   0.90162   0.00000  Uiso   1.00
C159   C     0.14729   0.35271   0.50095   0.00000  Uiso   1.00
C160   C     0.28758   0.21242   0.90162   0.00000  Uiso   1.00
C161   C     0.35271   0.14729   0.49905   0.00000  Uiso   1.00
C162   C     0.21242   0.28758   0.09838   0.00000  Uiso   1.00
C163   C     0.64729   0.85271   0.49905   0.00000  Uiso   1.00
C164   C     0.78758   0.71242   0.09838   0.00000  Uiso   1.00
C165   C     0.14729   0.64729   0.49905   0.00000  Uiso   1.00
C166   C     0.28758   0.78758   0.09838   0.00000  Uiso   1.00
C167   C     0.85271   0.35271   0.49905   0.00000  Uiso   1.00
C168   C     0.71242   0.21242   0.09838   0.00000  Uiso   1.00
C169   C     0.00000   0.42181   0.00000   0.00000  Uiso   1.00
C170   C     0.00000   0.57819   0.00000   0.00000  Uiso   1.00
C171   C     0.57819   0.00000   0.00000   0.00000  Uiso   1.00
C172   C     0.42181   0.00000   0.00000   0.00000  Uiso   1.00
C173   C     0.50000   0.07819   0.00000   0.00000  Uiso   1.00
C174   C     0.50000   0.92181   0.00000   0.00000  Uiso   1.00
C175   C     0.92181   0.50000   0.00000   0.00000  Uiso   1.00
C176   C     0.07819   0.50000   0.00000   0.00000  Uiso   1.00
C177   C     0.00000   0.50000   0.24832   0.00000  Uiso   1.00
C178   C     0.50000   0.00000   0.24832   0.00000  Uiso   1.00
C179   C     0.00000   0.50000   0.75168   0.00000  Uiso   1.00
C180   C     0.50000   0.00000   0.75168   0.00000  Uiso   1.00
H181   H     0.97186   0.52814   0.33858   0.00000  Uiso   1.00
H182   H     0.02814   0.47186   0.33858   0.00000  Uiso   1.00
H183   H     0.47186   0.97186   0.33858   0.00000  Uiso   1.00
H184   H     0.52814   0.02814   0.33858   0.00000  Uiso   1.00
H185   H     0.02814   0.52814   0.66142   0.00000  Uiso   1.00
H186   H     0.97186   0.47186   0.66142   0.00000  Uiso   1.00
H187   H     0.52814   0.97186   0.66142   0.00000  Uiso   1.00
H188   H     0.47186   0.02814   0.66142   0.00000  Uiso   1.00
loop_
_geom_bond_atom_site_label_1
_geom_bond_atom_site_label_2
_geom_bond_distance
_geom_bond_site_symmetry_2
_ccdc_geom_bond_type
C1     C2      1.394   .     S
C1     H4      1.083   .     S
C1     C155    1.394   .     D
C2     H5      1.076   .     S
C2     C113    1.417   .     D
C3     H6      1.084   .     S
C3     C52     1.396   1_556 D
C3     C156    1.401   .     S
H7     C169    1.109   .     S
C8     C9      1.394   .     D
C8     H11     1.083   .     S
C8     C153    1.394   .     S
C9     H12     1.076   .     S
C9     C118    1.417   .     S
C10    H13     1.084   .     S
C10    C45     1.396   1_556 D
C10    C154    1.401   .     S
H14    C170    1.109   1_655 S
C15    C16     1.394   .     D
C15    H18     1.083   .     S
C15    C159    1.394   .     S
C16    H19     1.076   .     S
C16    C123    1.417   .     S
C17    H20     1.084   .     S
C17    C38     1.396   1_556 S
C17    C160    1.401   .     D
H21    C171    1.109   .     S
C22    C23     1.394   .     D
C22    H25     1.083   .     S
C22    C157    1.394   .     S
C23    H26     1.076   .     S
C23    C128    1.417   .     S
C24    H27     1.084   .     S
C24    C31     1.396   1_556 D
C24    C158    1.401   .     S
H28    C172    1.109   1_565 S
C29    C30     1.394   .     D
C29    H32     1.083   .     S
C29    C163    1.394   .     S
C30    H33     1.076   .     S
C30    C133    1.417   .     S
C31    C24     1.396   1_554 D
C31    H34     1.084   .     S
C31    C164    1.401   .     S
H35    C169    1.109   1_656 S
C36    C37     1.394   .     S
C36    H39     1.083   .     S
C36    C161    1.394   .     D
C37    H40     1.076   .     S
C37    C138    1.417   .     D
C38    C17     1.396   1_554 S
C38    H41     1.084   .     S
C38    C162    1.401   .     D
H42    C170    1.109   1_556 S
C43    C44     1.394   .     S
C43    H46     1.083   .     S
C43    C167    1.394   .     D
C44    H47     1.076   .     S
C44    C143    1.417   .     D
C45    C10     1.396   1_554 D
C45    H48     1.084   .     S
C45    C168    1.401   .     S
H49    C172    1.109   1_556 S
C50    C51     1.394   .     D
C50    H53     1.083   .     S
C50    C165    1.394   .     S
C51    H54     1.076   .     S
C51    C148    1.417   .     S
C52    C3      1.396   1_554 D
C52    H55     1.084   .     S
C52    C166    1.401   .     S
H56    C171    1.109   1_566 S
C57    C58     1.394   .     S
C57    H60     1.083   .     S
C57    C165    1.394   .     D
C58    H61     1.076   .     S
C58    C148    1.417   .     D
C59    H62     1.084   .     S
C59    C108    1.396   1_554 S
C59    C166    1.401   .     D
H63    C173    1.109   1_556 S
C64    C65     1.394   .     D
C64    H67     1.083   .     S
C64    C167    1.394   .     S
C65    H68     1.076   .     S
C65    C143    1.417   .     S
C66    H69     1.084   .     S
C66    C101    1.396   1_554 S
C66    C168    1.401   .     D
H70    C174    1.109   1_556 S
C71    C72     1.394   .     D
C71    H74     1.083   .     S
C71    C161    1.394   .     S
C72    H75     1.076   .     S
C72    C138    1.417   .     S
C73    H76     1.084   .     S
C73    C94     1.396   1_554 D
C73    C162    1.401   .     S
H77    C175    1.109   1_556 S
C78    C79     1.394   .     S
C78    H81     1.083   .     S
C78    C163    1.394   .     D
C79    H82     1.076   .     S
C79    C133    1.417   .     D
C80    H83     1.084   .     S
C80    C87     1.396   1_554 S
C80    C164    1.401   .     D
H84    C176    1.109   1_556 S
C85    C86     1.394   .     S
C85    H88     1.083   .     S
C85    C157    1.394   .     D
C86    H89     1.076   .     S
C86    C128    1.417   .     D
C87    C80     1.396   1_556 S
C87    H90     1.084   .     S
C87    C158    1.401   .     D
H91    C173    1.109   .     S
C92    C93     1.394   .     S
C92    H95     1.083   .     S
C92    C159    1.394   .     D
C93    H96     1.076   .     S
C93    C123    1.417   .     D
C94    C73     1.396   1_556 D
C94    H97     1.084   .     S
C94    C160    1.401   .     S
H98    C174    1.109   .     S
C99    C100    1.394   .     S
C99    H102    1.083   .     S
C99    C153    1.394   .     D
C100   H103    1.076   .     S
C100   C118    1.417   .     D
C101   C66     1.396   1_556 S
C101   H104    1.084   .     S
C101   C154    1.401   .     D
H105   C176    1.109   .     S
C106   C107    1.394   .     D
C106   H109    1.083   .     S
C106   C155    1.394   .     S
C107   H110    1.076   .     S
C107   C113    1.417   .     S
C108   C59     1.396   1_556 S
C108   H111    1.084   .     S
C108   C156    1.401   .     D
H112   C175    1.109   .     S
C113   C146    1.547   .     S
N114   C115    1.350   .     D
N114   C155    1.346   .     S
C115   H117    1.085   .     S
C115   C166    1.380   .     S
C116   C143    1.547   .     S
C116   C169    1.561   1_655 S
C116   C175    1.561   .     S
C116   C177    1.540   1_655 S
C118   C151    1.547   .     S
N119   C120    1.350   .     D
N119   C153    1.346   .     S
C120   H122    1.085   .     S
C120   C168    1.380   .     S
C121   C148    1.547   .     S
C121   C170    1.561   .     S
C121   C176    1.561   .     S
C121   C177    1.540   .     S
C123   C136    1.547   .     S
N124   C125    1.350   .     D
N124   C159    1.346   .     S
C125   H127    1.085   .     S
C125   C162    1.380   .     S
C126   C133    1.547   .     S
C126   C171    1.561   1_565 S
C126   C174    1.561   .     S
C126   C178    1.540   1_565 S
C128   C141    1.547   .     S
N129   C130    1.350   .     D
N129   C157    1.346   .     S
C130   H132    1.085   .     S
C130   C164    1.380   .     S
C131   C138    1.547   .     S
C131   C172    1.561   .     S
C131   C173    1.561   .     S
C131   C178    1.540   .     S
N134   C135    1.350   .     D
N134   C163    1.346   .     S
C135   H137    1.085   .     S
C135   C158    1.380   .     S
C136   C169    1.561   1_556 S
C136   C176    1.561   1_556 S
C136   C179    1.540   .     S
N139   C140    1.350   .     D
N139   C161    1.346   .     S
C140   H142    1.085   .     S
C140   C160    1.380   .     S
C141   C170    1.561   1_656 S
C141   C175    1.561   1_556 S
C141   C179    1.540   1_655 S
N144   C145    1.350   .     D
N144   C167    1.346   .     S
C145   H147    1.085   .     S
C145   C154    1.380   .     S
C146   C172    1.561   1_566 S
C146   C174    1.561   1_556 S
C146   C180    1.540   1_565 S
N149   C150    1.350   .     D
N149   C165    1.346   .     S
C150   H152    1.085   .     S
C150   C156    1.380   .     S
C151   C171    1.561   1_556 S
C151   C173    1.561   1_556 S
C151   C180    1.540   .     S
C169   C116    1.561   1_455 S
C169   C136    1.561   1_554 S
C169   H35     1.109   1_454 S
C170   H14     1.109   1_455 S
C170   H42     1.109   1_554 S
C170   C141    1.561   1_454 S
C171   C126    1.561   1_545 S
C171   C151    1.561   1_554 S
C171   H56     1.109   1_544 S
C172   H28     1.109   1_545 S
C172   H49     1.109   1_554 S
C172   C146    1.561   1_544 S
C173   H63     1.109   1_554 S
C173   C151    1.561   1_554 S
C174   C146    1.561   1_554 S
C174   H70     1.109   1_554 S
C175   C141    1.561   1_554 S
C175   H77     1.109   1_554 S
C176   H84     1.109   1_554 S
C176   C136    1.561   1_554 S
C177   C116    1.540   1_455 S
C177   H181    1.114   1_455 S
C177   H182    1.114   .     S
C178   C126    1.540   1_545 S
C178   H183    1.114   1_545 S
C178   H184    1.114   .     S
C179   C141    1.540   1_455 S
C179   H185    1.114   .     S
C179   H186    1.114   1_455 S
C180   C146    1.540   1_545 S
C180   H187    1.114   1_545 S
C180   H188    1.114   .     S
H181   C177    1.114   1_655 S
H183   C178    1.114   1_565 S
H186   C179    1.114   1_655 S
H187   C180    1.114   1_565 S
