data_140
_audit_creation_date              2023-09-08
_audit_creation_method            'Materials Studio'
_symmetry_space_group_name_H-M    'P1'
_symmetry_Int_Tables_number       1
_symmetry_cell_setting            triclinic
loop_
_symmetry_equiv_pos_as_xyz
  x,y,z
_cell_length_a                    22.2200
_cell_length_b                    22.2200
_cell_length_c                    30.0100
_cell_angle_alpha                 90.0000
_cell_angle_beta                  90.0000
_cell_angle_gamma                 90.0000
loop_
_atom_site_label
_atom_site_type_symbol
_atom_site_fract_x
_atom_site_fract_y
_atom_site_fract_z
_atom_site_U_iso_or_equiv
_atom_site_adp_type
_atom_site_occupancy
xx1    C     0.40587   0.32915   0.89250   0.00000  Uiso   1.00
xx2    C     0.44086   0.36392   0.92137   0.00000  Uiso   1.00
xx3    C     0.27077   0.19357   0.73606   0.00000  Uiso   1.00
xx4    H     0.42276   0.28616   0.88094   0.00000  Uiso   1.00
xx5    H     0.48437   0.34605   0.92993   0.00000  Uiso   1.00
xx6    H     0.28728   0.14996   0.72548   0.00000  Uiso   1.00
xx7    H     0.96906   0.89126   0.48076   0.00000  Uiso   1.00
xx8    C     0.59413   0.67085   0.89250   0.00000  Uiso   1.00
xx9    C     0.55914   0.63608   0.92137   0.00000  Uiso   1.00
xx10   C     0.72923   0.80643   0.73606   0.00000  Uiso   1.00
xx11   H     0.57724   0.71384   0.88094   0.00000  Uiso   1.00
xx12   H     0.51563   0.65395   0.92993   0.00000  Uiso   1.00
xx13   H     0.71272   0.85004   0.72548   0.00000  Uiso   1.00
xx14   H     0.03094   0.10874   0.48076   0.00000  Uiso   1.00
xx15   C     0.17085   0.90587   0.39250   0.00000  Uiso   1.00
xx16   C     0.13608   0.94086   0.42137   0.00000  Uiso   1.00
xx17   C     0.30643   0.77077   0.23606   0.00000  Uiso   1.00
xx18   H     0.21384   0.92276   0.38094   0.00000  Uiso   1.00
xx19   H     0.15395   0.98437   0.42993   0.00000  Uiso   1.00
xx20   H     0.35004   0.78728   0.22548   0.00000  Uiso   1.00
xx21   H     0.60874   0.46906   0.98076   0.00000  Uiso   1.00
xx22   C     0.82915   0.09413   0.39250   0.00000  Uiso   1.00
xx23   C     0.86392   0.05914   0.42137   0.00000  Uiso   1.00
xx24   C     0.69357   0.22923   0.23606   0.00000  Uiso   1.00
xx25   H     0.78616   0.07724   0.38094   0.00000  Uiso   1.00
xx26   H     0.84605   0.01563   0.42993   0.00000  Uiso   1.00
xx27   H     0.64996   0.21272   0.22548   0.00000  Uiso   1.00
xx28   H     0.39126   0.53094   0.98076   0.00000  Uiso   1.00
xx29   C     0.59413   0.32915   0.10750   0.00000  Uiso   1.00
xx30   C     0.55914   0.36392   0.07863   0.00000  Uiso   1.00
xx31   C     0.72923   0.19357   0.26394   0.00000  Uiso   1.00
xx32   H     0.57724   0.28616   0.11906   0.00000  Uiso   1.00
xx33   H     0.51563   0.34605   0.07007   0.00000  Uiso   1.00
xx34   H     0.71272   0.14996   0.27452   0.00000  Uiso   1.00
xx35   H     0.03094   0.89126   0.51924   0.00000  Uiso   1.00
xx36   C     0.40587   0.67085   0.10750   0.00000  Uiso   1.00
xx37   C     0.44086   0.63608   0.07863   0.00000  Uiso   1.00
xx38   C     0.27077   0.80643   0.26394   0.00000  Uiso   1.00
xx39   H     0.42276   0.71384   0.11906   0.00000  Uiso   1.00
xx40   H     0.48437   0.65395   0.07007   0.00000  Uiso   1.00
xx41   H     0.28728   0.85004   0.27452   0.00000  Uiso   1.00
xx42   H     0.96906   0.10874   0.51924   0.00000  Uiso   1.00
xx43   C     0.82915   0.90587   0.60750   0.00000  Uiso   1.00
xx44   C     0.86392   0.94086   0.57863   0.00000  Uiso   1.00
xx45   C     0.69357   0.77077   0.76394   0.00000  Uiso   1.00
xx46   H     0.78616   0.92276   0.61906   0.00000  Uiso   1.00
xx47   H     0.84605   0.98437   0.57007   0.00000  Uiso   1.00
xx48   H     0.64996   0.78728   0.77452   0.00000  Uiso   1.00
xx49   H     0.39126   0.46906   0.01924   0.00000  Uiso   1.00
xx50   C     0.17085   0.09413   0.60750   0.00000  Uiso   1.00
xx51   C     0.13608   0.05914   0.57863   0.00000  Uiso   1.00
xx52   C     0.30643   0.22923   0.76394   0.00000  Uiso   1.00
xx53   H     0.21384   0.07724   0.61906   0.00000  Uiso   1.00
xx54   H     0.15395   0.01563   0.57007   0.00000  Uiso   1.00
xx55   H     0.35004   0.21272   0.77452   0.00000  Uiso   1.00
xx56   H     0.60874   0.53094   0.01924   0.00000  Uiso   1.00
xx57   C     0.09413   0.17085   0.60750   0.00000  Uiso   1.00
xx58   C     0.05914   0.13608   0.57863   0.00000  Uiso   1.00
xx59   C     0.22923   0.30643   0.76394   0.00000  Uiso   1.00
xx60   H     0.07724   0.21384   0.61906   0.00000  Uiso   1.00
xx61   H     0.01563   0.15395   0.57007   0.00000  Uiso   1.00
xx62   H     0.21272   0.35004   0.77452   0.00000  Uiso   1.00
xx63   H     0.53094   0.60874   0.01924   0.00000  Uiso   1.00
xx64   C     0.90587   0.82915   0.60750   0.00000  Uiso   1.00
xx65   C     0.94086   0.86392   0.57863   0.00000  Uiso   1.00
xx66   C     0.77077   0.69357   0.76394   0.00000  Uiso   1.00
xx67   H     0.92276   0.78616   0.61906   0.00000  Uiso   1.00
xx68   H     0.98437   0.84605   0.57007   0.00000  Uiso   1.00
xx69   H     0.78728   0.64996   0.77452   0.00000  Uiso   1.00
xx70   H     0.46906   0.39126   0.01924   0.00000  Uiso   1.00
xx71   C     0.32915   0.59413   0.10750   0.00000  Uiso   1.00
xx72   C     0.36392   0.55914   0.07863   0.00000  Uiso   1.00
xx73   C     0.19357   0.72923   0.26394   0.00000  Uiso   1.00
xx74   H     0.28616   0.57724   0.11906   0.00000  Uiso   1.00
xx75   H     0.34605   0.51563   0.07007   0.00000  Uiso   1.00
xx76   H     0.14996   0.71272   0.27452   0.00000  Uiso   1.00
xx77   H     0.89126   0.03094   0.51924   0.00000  Uiso   1.00
xx78   C     0.67085   0.40587   0.10750   0.00000  Uiso   1.00
xx79   C     0.63608   0.44086   0.07863   0.00000  Uiso   1.00
xx80   C     0.80643   0.27077   0.26394   0.00000  Uiso   1.00
xx81   H     0.71384   0.42276   0.11906   0.00000  Uiso   1.00
xx82   H     0.65395   0.48437   0.07007   0.00000  Uiso   1.00
xx83   H     0.85004   0.28728   0.27452   0.00000  Uiso   1.00
xx84   H     0.10874   0.96906   0.51924   0.00000  Uiso   1.00
xx85   C     0.90587   0.17085   0.39250   0.00000  Uiso   1.00
xx86   C     0.94086   0.13608   0.42137   0.00000  Uiso   1.00
xx87   C     0.77077   0.30643   0.23606   0.00000  Uiso   1.00
xx88   H     0.92276   0.21384   0.38094   0.00000  Uiso   1.00
xx89   H     0.98437   0.15395   0.42993   0.00000  Uiso   1.00
xx90   H     0.78728   0.35004   0.22548   0.00000  Uiso   1.00
xx91   H     0.46906   0.60874   0.98076   0.00000  Uiso   1.00
xx92   C     0.09413   0.82915   0.39250   0.00000  Uiso   1.00
xx93   C     0.05914   0.86392   0.42137   0.00000  Uiso   1.00
xx94   C     0.22923   0.69357   0.23606   0.00000  Uiso   1.00
xx95   H     0.07724   0.78616   0.38094   0.00000  Uiso   1.00
xx96   H     0.01563   0.84605   0.42993   0.00000  Uiso   1.00
xx97   H     0.21272   0.64996   0.22548   0.00000  Uiso   1.00
xx98   H     0.53094   0.39126   0.98076   0.00000  Uiso   1.00
xx99   C     0.67085   0.59413   0.89250   0.00000  Uiso   1.00
xx100  C     0.63608   0.55914   0.92137   0.00000  Uiso   1.00
xx101  C     0.80643   0.72923   0.73606   0.00000  Uiso   1.00
xx102  H     0.71384   0.57724   0.88094   0.00000  Uiso   1.00
xx103  H     0.65395   0.51563   0.92993   0.00000  Uiso   1.00
xx104  H     0.85004   0.71272   0.72548   0.00000  Uiso   1.00
xx105  H     0.10874   0.03094   0.48076   0.00000  Uiso   1.00
xx106  C     0.32915   0.40587   0.89250   0.00000  Uiso   1.00
xx107  C     0.36392   0.44086   0.92137   0.00000  Uiso   1.00
xx108  C     0.19357   0.27077   0.73606   0.00000  Uiso   1.00
xx109  H     0.28616   0.42276   0.88094   0.00000  Uiso   1.00
xx110  H     0.34605   0.48437   0.92993   0.00000  Uiso   1.00
xx111  H     0.14996   0.28728   0.72548   0.00000  Uiso   1.00
xx112  H     0.89126   0.96906   0.48076   0.00000  Uiso   1.00
xx113  C     0.42011   0.42011   0.93767   0.00000  Uiso   1.00
xx114  N     0.31618   0.31618   0.85021   0.00000  Uiso   1.00
xx115  C     0.32115   0.32115   0.80549   0.00000  Uiso   1.00
xx116  H     0.35264   0.35264   0.79070   0.00000  Uiso   1.00
xx117  C     0.57989   0.57989   0.93767   0.00000  Uiso   1.00
xx118  N     0.68382   0.68382   0.85021   0.00000  Uiso   1.00
xx119  C     0.67885   0.67885   0.80549   0.00000  Uiso   1.00
xx120  H     0.64736   0.64736   0.79070   0.00000  Uiso   1.00
xx121  C     0.07989   0.92011   0.43767   0.00000  Uiso   1.00
xx122  N     0.18382   0.81618   0.35021   0.00000  Uiso   1.00
xx123  C     0.17885   0.82115   0.30549   0.00000  Uiso   1.00
xx124  H     0.14736   0.85264   0.29070   0.00000  Uiso   1.00
xx125  C     0.92011   0.07989   0.43767   0.00000  Uiso   1.00
xx126  N     0.81618   0.18382   0.35021   0.00000  Uiso   1.00
xx127  C     0.82115   0.17885   0.30549   0.00000  Uiso   1.00
xx128  H     0.85264   0.14736   0.29070   0.00000  Uiso   1.00
xx129  C     0.57989   0.42011   0.06233   0.00000  Uiso   1.00
xx130  N     0.68382   0.31618   0.14979   0.00000  Uiso   1.00
xx131  C     0.67885   0.32115   0.19451   0.00000  Uiso   1.00
xx132  H     0.64736   0.35264   0.20930   0.00000  Uiso   1.00
xx133  C     0.42011   0.57989   0.06233   0.00000  Uiso   1.00
xx134  N     0.31618   0.68382   0.14979   0.00000  Uiso   1.00
xx135  C     0.32115   0.67885   0.19451   0.00000  Uiso   1.00
xx136  H     0.35264   0.64736   0.20930   0.00000  Uiso   1.00
xx137  C     0.92011   0.92011   0.56233   0.00000  Uiso   1.00
xx138  N     0.81618   0.81618   0.64979   0.00000  Uiso   1.00
xx139  C     0.82115   0.82115   0.69451   0.00000  Uiso   1.00
xx140  H     0.85264   0.85264   0.70930   0.00000  Uiso   1.00
xx141  C     0.07989   0.07989   0.56233   0.00000  Uiso   1.00
xx142  N     0.18382   0.18382   0.64979   0.00000  Uiso   1.00
xx143  C     0.17885   0.17885   0.69451   0.00000  Uiso   1.00
xx144  H     0.14736   0.14736   0.70930   0.00000  Uiso   1.00
xx145  C     0.95957   0.95957   0.53121   0.00000  Uiso   1.00
xx146  C     0.65008   0.65008   0.87809   0.00000  Uiso   1.00
xx147  C     0.78573   0.78573   0.72198   0.00000  Uiso   1.00
xx148  C     0.04043   0.04043   0.53121   0.00000  Uiso   1.00
xx149  C     0.34992   0.34992   0.87809   0.00000  Uiso   1.00
xx150  C     0.21427   0.21427   0.72198   0.00000  Uiso   1.00
xx151  C     0.54043   0.45957   0.03121   0.00000  Uiso   1.00
xx152  C     0.84992   0.15008   0.37809   0.00000  Uiso   1.00
xx153  C     0.71427   0.28573   0.22198   0.00000  Uiso   1.00
xx154  C     0.45957   0.54043   0.03121   0.00000  Uiso   1.00
xx155  C     0.15008   0.84992   0.37809   0.00000  Uiso   1.00
xx156  C     0.28573   0.71427   0.22198   0.00000  Uiso   1.00
xx157  C     0.04043   0.95957   0.46879   0.00000  Uiso   1.00
xx158  C     0.34992   0.65008   0.12191   0.00000  Uiso   1.00
xx159  C     0.21427   0.78573   0.27802   0.00000  Uiso   1.00
xx160  C     0.95957   0.04043   0.46879   0.00000  Uiso   1.00
xx161  C     0.65008   0.34992   0.12191   0.00000  Uiso   1.00
xx162  C     0.78573   0.21427   0.27802   0.00000  Uiso   1.00
xx163  C     0.45957   0.45957   0.96879   0.00000  Uiso   1.00
xx164  C     0.15008   0.15008   0.62191   0.00000  Uiso   1.00
xx165  C     0.28573   0.28573   0.77802   0.00000  Uiso   1.00
xx166  C     0.54043   0.54043   0.96879   0.00000  Uiso   1.00
xx167  C     0.84992   0.84992   0.62191   0.00000  Uiso   1.00
xx168  C     0.71427   0.71427   0.77802   0.00000  Uiso   1.00
xx169  C     0.00000   0.92048   0.50000   0.00000  Uiso   1.00
xx170  C     0.00000   0.07952   0.50000   0.00000  Uiso   1.00
xx171  C     0.57952   0.50000   0.00000   0.00000  Uiso   1.00
xx172  C     0.42048   0.50000   0.00000   0.00000  Uiso   1.00
xx173  C     0.50000   0.57952   0.00000   0.00000  Uiso   1.00
xx174  C     0.50000   0.42048   0.00000   0.00000  Uiso   1.00
xx175  C     0.92048   0.00000   0.50000   0.00000  Uiso   1.00
xx176  C     0.07952   0.00000   0.50000   0.00000  Uiso   1.00
xx177  C     0.00000   0.00000   0.56036   0.00000  Uiso   1.00
xx178  C     0.50000   0.50000   0.06036   0.00000  Uiso   1.00
xx179  C     0.00000   0.00000   0.43964   0.00000  Uiso   1.00
xx180  C     0.50000   0.50000   0.93964   0.00000  Uiso   1.00
xx181  H     0.02855   0.97145   0.58234   0.00000  Uiso   1.00
xx182  H     0.97145   0.02855   0.58234   0.00000  Uiso   1.00
xx183  H     0.52855   0.52855   0.08234   0.00000  Uiso   1.00
xx184  H     0.47145   0.47145   0.08234   0.00000  Uiso   1.00
xx185  H     0.97145   0.97145   0.41766   0.00000  Uiso   1.00
xx186  H     0.02855   0.02855   0.41766   0.00000  Uiso   1.00
xx187  H     0.47145   0.52855   0.91766   0.00000  Uiso   1.00
xx188  H     0.52855   0.47145   0.91766   0.00000  Uiso   1.00
loop_
_geom_bond_atom_site_label_1
_geom_bond_atom_site_label_2
_geom_bond_distance
_geom_bond_site_symmetry_2
_ccdc_geom_bond_type
xx1    xx2     1.397   .     S
xx1    xx4     1.083   .     S
xx1    xx149   1.395   .     D
xx2    xx5     1.076   .     S
xx2    xx113   1.418   .     D
xx3    xx6     1.084   .     S
xx3    xx52    1.398   .     S
xx3    xx150   1.402   .     D
xx7    xx169   1.108   1_655 S
xx8    xx9     1.397   .     D
xx8    xx11    1.083   .     S
xx8    xx146   1.395   .     S
xx9    xx12    1.076   .     S
xx9    xx117   1.418   .     S
xx10   xx13    1.084   .     S
xx10   xx45    1.398   .     D
xx10   xx147   1.402   .     S
xx14   xx170   1.108   .     S
xx15   xx16    1.397   .     D
xx15   xx18    1.083   .     S
xx15   xx155   1.395   .     S
xx16   xx19    1.076   .     S
xx16   xx121   1.418   .     S
xx17   xx20    1.084   .     S
xx17   xx38    1.398   .     D
xx17   xx156   1.402   .     S
xx21   xx171   1.108   1_556 S
xx22   xx23    1.397   .     S
xx22   xx25    1.083   .     S
xx22   xx152   1.395   .     D
xx23   xx26    1.076   .     S
xx23   xx125   1.418   .     D
xx24   xx27    1.084   .     S
xx24   xx31    1.398   .     S
xx24   xx153   1.402   .     D
xx28   xx172   1.108   1_556 S
xx29   xx30    1.397   .     D
xx29   xx32    1.083   .     S
xx29   xx161   1.395   .     S
xx30   xx33    1.076   .     S
xx30   xx129   1.418   .     S
xx31   xx34    1.084   .     S
xx31   xx162   1.402   .     D
xx35   xx169   1.108   .     S
xx36   xx37    1.397   .     S
xx36   xx39    1.083   .     S
xx36   xx158   1.395   .     D
xx37   xx40    1.076   .     S
xx37   xx133   1.418   .     D
xx38   xx41    1.084   .     S
xx38   xx159   1.402   .     S
xx42   xx170   1.108   1_655 S
xx43   xx44    1.397   .     S
xx43   xx46    1.083   .     S
xx43   xx167   1.395   .     D
xx44   xx47    1.076   .     S
xx44   xx137   1.418   .     D
xx45   xx48    1.084   .     S
xx45   xx168   1.402   .     S
xx49   xx172   1.108   .     S
xx50   xx51    1.397   .     D
xx50   xx53    1.083   .     S
xx50   xx164   1.395   .     S
xx51   xx54    1.076   .     S
xx51   xx141   1.418   .     S
xx52   xx55    1.084   .     S
xx52   xx165   1.402   .     D
xx56   xx171   1.108   .     S
xx57   xx58    1.397   .     S
xx57   xx60    1.083   .     S
xx57   xx164   1.395   .     D
xx58   xx61    1.076   .     S
xx58   xx141   1.418   .     D
xx59   xx62    1.084   .     S
xx59   xx108   1.398   .     D
xx59   xx165   1.402   .     S
xx63   xx173   1.108   .     S
xx64   xx65    1.397   .     D
xx64   xx67    1.083   .     S
xx64   xx167   1.395   .     S
xx65   xx68    1.076   .     S
xx65   xx137   1.418   .     S
xx66   xx69    1.084   .     S
xx66   xx101   1.398   .     S
xx66   xx168   1.402   .     D
xx70   xx174   1.108   .     S
xx71   xx72    1.397   .     D
xx71   xx74    1.083   .     S
xx71   xx158   1.395   .     S
xx72   xx75    1.076   .     S
xx72   xx133   1.418   .     S
xx73   xx76    1.084   .     S
xx73   xx94    1.398   .     S
xx73   xx159   1.402   .     D
xx77   xx175   1.108   .     S
xx78   xx79    1.397   .     S
xx78   xx81    1.083   .     S
xx78   xx161   1.395   .     D
xx79   xx82    1.076   .     S
xx79   xx129   1.418   .     D
xx80   xx83    1.084   .     S
xx80   xx87    1.398   .     D
xx80   xx162   1.402   .     S
xx84   xx176   1.108   1_565 S
xx85   xx86    1.397   .     D
xx85   xx88    1.083   .     S
xx85   xx152   1.395   .     S
xx86   xx89    1.076   .     S
xx86   xx125   1.418   .     S
xx87   xx90    1.084   .     S
xx87   xx153   1.402   .     S
xx91   xx173   1.108   1_556 S
xx92   xx93    1.397   .     S
xx92   xx95    1.083   .     S
xx92   xx155   1.395   .     D
xx93   xx96    1.076   .     S
xx93   xx121   1.418   .     D
xx94   xx97    1.084   .     S
xx94   xx156   1.402   .     D
xx98   xx174   1.108   1_556 S
xx99   xx100   1.397   .     S
xx99   xx102   1.083   .     S
xx99   xx146   1.395   .     D
xx100  xx103   1.076   .     S
xx100  xx117   1.418   .     D
xx101  xx104   1.084   .     S
xx101  xx147   1.402   .     D
xx105  xx176   1.108   .     S
xx106  xx107   1.397   .     D
xx106  xx109   1.083   .     S
xx106  xx149   1.395   .     S
xx107  xx110   1.076   .     S
xx107  xx113   1.418   .     S
xx108  xx111   1.084   .     S
xx108  xx150   1.402   .     S
xx112  xx175   1.108   1_565 S
xx113  xx163   1.552   .     S
xx114  xx115   1.351   .     D
xx114  xx149   1.351   .     S
xx115  xx116   1.085   .     S
xx115  xx165   1.385   .     S
xx117  xx166   1.552   .     S
xx118  xx119   1.351   .     D
xx118  xx146   1.351   .     S
xx119  xx120   1.085   .     S
xx119  xx168   1.385   .     S
xx121  xx157   1.552   .     S
xx122  xx123   1.351   .     D
xx122  xx155   1.351   .     S
xx123  xx124   1.085   .     S
xx123  xx159   1.385   .     S
xx125  xx160   1.552   .     S
xx126  xx127   1.351   .     D
xx126  xx152   1.351   .     S
xx127  xx128   1.085   .     S
xx127  xx162   1.385   .     S
xx129  xx151   1.552   .     S
xx130  xx131   1.351   .     D
xx130  xx161   1.351   .     S
xx131  xx132   1.085   .     S
xx131  xx153   1.385   .     S
xx133  xx154   1.552   .     S
xx134  xx135   1.351   .     D
xx134  xx158   1.351   .     S
xx135  xx136   1.085   .     S
xx135  xx156   1.385   .     S
xx137  xx145   1.552   .     S
xx138  xx139   1.351   .     D
xx138  xx167   1.351   .     S
xx139  xx140   1.085   .     S
xx139  xx147   1.385   .     S
xx141  xx148   1.552   .     S
xx142  xx143   1.351   .     D
xx142  xx164   1.351   .     S
xx143  xx144   1.085   .     S
xx143  xx150   1.385   .     S
xx145  xx169   1.562   1_655 S
xx145  xx175   1.562   1_565 S
xx145  xx177   1.543   1_665 S
xx148  xx170   1.562   .     S
xx148  xx176   1.562   .     S
xx148  xx177   1.543   .     S
xx151  xx171   1.562   .     S
xx151  xx174   1.562   .     S
xx151  xx178   1.543   .     S
xx154  xx172   1.562   .     S
xx154  xx173   1.562   .     S
xx154  xx178   1.543   .     S
xx157  xx169   1.562   .     S
xx157  xx176   1.562   1_565 S
xx157  xx179   1.543   1_565 S
xx160  xx170   1.562   1_655 S
xx160  xx175   1.562   .     S
xx160  xx179   1.543   1_655 S
xx163  xx172   1.562   1_556 S
xx163  xx174   1.562   1_556 S
xx163  xx180   1.543   .     S
xx166  xx171   1.562   1_556 S
xx166  xx173   1.562   1_556 S
xx166  xx180   1.543   .     S
xx169  xx7     1.108   1_455 S
xx169  xx145   1.562   1_455 S
xx170  xx42    1.108   1_455 S
xx170  xx160   1.562   1_455 S
xx171  xx166   1.562   1_554 S
xx171  xx21    1.108   1_554 S
xx172  xx28    1.108   1_554 S
xx172  xx163   1.562   1_554 S
xx173  xx91    1.108   1_554 S
xx173  xx166   1.562   1_554 S
xx174  xx163   1.562   1_554 S
xx174  xx98    1.108   1_554 S
xx175  xx112   1.108   1_545 S
xx175  xx145   1.562   1_545 S
xx176  xx84    1.108   1_545 S
xx176  xx157   1.562   1_545 S
xx177  xx145   1.543   1_445 S
xx177  xx181   1.114   1_545 S
xx177  xx182   1.114   1_455 S
xx178  xx183   1.114   .     S
xx178  xx184   1.114   .     S
xx179  xx160   1.543   1_455 S
xx179  xx157   1.543   1_545 S
xx179  xx185   1.114   1_445 S
xx179  xx186   1.114   .     S
xx180  xx187   1.114   .     S
xx180  xx188   1.114   .     S
xx181  xx177   1.114   1_565 S
xx182  xx177   1.114   1_655 S
xx185  xx179   1.114   1_665 S
