data_141
_audit_creation_date              2023-09-08
_audit_creation_method            'Materials Studio'
_symmetry_space_group_name_H-M    'P1'
_symmetry_Int_Tables_number       1
_symmetry_cell_setting            triclinic
loop_
_symmetry_equiv_pos_as_xyz
  x,y,z
_cell_length_a                    30.6300
_cell_length_b                    30.6300
_cell_length_c                    20.2300
_cell_angle_alpha                 90.0000
_cell_angle_beta                  90.0000
_cell_angle_gamma                 90.0000
loop_
_atom_site_label
_atom_site_type_symbol
_atom_site_fract_x
_atom_site_fract_y
_atom_site_fract_z
_atom_site_U_iso_or_equiv
_atom_site_adp_type
_atom_site_occupancy
xx1    C     0.03948   0.86601   0.84178   0.00000  Uiso   1.00
xx2    C     0.03956   0.90129   0.88557   0.00000  Uiso   1.00
xx3    C     0.53960   0.23228   0.10320   0.00000  Uiso   1.00
xx4    H     0.07021   0.85272   0.82454   0.00000  Uiso   1.00
xx5    H     0.07070   0.91484   0.90033   0.00000  Uiso   1.00
xx6    H     0.57045   0.21882   0.08667   0.00000  Uiso   1.00
xx7    C     0.53948   0.36601   0.34178   0.00000  Uiso   1.00
xx8    C     0.53956   0.40129   0.38557   0.00000  Uiso   1.00
xx9    C     0.03960   0.73228   0.60320   0.00000  Uiso   1.00
xx10   H     0.57021   0.35272   0.32454   0.00000  Uiso   1.00
xx11   H     0.57070   0.41484   0.40033   0.00000  Uiso   1.00
xx12   H     0.07045   0.71882   0.58667   0.00000  Uiso   1.00
xx13   C     0.46052   0.63399   0.34178   0.00000  Uiso   1.00
xx14   C     0.46044   0.59871   0.38557   0.00000  Uiso   1.00
xx15   C     0.96040   0.26772   0.60320   0.00000  Uiso   1.00
xx16   H     0.42979   0.64728   0.32454   0.00000  Uiso   1.00
xx17   H     0.42930   0.58516   0.40033   0.00000  Uiso   1.00
xx18   H     0.92955   0.28118   0.58667   0.00000  Uiso   1.00
xx19   C     0.96052   0.13399   0.84178   0.00000  Uiso   1.00
xx20   C     0.96044   0.09871   0.88557   0.00000  Uiso   1.00
xx21   C     0.46040   0.76772   0.10320   0.00000  Uiso   1.00
xx22   H     0.92979   0.14728   0.82454   0.00000  Uiso   1.00
xx23   H     0.92930   0.08516   0.90033   0.00000  Uiso   1.00
xx24   H     0.42955   0.78118   0.08667   0.00000  Uiso   1.00
xx25   C     0.13399   0.53948   0.09178   0.00000  Uiso   1.00
xx26   C     0.09871   0.53956   0.13557   0.00000  Uiso   1.00
xx27   C     0.76772   0.03960   0.35320   0.00000  Uiso   1.00
xx28   H     0.14728   0.57021   0.07454   0.00000  Uiso   1.00
xx29   H     0.08516   0.57070   0.15033   0.00000  Uiso   1.00
xx30   H     0.78118   0.07045   0.33667   0.00000  Uiso   1.00
xx31   C     0.63399   0.03948   0.59178   0.00000  Uiso   1.00
xx32   C     0.59871   0.03956   0.63557   0.00000  Uiso   1.00
xx33   C     0.26772   0.53960   0.85320   0.00000  Uiso   1.00
xx34   H     0.64728   0.07021   0.57454   0.00000  Uiso   1.00
xx35   H     0.58516   0.07070   0.65033   0.00000  Uiso   1.00
xx36   H     0.28118   0.57045   0.83667   0.00000  Uiso   1.00
xx37   C     0.36601   0.96052   0.59178   0.00000  Uiso   1.00
xx38   C     0.40129   0.96044   0.63557   0.00000  Uiso   1.00
xx39   C     0.73228   0.46040   0.85320   0.00000  Uiso   1.00
xx40   H     0.35272   0.92979   0.57454   0.00000  Uiso   1.00
xx41   H     0.41484   0.92930   0.65033   0.00000  Uiso   1.00
xx42   H     0.71882   0.42955   0.83667   0.00000  Uiso   1.00
xx43   C     0.86601   0.46052   0.09178   0.00000  Uiso   1.00
xx44   C     0.90129   0.46044   0.13557   0.00000  Uiso   1.00
xx45   C     0.23228   0.96040   0.35320   0.00000  Uiso   1.00
xx46   H     0.85272   0.42979   0.07454   0.00000  Uiso   1.00
xx47   H     0.91484   0.42930   0.15033   0.00000  Uiso   1.00
xx48   H     0.21882   0.92955   0.33667   0.00000  Uiso   1.00
xx49   C     0.46052   0.86601   0.90822   0.00000  Uiso   1.00
xx50   C     0.46044   0.90129   0.86443   0.00000  Uiso   1.00
xx51   C     0.96040   0.23228   0.64680   0.00000  Uiso   1.00
xx52   H     0.42979   0.85272   0.92546   0.00000  Uiso   1.00
xx53   H     0.42930   0.91484   0.84967   0.00000  Uiso   1.00
xx54   H     0.92955   0.21882   0.66333   0.00000  Uiso   1.00
xx55   C     0.96052   0.36601   0.40822   0.00000  Uiso   1.00
xx56   C     0.96044   0.40129   0.36443   0.00000  Uiso   1.00
xx57   C     0.46040   0.73228   0.14680   0.00000  Uiso   1.00
xx58   H     0.92979   0.35272   0.42546   0.00000  Uiso   1.00
xx59   H     0.92930   0.41484   0.34967   0.00000  Uiso   1.00
xx60   H     0.42955   0.71882   0.16333   0.00000  Uiso   1.00
xx61   C     0.03948   0.63399   0.40822   0.00000  Uiso   1.00
xx62   C     0.03956   0.59871   0.36443   0.00000  Uiso   1.00
xx63   C     0.53960   0.26772   0.14680   0.00000  Uiso   1.00
xx64   H     0.07021   0.64728   0.42546   0.00000  Uiso   1.00
xx65   H     0.07070   0.58516   0.34967   0.00000  Uiso   1.00
xx66   H     0.57045   0.28118   0.16333   0.00000  Uiso   1.00
xx67   C     0.53948   0.13399   0.90822   0.00000  Uiso   1.00
xx68   C     0.53956   0.09871   0.86443   0.00000  Uiso   1.00
xx69   C     0.03960   0.76772   0.64680   0.00000  Uiso   1.00
xx70   H     0.57021   0.14728   0.92546   0.00000  Uiso   1.00
xx71   H     0.57070   0.08516   0.84967   0.00000  Uiso   1.00
xx72   H     0.07045   0.78118   0.66333   0.00000  Uiso   1.00
xx73   C     0.36601   0.53948   0.65822   0.00000  Uiso   1.00
xx74   C     0.40129   0.53956   0.61443   0.00000  Uiso   1.00
xx75   C     0.73228   0.03960   0.39680   0.00000  Uiso   1.00
xx76   H     0.35272   0.57021   0.67546   0.00000  Uiso   1.00
xx77   H     0.41484   0.57070   0.59967   0.00000  Uiso   1.00
xx78   H     0.71882   0.07045   0.41333   0.00000  Uiso   1.00
xx79   C     0.86601   0.03948   0.15822   0.00000  Uiso   1.00
xx80   C     0.90129   0.03956   0.11443   0.00000  Uiso   1.00
xx81   C     0.23228   0.53960   0.89680   0.00000  Uiso   1.00
xx82   H     0.85272   0.07021   0.17546   0.00000  Uiso   1.00
xx83   H     0.91484   0.07070   0.09967   0.00000  Uiso   1.00
xx84   H     0.21882   0.57045   0.91333   0.00000  Uiso   1.00
xx85   C     0.13399   0.96052   0.15822   0.00000  Uiso   1.00
xx86   C     0.09871   0.96044   0.11443   0.00000  Uiso   1.00
xx87   C     0.76772   0.46040   0.89680   0.00000  Uiso   1.00
xx88   H     0.14728   0.92979   0.17546   0.00000  Uiso   1.00
xx89   H     0.08516   0.92930   0.09967   0.00000  Uiso   1.00
xx90   H     0.78118   0.42955   0.91333   0.00000  Uiso   1.00
xx91   C     0.63399   0.46052   0.65822   0.00000  Uiso   1.00
xx92   C     0.59871   0.46044   0.61443   0.00000  Uiso   1.00
xx93   C     0.26772   0.96040   0.39680   0.00000  Uiso   1.00
xx94   H     0.64728   0.42979   0.67546   0.00000  Uiso   1.00
xx95   H     0.58516   0.42930   0.59967   0.00000  Uiso   1.00
xx96   H     0.28118   0.92955   0.41333   0.00000  Uiso   1.00
xx97   C     0.96052   0.63399   0.40822   0.00000  Uiso   1.00
xx98   C     0.96044   0.59871   0.36443   0.00000  Uiso   1.00
xx99   C     0.46040   0.26772   0.14680   0.00000  Uiso   1.00
xx100  H     0.92979   0.64728   0.42546   0.00000  Uiso   1.00
xx101  H     0.92930   0.58516   0.34967   0.00000  Uiso   1.00
xx102  H     0.42955   0.28118   0.16333   0.00000  Uiso   1.00
xx103  C     0.46052   0.13399   0.90822   0.00000  Uiso   1.00
xx104  C     0.46044   0.09871   0.86443   0.00000  Uiso   1.00
xx105  C     0.96040   0.76772   0.64680   0.00000  Uiso   1.00
xx106  H     0.42979   0.14728   0.92546   0.00000  Uiso   1.00
xx107  H     0.42930   0.08516   0.84967   0.00000  Uiso   1.00
xx108  H     0.92955   0.78118   0.66333   0.00000  Uiso   1.00
xx109  C     0.53948   0.86601   0.90822   0.00000  Uiso   1.00
xx110  C     0.53956   0.90129   0.86443   0.00000  Uiso   1.00
xx111  C     0.03960   0.23228   0.64680   0.00000  Uiso   1.00
xx112  H     0.57021   0.85272   0.92546   0.00000  Uiso   1.00
xx113  H     0.57070   0.91484   0.84967   0.00000  Uiso   1.00
xx114  H     0.07045   0.21882   0.66333   0.00000  Uiso   1.00
xx115  C     0.03948   0.36601   0.40822   0.00000  Uiso   1.00
xx116  C     0.03956   0.40129   0.36443   0.00000  Uiso   1.00
xx117  C     0.53960   0.73228   0.14680   0.00000  Uiso   1.00
xx118  H     0.07021   0.35272   0.42546   0.00000  Uiso   1.00
xx119  H     0.07070   0.41484   0.34967   0.00000  Uiso   1.00
xx120  H     0.57045   0.71882   0.16333   0.00000  Uiso   1.00
xx121  C     0.86601   0.96052   0.15822   0.00000  Uiso   1.00
xx122  C     0.90129   0.96044   0.11443   0.00000  Uiso   1.00
xx123  C     0.23228   0.46040   0.89680   0.00000  Uiso   1.00
xx124  H     0.85272   0.92979   0.17546   0.00000  Uiso   1.00
xx125  H     0.91484   0.92930   0.09967   0.00000  Uiso   1.00
xx126  H     0.21882   0.42955   0.91333   0.00000  Uiso   1.00
xx127  C     0.36601   0.46052   0.65822   0.00000  Uiso   1.00
xx128  C     0.40129   0.46044   0.61443   0.00000  Uiso   1.00
xx129  C     0.73228   0.96040   0.39680   0.00000  Uiso   1.00
xx130  H     0.35272   0.42979   0.67546   0.00000  Uiso   1.00
xx131  H     0.41484   0.42930   0.59967   0.00000  Uiso   1.00
xx132  H     0.71882   0.92955   0.41333   0.00000  Uiso   1.00
xx133  C     0.63399   0.53948   0.65822   0.00000  Uiso   1.00
xx134  C     0.59871   0.53956   0.61443   0.00000  Uiso   1.00
xx135  C     0.26772   0.03960   0.39680   0.00000  Uiso   1.00
xx136  H     0.64728   0.57021   0.67546   0.00000  Uiso   1.00
xx137  H     0.58516   0.57070   0.59967   0.00000  Uiso   1.00
xx138  H     0.28118   0.07045   0.41333   0.00000  Uiso   1.00
xx139  C     0.13399   0.03948   0.15822   0.00000  Uiso   1.00
xx140  C     0.09871   0.03956   0.11443   0.00000  Uiso   1.00
xx141  C     0.76772   0.53960   0.89680   0.00000  Uiso   1.00
xx142  H     0.14728   0.07021   0.17546   0.00000  Uiso   1.00
xx143  H     0.08516   0.07070   0.09967   0.00000  Uiso   1.00
xx144  H     0.78118   0.57045   0.91333   0.00000  Uiso   1.00
xx145  C     0.53948   0.63399   0.34178   0.00000  Uiso   1.00
xx146  C     0.53956   0.59871   0.38557   0.00000  Uiso   1.00
xx147  C     0.03960   0.26772   0.60320   0.00000  Uiso   1.00
xx148  H     0.57021   0.64728   0.32454   0.00000  Uiso   1.00
xx149  H     0.57070   0.58516   0.40033   0.00000  Uiso   1.00
xx150  H     0.07045   0.28118   0.58667   0.00000  Uiso   1.00
xx151  C     0.03948   0.13399   0.84178   0.00000  Uiso   1.00
xx152  C     0.03956   0.09871   0.88557   0.00000  Uiso   1.00
xx153  C     0.53960   0.76772   0.10320   0.00000  Uiso   1.00
xx154  H     0.07021   0.14728   0.82454   0.00000  Uiso   1.00
xx155  H     0.07070   0.08516   0.90033   0.00000  Uiso   1.00
xx156  H     0.57045   0.78118   0.08667   0.00000  Uiso   1.00
xx157  C     0.96052   0.86601   0.84178   0.00000  Uiso   1.00
xx158  C     0.96044   0.90129   0.88557   0.00000  Uiso   1.00
xx159  C     0.46040   0.23228   0.10320   0.00000  Uiso   1.00
xx160  H     0.92979   0.85272   0.82454   0.00000  Uiso   1.00
xx161  H     0.92930   0.91484   0.90033   0.00000  Uiso   1.00
xx162  H     0.42955   0.21882   0.08667   0.00000  Uiso   1.00
xx163  C     0.46052   0.36601   0.34178   0.00000  Uiso   1.00
xx164  C     0.46044   0.40129   0.38557   0.00000  Uiso   1.00
xx165  C     0.96040   0.73228   0.60320   0.00000  Uiso   1.00
xx166  H     0.42979   0.35272   0.32454   0.00000  Uiso   1.00
xx167  H     0.42930   0.41484   0.40033   0.00000  Uiso   1.00
xx168  H     0.92955   0.71882   0.58667   0.00000  Uiso   1.00
xx169  C     0.63399   0.96052   0.59178   0.00000  Uiso   1.00
xx170  C     0.59871   0.96044   0.63557   0.00000  Uiso   1.00
xx171  C     0.26772   0.46040   0.85320   0.00000  Uiso   1.00
xx172  H     0.64728   0.92979   0.57454   0.00000  Uiso   1.00
xx173  H     0.58516   0.92930   0.65033   0.00000  Uiso   1.00
xx174  H     0.28118   0.42955   0.83667   0.00000  Uiso   1.00
xx175  C     0.13399   0.46052   0.09178   0.00000  Uiso   1.00
xx176  C     0.09871   0.46044   0.13557   0.00000  Uiso   1.00
xx177  C     0.76772   0.96040   0.35320   0.00000  Uiso   1.00
xx178  H     0.14728   0.42979   0.07454   0.00000  Uiso   1.00
xx179  H     0.08516   0.42930   0.15033   0.00000  Uiso   1.00
xx180  H     0.78118   0.92955   0.33667   0.00000  Uiso   1.00
xx181  C     0.86601   0.53948   0.09178   0.00000  Uiso   1.00
xx182  C     0.90129   0.53956   0.13557   0.00000  Uiso   1.00
xx183  C     0.23228   0.03960   0.35320   0.00000  Uiso   1.00
xx184  H     0.85272   0.57021   0.07454   0.00000  Uiso   1.00
xx185  H     0.91484   0.57070   0.15033   0.00000  Uiso   1.00
xx186  H     0.21882   0.07045   0.33667   0.00000  Uiso   1.00
xx187  C     0.36601   0.03948   0.59178   0.00000  Uiso   1.00
xx188  C     0.40129   0.03956   0.63557   0.00000  Uiso   1.00
xx189  C     0.73228   0.53960   0.85320   0.00000  Uiso   1.00
xx190  H     0.35272   0.07021   0.57454   0.00000  Uiso   1.00
xx191  H     0.41484   0.07070   0.65033   0.00000  Uiso   1.00
xx192  H     0.71882   0.57045   0.83667   0.00000  Uiso   1.00
xx193  C     0.00000   0.91903   0.90936   0.00000  Uiso   1.00
xx194  N     0.00000   0.81417   0.77759   0.00000  Uiso   1.00
xx195  C     0.00000   0.82072   0.71169   0.00000  Uiso   1.00
xx196  C     0.00000   0.15168   0.81971   0.00000  Uiso   1.00
xx197  C     0.00000   0.45868   0.29505   0.00000  Uiso   1.00
xx198  C     0.00000   0.28547   0.58116   0.00000  Uiso   1.00
xx199  C     0.50000   0.41903   0.40936   0.00000  Uiso   1.00
xx200  N     0.50000   0.31417   0.27759   0.00000  Uiso   1.00
xx201  C     0.50000   0.32072   0.21169   0.00000  Uiso   1.00
xx202  C     0.50000   0.65168   0.31971   0.00000  Uiso   1.00
xx203  C     0.50000   0.95868   0.79505   0.00000  Uiso   1.00
xx204  C     0.50000   0.78547   0.08116   0.00000  Uiso   1.00
xx205  C     0.50000   0.58097   0.40936   0.00000  Uiso   1.00
xx206  N     0.50000   0.68583   0.27759   0.00000  Uiso   1.00
xx207  C     0.50000   0.67928   0.21169   0.00000  Uiso   1.00
xx208  C     0.50000   0.34832   0.31971   0.00000  Uiso   1.00
xx209  C     0.50000   0.04132   0.79505   0.00000  Uiso   1.00
xx210  C     0.50000   0.21453   0.08116   0.00000  Uiso   1.00
xx211  C     0.00000   0.08097   0.90936   0.00000  Uiso   1.00
xx212  N     0.00000   0.18583   0.77759   0.00000  Uiso   1.00
xx213  C     0.00000   0.17928   0.71169   0.00000  Uiso   1.00
xx214  C     0.00000   0.84832   0.81971   0.00000  Uiso   1.00
xx215  C     0.00000   0.54132   0.29505   0.00000  Uiso   1.00
xx216  C     0.00000   0.71453   0.58116   0.00000  Uiso   1.00
xx217  C     0.08097   0.50000   0.15936   0.00000  Uiso   1.00
xx218  N     0.18583   0.50000   0.02759   0.00000  Uiso   1.00
xx219  C     0.17928   0.50000   0.96169   0.00000  Uiso   1.00
xx220  C     0.84832   0.50000   0.06971   0.00000  Uiso   1.00
xx221  C     0.54132   0.50000   0.54505   0.00000  Uiso   1.00
xx222  C     0.71453   0.50000   0.83116   0.00000  Uiso   1.00
xx223  C     0.41903   0.00000   0.65936   0.00000  Uiso   1.00
xx224  N     0.31417   0.00000   0.52759   0.00000  Uiso   1.00
xx225  C     0.32072   0.00000   0.46169   0.00000  Uiso   1.00
xx226  C     0.65168   0.00000   0.56971   0.00000  Uiso   1.00
xx227  C     0.95868   0.00000   0.04505   0.00000  Uiso   1.00
xx228  C     0.78547   0.00000   0.33116   0.00000  Uiso   1.00
xx229  C     0.50000   0.91903   0.84064   0.00000  Uiso   1.00
xx230  N     0.50000   0.81417   0.97241   0.00000  Uiso   1.00
xx231  C     0.50000   0.82072   0.03831   0.00000  Uiso   1.00
xx232  C     0.50000   0.15168   0.93029   0.00000  Uiso   1.00
xx233  C     0.50000   0.45868   0.45495   0.00000  Uiso   1.00
xx234  C     0.50000   0.28547   0.16884   0.00000  Uiso   1.00
xx235  C     0.00000   0.41903   0.34064   0.00000  Uiso   1.00
xx236  N     0.00000   0.31417   0.47241   0.00000  Uiso   1.00
xx237  C     0.00000   0.32072   0.53831   0.00000  Uiso   1.00
xx238  C     0.00000   0.65168   0.43029   0.00000  Uiso   1.00
xx239  C     0.00000   0.95868   0.95495   0.00000  Uiso   1.00
xx240  C     0.00000   0.78547   0.66884   0.00000  Uiso   1.00
xx241  C     0.00000   0.58097   0.34064   0.00000  Uiso   1.00
xx242  N     0.00000   0.68583   0.47241   0.00000  Uiso   1.00
xx243  C     0.00000   0.67928   0.53831   0.00000  Uiso   1.00
xx244  C     0.00000   0.34832   0.43029   0.00000  Uiso   1.00
xx245  C     0.00000   0.04132   0.95495   0.00000  Uiso   1.00
xx246  C     0.00000   0.21453   0.66884   0.00000  Uiso   1.00
xx247  C     0.50000   0.08097   0.84064   0.00000  Uiso   1.00
xx248  N     0.50000   0.18583   0.97241   0.00000  Uiso   1.00
xx249  C     0.50000   0.17928   0.03831   0.00000  Uiso   1.00
xx250  C     0.50000   0.84832   0.93029   0.00000  Uiso   1.00
xx251  C     0.50000   0.54132   0.45495   0.00000  Uiso   1.00
xx252  C     0.50000   0.71453   0.16884   0.00000  Uiso   1.00
xx253  C     0.41903   0.50000   0.59064   0.00000  Uiso   1.00
xx254  N     0.31417   0.50000   0.72241   0.00000  Uiso   1.00
xx255  C     0.32072   0.50000   0.78831   0.00000  Uiso   1.00
xx256  C     0.65168   0.50000   0.68029   0.00000  Uiso   1.00
xx257  C     0.95868   0.50000   0.20495   0.00000  Uiso   1.00
xx258  C     0.78547   0.50000   0.91884   0.00000  Uiso   1.00
xx259  C     0.08097   0.00000   0.09064   0.00000  Uiso   1.00
xx260  N     0.18583   0.00000   0.22241   0.00000  Uiso   1.00
xx261  C     0.17928   0.00000   0.28831   0.00000  Uiso   1.00
xx262  C     0.84832   0.00000   0.18029   0.00000  Uiso   1.00
xx263  C     0.54132   0.00000   0.70495   0.00000  Uiso   1.00
xx264  C     0.71453   0.00000   0.41884   0.00000  Uiso   1.00
xx265  C     0.91903   0.00000   0.09064   0.00000  Uiso   1.00
xx266  N     0.81417   0.00000   0.22241   0.00000  Uiso   1.00
xx267  C     0.82072   0.00000   0.28831   0.00000  Uiso   1.00
xx268  C     0.15168   0.00000   0.18029   0.00000  Uiso   1.00
xx269  C     0.45868   0.00000   0.70495   0.00000  Uiso   1.00
xx270  C     0.28547   0.00000   0.41884   0.00000  Uiso   1.00
xx271  C     0.58097   0.50000   0.59064   0.00000  Uiso   1.00
xx272  N     0.68583   0.50000   0.72241   0.00000  Uiso   1.00
xx273  C     0.67928   0.50000   0.78831   0.00000  Uiso   1.00
xx274  C     0.34832   0.50000   0.68029   0.00000  Uiso   1.00
xx275  C     0.04132   0.50000   0.20495   0.00000  Uiso   1.00
xx276  C     0.21453   0.50000   0.91884   0.00000  Uiso   1.00
xx277  C     0.58097   0.00000   0.65936   0.00000  Uiso   1.00
xx278  N     0.68583   0.00000   0.52759   0.00000  Uiso   1.00
xx279  C     0.67928   0.00000   0.46169   0.00000  Uiso   1.00
xx280  C     0.34832   0.00000   0.56971   0.00000  Uiso   1.00
xx281  C     0.04132   0.00000   0.04505   0.00000  Uiso   1.00
xx282  C     0.21453   0.00000   0.33116   0.00000  Uiso   1.00
xx283  C     0.91903   0.50000   0.15936   0.00000  Uiso   1.00
xx284  N     0.81417   0.50000   0.02759   0.00000  Uiso   1.00
xx285  C     0.82072   0.50000   0.96169   0.00000  Uiso   1.00
xx286  C     0.15168   0.50000   0.06971   0.00000  Uiso   1.00
xx287  C     0.45868   0.50000   0.54505   0.00000  Uiso   1.00
xx288  C     0.28547   0.50000   0.83116   0.00000  Uiso   1.00
xx289  C     0.54068   0.95932   0.75000   0.00000  Uiso   1.00
xx290  C     0.95932   0.54068   0.25000   0.00000  Uiso   1.00
xx291  C     0.04068   0.04068   0.00000   0.00000  Uiso   1.00
xx292  C     0.45932   0.45932   0.50000   0.00000  Uiso   1.00
xx293  C     0.95932   0.95932   0.00000   0.00000  Uiso   1.00
xx294  C     0.54068   0.54068   0.50000   0.00000  Uiso   1.00
xx295  C     0.45932   0.04068   0.75000   0.00000  Uiso   1.00
xx296  C     0.04068   0.45932   0.25000   0.00000  Uiso   1.00
xx297  C     0.45932   0.54068   0.50000   0.00000  Uiso   1.00
xx298  C     0.04068   0.95932   0.00000   0.00000  Uiso   1.00
xx299  C     0.95932   0.45932   0.25000   0.00000  Uiso   1.00
xx300  C     0.54068   0.04068   0.75000   0.00000  Uiso   1.00
xx301  C     0.04068   0.54068   0.25000   0.00000  Uiso   1.00
xx302  C     0.45932   0.95932   0.75000   0.00000  Uiso   1.00
xx303  C     0.54068   0.45932   0.50000   0.00000  Uiso   1.00
xx304  C     0.95932   0.04068   0.00000   0.00000  Uiso   1.00
xx305  C     0.00000   0.50000   0.33799   0.00000  Uiso   1.00
xx306  C     0.50000   0.00000   0.83799   0.00000  Uiso   1.00
xx307  C     0.50000   0.50000   0.58799   0.00000  Uiso   1.00
xx308  C     0.00000   0.00000   0.08799   0.00000  Uiso   1.00
xx309  C     0.50000   0.50000   0.41201   0.00000  Uiso   1.00
xx310  C     0.00000   0.00000   0.91201   0.00000  Uiso   1.00
xx311  C     0.00000   0.50000   0.16201   0.00000  Uiso   1.00
xx312  C     0.50000   0.00000   0.66201   0.00000  Uiso   1.00
loop_
_geom_bond_atom_site_label_1
_geom_bond_atom_site_label_2
_geom_bond_distance
_geom_bond_site_symmetry_2
_ccdc_geom_bond_type
xx1    xx2     1.397   .     S
xx1    xx4     1.083   .     S
xx1    xx214   1.398   .     D
xx2    xx5     1.082   .     S
xx2    xx193   1.412   .     D
xx3    xx6     1.084   .     S
xx3    xx63    1.399   .     D
xx3    xx210   1.402   .     S
xx7    xx8     1.397   .     D
xx7    xx10    1.083   .     S
xx7    xx208   1.398   .     S
xx8    xx11    1.082   .     S
xx8    xx199   1.412   .     S
xx9    xx12    1.084   .     S
xx9    xx69    1.399   .     D
xx9    xx216   1.402   .     S
xx13   xx14    1.397   .     S
xx13   xx16    1.083   .     S
xx13   xx202   1.398   .     D
xx14   xx17    1.082   .     S
xx14   xx205   1.412   .     D
xx15   xx18    1.084   .     S
xx15   xx51    1.399   .     D
xx15   xx198   1.402   1_655 S
xx19   xx20    1.397   .     D
xx19   xx22    1.083   .     S
xx19   xx196   1.398   1_655 S
xx20   xx23    1.082   .     S
xx20   xx211   1.412   1_655 S
xx21   xx24    1.084   .     S
xx21   xx57    1.399   .     D
xx21   xx204   1.402   .     S
xx25   xx26    1.397   .     S
xx25   xx28    1.083   .     S
xx25   xx286   1.398   .     D
xx26   xx29    1.082   .     S
xx26   xx217   1.412   .     D
xx27   xx30    1.084   .     S
xx27   xx75    1.399   .     D
xx27   xx228   1.402   .     S
xx31   xx32    1.397   .     S
xx31   xx34    1.083   .     S
xx31   xx226   1.398   .     D
xx32   xx35    1.082   .     S
xx32   xx277   1.412   .     D
xx33   xx36    1.084   .     S
xx33   xx81    1.399   .     D
xx33   xx288   1.402   .     S
xx37   xx38    1.397   .     D
xx37   xx40    1.083   .     S
xx37   xx280   1.398   1_565 S
xx38   xx41    1.082   .     S
xx38   xx223   1.412   1_565 S
xx39   xx42    1.084   .     S
xx39   xx87    1.399   .     D
xx39   xx222   1.402   .     S
xx43   xx44    1.397   .     D
xx43   xx46    1.083   .     S
xx43   xx220   1.398   .     S
xx44   xx47    1.082   .     S
xx44   xx283   1.412   .     S
xx45   xx48    1.084   .     S
xx45   xx93    1.399   .     D
xx45   xx282   1.402   1_565 S
xx49   xx50    1.397   .     S
xx49   xx52    1.083   .     S
xx49   xx250   1.398   .     D
xx50   xx53    1.082   .     S
xx50   xx229   1.412   .     D
xx51   xx54    1.084   .     S
xx51   xx246   1.402   1_655 S
xx55   xx56    1.397   .     D
xx55   xx58    1.083   .     S
xx55   xx244   1.398   1_655 S
xx56   xx59    1.082   .     S
xx56   xx235   1.412   1_655 S
xx57   xx60    1.084   .     S
xx57   xx252   1.402   .     S
xx61   xx62    1.397   .     S
xx61   xx64    1.083   .     S
xx61   xx238   1.398   .     D
xx62   xx65    1.082   .     S
xx62   xx241   1.412   .     D
xx63   xx66    1.084   .     S
xx63   xx234   1.402   .     S
xx67   xx68    1.397   .     D
xx67   xx70    1.083   .     S
xx67   xx232   1.398   .     S
xx68   xx71    1.082   .     S
xx68   xx247   1.412   .     S
xx69   xx72    1.084   .     S
xx69   xx240   1.402   .     S
xx73   xx74    1.397   .     S
xx73   xx76    1.083   .     S
xx73   xx274   1.398   .     D
xx74   xx77    1.082   .     S
xx74   xx253   1.412   .     D
xx75   xx78    1.084   .     S
xx75   xx264   1.402   .     S
xx79   xx80    1.397   .     S
xx79   xx82    1.083   .     S
xx79   xx262   1.398   .     D
xx80   xx83    1.082   .     S
xx80   xx265   1.412   .     D
xx81   xx84    1.084   .     S
xx81   xx276   1.402   .     S
xx85   xx86    1.397   .     D
xx85   xx88    1.083   .     S
xx85   xx268   1.398   1_565 S
xx86   xx89    1.082   .     S
xx86   xx259   1.412   1_565 S
xx87   xx90    1.084   .     S
xx87   xx258   1.402   .     S
xx91   xx92    1.397   .     D
xx91   xx94    1.083   .     S
xx91   xx256   1.398   .     S
xx92   xx95    1.082   .     S
xx92   xx271   1.412   .     S
xx93   xx96    1.084   .     S
xx93   xx270   1.402   1_565 S
xx97   xx98    1.397   .     D
xx97   xx100   1.083   .     S
xx97   xx238   1.398   1_655 S
xx98   xx101   1.082   .     S
xx98   xx241   1.412   1_655 S
xx99   xx102   1.084   .     S
xx99   xx159   1.399   .     D
xx99   xx234   1.402   .     S
xx103  xx104   1.397   .     S
xx103  xx106   1.083   .     S
xx103  xx232   1.398   .     D
xx104  xx107   1.082   .     S
xx104  xx247   1.412   .     D
xx105  xx108   1.084   .     S
xx105  xx165   1.399   .     D
xx105  xx240   1.402   1_655 S
xx109  xx110   1.397   .     D
xx109  xx112   1.083   .     S
xx109  xx250   1.398   .     S
xx110  xx113   1.082   .     S
xx110  xx229   1.412   .     S
xx111  xx114   1.084   .     S
xx111  xx147   1.399   .     D
xx111  xx246   1.402   .     S
xx115  xx116   1.397   .     S
xx115  xx118   1.083   .     S
xx115  xx244   1.398   .     D
xx116  xx119   1.082   .     S
xx116  xx235   1.412   .     D
xx117  xx120   1.084   .     S
xx117  xx153   1.399   .     D
xx117  xx252   1.402   .     S
xx121  xx122   1.397   .     D
xx121  xx124   1.083   .     S
xx121  xx262   1.398   1_565 S
xx122  xx125   1.082   .     S
xx122  xx265   1.412   1_565 S
xx123  xx126   1.084   .     S
xx123  xx171   1.399   .     D
xx123  xx276   1.402   .     S
xx127  xx128   1.397   .     D
xx127  xx130   1.083   .     S
xx127  xx274   1.398   .     S
xx128  xx131   1.082   .     S
xx128  xx253   1.412   .     S
xx129  xx132   1.084   .     S
xx129  xx177   1.399   .     D
xx129  xx264   1.402   1_565 S
xx133  xx134   1.397   .     S
xx133  xx136   1.083   .     S
xx133  xx256   1.398   .     D
xx134  xx137   1.082   .     S
xx134  xx271   1.412   .     D
xx135  xx138   1.084   .     S
xx135  xx183   1.399   .     D
xx135  xx270   1.402   .     S
xx139  xx140   1.397   .     S
xx139  xx142   1.083   .     S
xx139  xx268   1.398   .     D
xx140  xx143   1.082   .     S
xx140  xx259   1.412   .     D
xx141  xx144   1.084   .     S
xx141  xx189   1.399   .     D
xx141  xx258   1.402   .     S
xx145  xx146   1.397   .     D
xx145  xx148   1.083   .     S
xx145  xx202   1.398   .     S
xx146  xx149   1.082   .     S
xx146  xx205   1.412   .     S
xx147  xx150   1.084   .     S
xx147  xx198   1.402   .     S
xx151  xx152   1.397   .     S
xx151  xx154   1.083   .     S
xx151  xx196   1.398   .     D
xx152  xx155   1.082   .     S
xx152  xx211   1.412   .     D
xx153  xx156   1.084   .     S
xx153  xx204   1.402   .     S
xx157  xx158   1.397   .     D
xx157  xx160   1.083   .     S
xx157  xx214   1.398   1_655 S
xx158  xx161   1.082   .     S
xx158  xx193   1.412   1_655 S
xx159  xx162   1.084   .     S
xx159  xx210   1.402   .     S
xx163  xx164   1.397   .     S
xx163  xx166   1.083   .     S
xx163  xx208   1.398   .     D
xx164  xx167   1.082   .     S
xx164  xx199   1.412   .     D
xx165  xx168   1.084   .     S
xx165  xx216   1.402   1_655 S
xx169  xx170   1.397   .     D
xx169  xx172   1.083   .     S
xx169  xx226   1.398   1_565 S
xx170  xx173   1.082   .     S
xx170  xx277   1.412   1_565 S
xx171  xx174   1.084   .     S
xx171  xx288   1.402   .     S
xx175  xx176   1.397   .     D
xx175  xx178   1.083   .     S
xx175  xx286   1.398   .     S
xx176  xx179   1.082   .     S
xx176  xx217   1.412   .     S
xx177  xx180   1.084   .     S
xx177  xx228   1.402   1_565 S
xx181  xx182   1.397   .     S
xx181  xx184   1.083   .     S
xx181  xx220   1.398   .     D
xx182  xx185   1.082   .     S
xx182  xx283   1.412   .     D
xx183  xx186   1.084   .     S
xx183  xx282   1.402   .     S
xx187  xx188   1.397   .     S
xx187  xx190   1.083   .     S
xx187  xx280   1.398   .     D
xx188  xx191   1.082   .     S
xx188  xx223   1.412   .     D
xx189  xx192   1.084   .     S
xx189  xx222   1.402   .     S
xx193  xx158   1.412   1_455 S
xx193  xx239   1.525   .     S
xx194  xx195   1.348   .     D
xx194  xx214   1.349   .     S
xx195  xx240   1.385   .     D
xx196  xx19    1.398   1_455 S
xx196  xx212   1.349   .     S
xx197  xx235   1.525   .     S
xx197  xx296   1.544   .     S
xx197  xx299   1.544   1_455 S
xx197  xx305   1.535   .     S
xx198  xx15    1.402   1_455 S
xx198  xx237   1.385   .     D
xx199  xx233   1.525   .     S
xx200  xx201   1.348   .     D
xx200  xx208   1.349   .     S
xx201  xx234   1.385   .     D
xx202  xx206   1.349   .     S
xx203  xx229   1.525   .     S
xx203  xx289   1.544   .     S
xx203  xx302   1.544   .     S
xx203  xx306   1.535   1_565 S
xx204  xx231   1.385   .     D
xx205  xx251   1.525   .     S
xx206  xx207   1.348   .     D
xx207  xx252   1.385   .     D
xx209  xx247   1.525   .     S
xx209  xx295   1.544   .     S
xx209  xx300   1.544   .     S
xx209  xx306   1.535   .     S
xx210  xx249   1.385   .     D
xx211  xx20    1.412   1_455 S
xx211  xx245   1.525   .     S
xx212  xx213   1.348   .     D
xx213  xx246   1.385   .     D
xx214  xx157   1.398   1_455 S
xx215  xx241   1.525   .     S
xx215  xx290   1.544   1_455 S
xx215  xx301   1.544   .     S
xx215  xx305   1.535   .     S
xx216  xx165   1.402   1_455 S
xx216  xx243   1.385   .     D
xx217  xx275   1.525   .     S
xx218  xx219   1.348   1_554 D
xx218  xx286   1.349   .     S
xx219  xx218   1.348   1_556 D
xx219  xx276   1.385   .     D
xx220  xx284   1.349   .     S
xx221  xx271   1.525   .     S
xx221  xx294   1.544   .     S
xx221  xx303   1.544   .     S
xx221  xx307   1.535   .     S
xx222  xx273   1.385   .     D
xx223  xx38    1.412   1_545 S
xx223  xx269   1.525   .     S
xx224  xx225   1.348   .     D
xx224  xx280   1.349   .     S
xx225  xx270   1.385   .     D
xx226  xx169   1.398   1_545 S
xx226  xx278   1.349   .     S
xx227  xx265   1.525   .     S
xx227  xx293   1.544   1_545 S
xx227  xx304   1.544   .     S
xx227  xx308   1.535   1_655 S
xx228  xx177   1.402   1_545 S
xx228  xx267   1.385   .     D
xx230  xx231   1.348   1_556 D
xx230  xx250   1.349   .     S
xx231  xx230   1.348   1_554 D
xx232  xx248   1.349   .     S
xx233  xx292   1.544   .     S
xx233  xx303   1.544   .     S
xx233  xx309   1.535   .     S
xx235  xx56    1.412   1_455 S
xx236  xx237   1.348   .     D
xx236  xx244   1.349   .     S
xx238  xx97    1.398   1_455 S
xx238  xx242   1.349   .     S
xx239  xx293   1.544   1_456 S
xx239  xx298   1.544   1_556 S
xx239  xx310   1.535   1_565 S
xx240  xx105   1.402   1_455 S
xx241  xx98    1.412   1_455 S
xx242  xx243   1.348   .     D
xx244  xx55    1.398   1_455 S
xx245  xx291   1.544   1_556 S
xx245  xx304   1.544   1_456 S
xx245  xx310   1.535   .     S
xx246  xx51    1.402   1_455 S
xx248  xx249   1.348   1_556 D
xx249  xx248   1.348   1_554 D
xx251  xx294   1.544   .     S
xx251  xx297   1.544   .     S
xx251  xx309   1.535   .     S
xx253  xx287   1.525   .     S
xx254  xx255   1.348   .     D
xx254  xx274   1.349   .     S
xx255  xx288   1.385   .     D
xx256  xx272   1.349   .     S
xx257  xx283   1.525   .     S
xx257  xx290   1.544   .     S
xx257  xx299   1.544   .     S
xx257  xx311   1.535   1_655 S
xx258  xx285   1.385   .     D
xx259  xx86    1.412   1_545 S
xx259  xx281   1.525   .     S
xx260  xx261   1.348   .     D
xx260  xx268   1.349   .     S
xx261  xx282   1.385   .     D
xx262  xx121   1.398   1_545 S
xx262  xx266   1.349   .     S
xx263  xx277   1.525   .     S
xx263  xx289   1.544   1_545 S
xx263  xx300   1.544   .     S
xx263  xx312   1.535   .     S
xx264  xx129   1.402   1_545 S
xx264  xx279   1.385   .     D
xx265  xx122   1.412   1_545 S
xx266  xx267   1.348   .     D
xx268  xx85    1.398   1_545 S
xx269  xx295   1.544   .     S
xx269  xx302   1.544   1_545 S
xx269  xx312   1.535   .     S
xx270  xx93    1.402   1_545 S
xx272  xx273   1.348   .     D
xx275  xx296   1.544   .     S
xx275  xx301   1.544   .     S
xx275  xx311   1.535   .     S
xx277  xx170   1.412   1_545 S
xx278  xx279   1.348   .     D
xx280  xx37    1.398   1_545 S
xx281  xx291   1.544   .     S
xx281  xx298   1.544   1_545 S
xx281  xx308   1.535   .     S
xx282  xx45    1.402   1_545 S
xx284  xx285   1.348   1_554 D
xx285  xx284   1.348   1_556 D
xx287  xx292   1.544   .     S
xx287  xx297   1.544   .     S
xx287  xx307   1.535   .     S
xx289  xx263   1.544   1_565 S
xx290  xx215   1.544   1_655 S
xx291  xx245   1.544   1_554 S
xx293  xx227   1.544   1_565 S
xx293  xx239   1.544   1_654 S
xx298  xx281   1.544   1_565 S
xx298  xx239   1.544   1_554 S
xx299  xx197   1.544   1_655 S
xx302  xx269   1.544   1_565 S
xx304  xx245   1.544   1_654 S
xx306  xx203   1.535   1_545 S
xx308  xx227   1.535   1_455 S
xx310  xx239   1.535   1_545 S
xx311  xx257   1.535   1_455 S
