data_142
_audit_creation_date              2023-09-08
_audit_creation_method            'Materials Studio'
_symmetry_space_group_name_H-M    'P1'
_symmetry_Int_Tables_number       1
_symmetry_cell_setting            triclinic
loop_
_symmetry_equiv_pos_as_xyz
  x,y,z
_cell_length_a                    32.0100
_cell_length_b                    32.0100
_cell_length_c                    11.6300
_cell_angle_alpha                 90.0000
_cell_angle_beta                  90.0000
_cell_angle_gamma                 90.0000
loop_
_atom_site_label
_atom_site_type_symbol
_atom_site_fract_x
_atom_site_fract_y
_atom_site_fract_z
_atom_site_U_iso_or_equiv
_atom_site_adp_type
_atom_site_occupancy
xx1    C     0.53790   0.73195   0.59112   0.00000  Uiso   1.00
xx2    C     0.03778   0.37027   0.47985   0.00000  Uiso   1.00
xx3    C     0.03785   0.40500   0.55266   0.00000  Uiso   1.00
xx4    H     0.06719   0.35704   0.45156   0.00000  Uiso   1.00
xx5    H     0.06765   0.41820   0.57740   0.00000  Uiso   1.00
xx6    C     0.03790   0.23195   0.09112   0.00000  Uiso   1.00
xx7    C     0.53778   0.87027   0.97985   0.00000  Uiso   1.00
xx8    C     0.53785   0.90500   0.05266   0.00000  Uiso   1.00
xx9    H     0.56719   0.85704   0.95156   0.00000  Uiso   1.00
xx10   H     0.56765   0.91820   0.07740   0.00000  Uiso   1.00
xx11   C     0.96210   0.76805   0.09112   0.00000  Uiso   1.00
xx12   C     0.46222   0.12973   0.97985   0.00000  Uiso   1.00
xx13   C     0.46215   0.09500   0.05266   0.00000  Uiso   1.00
xx14   H     0.43281   0.14296   0.95156   0.00000  Uiso   1.00
xx15   H     0.43235   0.08180   0.07740   0.00000  Uiso   1.00
xx16   C     0.46210   0.26805   0.59112   0.00000  Uiso   1.00
xx17   C     0.96222   0.62973   0.47985   0.00000  Uiso   1.00
xx18   C     0.96215   0.59500   0.55266   0.00000  Uiso   1.00
xx19   H     0.93281   0.64296   0.45156   0.00000  Uiso   1.00
xx20   H     0.93235   0.58180   0.57740   0.00000  Uiso   1.00
xx21   C     0.26805   0.03790   0.84112   0.00000  Uiso   1.00
xx22   C     0.62973   0.53778   0.72985   0.00000  Uiso   1.00
xx23   C     0.59500   0.53785   0.80266   0.00000  Uiso   1.00
xx24   H     0.64296   0.56719   0.70156   0.00000  Uiso   1.00
xx25   H     0.58180   0.56765   0.82740   0.00000  Uiso   1.00
xx26   C     0.76805   0.53790   0.34112   0.00000  Uiso   1.00
xx27   C     0.12973   0.03778   0.22985   0.00000  Uiso   1.00
xx28   C     0.09500   0.03785   0.30266   0.00000  Uiso   1.00
xx29   H     0.14296   0.06719   0.20156   0.00000  Uiso   1.00
xx30   H     0.08180   0.06765   0.32740   0.00000  Uiso   1.00
xx31   C     0.23195   0.46210   0.34112   0.00000  Uiso   1.00
xx32   C     0.87027   0.96222   0.22985   0.00000  Uiso   1.00
xx33   C     0.90500   0.96215   0.30266   0.00000  Uiso   1.00
xx34   H     0.85704   0.93281   0.20156   0.00000  Uiso   1.00
xx35   H     0.91820   0.93235   0.32740   0.00000  Uiso   1.00
xx36   C     0.73195   0.96210   0.84112   0.00000  Uiso   1.00
xx37   C     0.37027   0.46222   0.72985   0.00000  Uiso   1.00
xx38   C     0.40500   0.46215   0.80266   0.00000  Uiso   1.00
xx39   H     0.35704   0.43281   0.70156   0.00000  Uiso   1.00
xx40   H     0.41820   0.43235   0.82740   0.00000  Uiso   1.00
xx41   C     0.96210   0.73195   0.15888   0.00000  Uiso   1.00
xx42   C     0.46222   0.37027   0.27015   0.00000  Uiso   1.00
xx43   C     0.46215   0.40500   0.19734   0.00000  Uiso   1.00
xx44   H     0.43281   0.35704   0.29844   0.00000  Uiso   1.00
xx45   H     0.43235   0.41820   0.17260   0.00000  Uiso   1.00
xx46   C     0.46210   0.23195   0.65888   0.00000  Uiso   1.00
xx47   C     0.96222   0.87027   0.77015   0.00000  Uiso   1.00
xx48   C     0.96215   0.90500   0.69734   0.00000  Uiso   1.00
xx49   H     0.93281   0.85704   0.79844   0.00000  Uiso   1.00
xx50   H     0.93235   0.91820   0.67260   0.00000  Uiso   1.00
xx51   C     0.53790   0.76805   0.65888   0.00000  Uiso   1.00
xx52   C     0.03778   0.12973   0.77015   0.00000  Uiso   1.00
xx53   C     0.03785   0.09500   0.69734   0.00000  Uiso   1.00
xx54   H     0.06719   0.14296   0.79844   0.00000  Uiso   1.00
xx55   H     0.06765   0.08180   0.67260   0.00000  Uiso   1.00
xx56   C     0.03790   0.26805   0.15888   0.00000  Uiso   1.00
xx57   C     0.53778   0.62973   0.27015   0.00000  Uiso   1.00
xx58   C     0.53785   0.59500   0.19734   0.00000  Uiso   1.00
xx59   H     0.56719   0.64296   0.29844   0.00000  Uiso   1.00
xx60   H     0.56765   0.58180   0.17260   0.00000  Uiso   1.00
xx61   C     0.23195   0.03790   0.90888   0.00000  Uiso   1.00
xx62   C     0.87027   0.53778   0.02015   0.00000  Uiso   1.00
xx63   C     0.90500   0.53785   0.94734   0.00000  Uiso   1.00
xx64   H     0.85704   0.56719   0.04844   0.00000  Uiso   1.00
xx65   H     0.91820   0.56765   0.92260   0.00000  Uiso   1.00
xx66   C     0.73195   0.53790   0.40888   0.00000  Uiso   1.00
xx67   C     0.37027   0.03778   0.52015   0.00000  Uiso   1.00
xx68   C     0.40500   0.03785   0.44734   0.00000  Uiso   1.00
xx69   H     0.35704   0.06719   0.54844   0.00000  Uiso   1.00
xx70   H     0.41820   0.06765   0.42260   0.00000  Uiso   1.00
xx71   C     0.26805   0.46210   0.40888   0.00000  Uiso   1.00
xx72   C     0.62973   0.96222   0.52015   0.00000  Uiso   1.00
xx73   C     0.59500   0.96215   0.44734   0.00000  Uiso   1.00
xx74   H     0.64296   0.93281   0.54844   0.00000  Uiso   1.00
xx75   H     0.58180   0.93235   0.42260   0.00000  Uiso   1.00
xx76   C     0.76805   0.96210   0.90888   0.00000  Uiso   1.00
xx77   C     0.12973   0.46222   0.02015   0.00000  Uiso   1.00
xx78   C     0.09500   0.46215   0.94734   0.00000  Uiso   1.00
xx79   H     0.14296   0.43281   0.04844   0.00000  Uiso   1.00
xx80   H     0.08180   0.43235   0.92260   0.00000  Uiso   1.00
xx81   C     0.46210   0.76805   0.65888   0.00000  Uiso   1.00
xx82   C     0.96222   0.12973   0.77015   0.00000  Uiso   1.00
xx83   C     0.96215   0.09500   0.69734   0.00000  Uiso   1.00
xx84   H     0.93281   0.14296   0.79844   0.00000  Uiso   1.00
xx85   H     0.93235   0.08180   0.67260   0.00000  Uiso   1.00
xx86   C     0.96210   0.26805   0.15888   0.00000  Uiso   1.00
xx87   C     0.46222   0.62973   0.27015   0.00000  Uiso   1.00
xx88   C     0.46215   0.59500   0.19734   0.00000  Uiso   1.00
xx89   H     0.43281   0.64296   0.29844   0.00000  Uiso   1.00
xx90   H     0.43235   0.58180   0.17260   0.00000  Uiso   1.00
xx91   C     0.03790   0.73195   0.15888   0.00000  Uiso   1.00
xx92   C     0.53778   0.37027   0.27015   0.00000  Uiso   1.00
xx93   C     0.53785   0.40500   0.19734   0.00000  Uiso   1.00
xx94   H     0.56719   0.35704   0.29844   0.00000  Uiso   1.00
xx95   H     0.56765   0.41820   0.17260   0.00000  Uiso   1.00
xx96   C     0.53790   0.23195   0.65888   0.00000  Uiso   1.00
xx97   C     0.03778   0.87027   0.77015   0.00000  Uiso   1.00
xx98   C     0.03785   0.90500   0.69734   0.00000  Uiso   1.00
xx99   H     0.06719   0.85704   0.79844   0.00000  Uiso   1.00
xx100  H     0.06765   0.91820   0.67260   0.00000  Uiso   1.00
xx101  C     0.73195   0.46210   0.40888   0.00000  Uiso   1.00
xx102  C     0.37027   0.96222   0.52015   0.00000  Uiso   1.00
xx103  C     0.40500   0.96215   0.44734   0.00000  Uiso   1.00
xx104  H     0.35704   0.93281   0.54844   0.00000  Uiso   1.00
xx105  H     0.41820   0.93235   0.42260   0.00000  Uiso   1.00
xx106  C     0.23195   0.96210   0.90888   0.00000  Uiso   1.00
xx107  C     0.87027   0.46222   0.02015   0.00000  Uiso   1.00
xx108  C     0.90500   0.46215   0.94734   0.00000  Uiso   1.00
xx109  H     0.85704   0.43281   0.04844   0.00000  Uiso   1.00
xx110  H     0.91820   0.43235   0.92260   0.00000  Uiso   1.00
xx111  C     0.76805   0.03790   0.90888   0.00000  Uiso   1.00
xx112  C     0.12973   0.53778   0.02015   0.00000  Uiso   1.00
xx113  C     0.09500   0.53785   0.94734   0.00000  Uiso   1.00
xx114  H     0.14296   0.56719   0.04844   0.00000  Uiso   1.00
xx115  H     0.08180   0.56765   0.92260   0.00000  Uiso   1.00
xx116  C     0.26805   0.53790   0.40888   0.00000  Uiso   1.00
xx117  C     0.62973   0.03778   0.52015   0.00000  Uiso   1.00
xx118  C     0.59500   0.03785   0.44734   0.00000  Uiso   1.00
xx119  H     0.64296   0.06719   0.54844   0.00000  Uiso   1.00
xx120  H     0.58180   0.06765   0.42260   0.00000  Uiso   1.00
xx121  C     0.03790   0.76805   0.09112   0.00000  Uiso   1.00
xx122  C     0.53778   0.12973   0.97985   0.00000  Uiso   1.00
xx123  C     0.53785   0.09500   0.05266   0.00000  Uiso   1.00
xx124  H     0.56719   0.14296   0.95156   0.00000  Uiso   1.00
xx125  H     0.56765   0.08180   0.07740   0.00000  Uiso   1.00
xx126  C     0.53790   0.26805   0.59112   0.00000  Uiso   1.00
xx127  C     0.03778   0.62973   0.47985   0.00000  Uiso   1.00
xx128  C     0.03785   0.59500   0.55266   0.00000  Uiso   1.00
xx129  H     0.06719   0.64296   0.45156   0.00000  Uiso   1.00
xx130  H     0.06765   0.58180   0.57740   0.00000  Uiso   1.00
xx131  C     0.46210   0.73195   0.59112   0.00000  Uiso   1.00
xx132  C     0.96222   0.37027   0.47985   0.00000  Uiso   1.00
xx133  C     0.96215   0.40500   0.55266   0.00000  Uiso   1.00
xx134  H     0.93281   0.35704   0.45156   0.00000  Uiso   1.00
xx135  H     0.93235   0.41820   0.57740   0.00000  Uiso   1.00
xx136  C     0.96210   0.23195   0.09112   0.00000  Uiso   1.00
xx137  C     0.46222   0.87027   0.97985   0.00000  Uiso   1.00
xx138  C     0.46215   0.90500   0.05266   0.00000  Uiso   1.00
xx139  H     0.43281   0.85704   0.95156   0.00000  Uiso   1.00
xx140  H     0.43235   0.91820   0.07740   0.00000  Uiso   1.00
xx141  C     0.76805   0.46210   0.34112   0.00000  Uiso   1.00
xx142  C     0.12973   0.96222   0.22985   0.00000  Uiso   1.00
xx143  C     0.09500   0.96215   0.30266   0.00000  Uiso   1.00
xx144  H     0.14296   0.93281   0.20156   0.00000  Uiso   1.00
xx145  H     0.08180   0.93235   0.32740   0.00000  Uiso   1.00
xx146  C     0.26805   0.96210   0.84112   0.00000  Uiso   1.00
xx147  C     0.62973   0.46222   0.72985   0.00000  Uiso   1.00
xx148  C     0.59500   0.46215   0.80266   0.00000  Uiso   1.00
xx149  H     0.64296   0.43281   0.70156   0.00000  Uiso   1.00
xx150  H     0.58180   0.43235   0.82740   0.00000  Uiso   1.00
xx151  C     0.73195   0.03790   0.84112   0.00000  Uiso   1.00
xx152  C     0.37027   0.53778   0.72985   0.00000  Uiso   1.00
xx153  C     0.40500   0.53785   0.80266   0.00000  Uiso   1.00
xx154  H     0.35704   0.56719   0.70156   0.00000  Uiso   1.00
xx155  H     0.41820   0.56765   0.82740   0.00000  Uiso   1.00
xx156  C     0.23195   0.53790   0.34112   0.00000  Uiso   1.00
xx157  C     0.87027   0.03778   0.22985   0.00000  Uiso   1.00
xx158  C     0.90500   0.03785   0.30266   0.00000  Uiso   1.00
xx159  H     0.85704   0.06719   0.20156   0.00000  Uiso   1.00
xx160  H     0.91820   0.06765   0.32740   0.00000  Uiso   1.00
xx161  C     0.00000   0.64723   0.44345   0.00000  Uiso   1.00
xx162  C     0.00000   0.42235   0.59285   0.00000  Uiso   1.00
xx163  N     0.00000   0.31843   0.37620   0.00000  Uiso   1.00
xx164  C     0.00000   0.32178   0.26065   0.00000  Uiso   1.00
xx165  C     0.50000   0.14723   0.94345   0.00000  Uiso   1.00
xx166  C     0.50000   0.92235   0.09285   0.00000  Uiso   1.00
xx167  N     0.50000   0.81843   0.87620   0.00000  Uiso   1.00
xx168  C     0.50000   0.82178   0.76065   0.00000  Uiso   1.00
xx169  C     0.50000   0.85277   0.94345   0.00000  Uiso   1.00
xx170  C     0.50000   0.07765   0.09285   0.00000  Uiso   1.00
xx171  N     0.50000   0.18157   0.87620   0.00000  Uiso   1.00
xx172  C     0.50000   0.17822   0.76065   0.00000  Uiso   1.00
xx173  C     0.00000   0.35277   0.44345   0.00000  Uiso   1.00
xx174  C     0.00000   0.57765   0.59285   0.00000  Uiso   1.00
xx175  N     0.00000   0.68157   0.37620   0.00000  Uiso   1.00
xx176  C     0.00000   0.67822   0.26065   0.00000  Uiso   1.00
xx177  C     0.35277   0.50000   0.69345   0.00000  Uiso   1.00
xx178  C     0.57765   0.50000   0.84285   0.00000  Uiso   1.00
xx179  N     0.68157   0.50000   0.62620   0.00000  Uiso   1.00
xx180  C     0.67822   0.50000   0.51065   0.00000  Uiso   1.00
xx181  C     0.14723   0.00000   0.19345   0.00000  Uiso   1.00
xx182  C     0.92235   0.00000   0.34285   0.00000  Uiso   1.00
xx183  N     0.81843   0.00000   0.12620   0.00000  Uiso   1.00
xx184  C     0.82178   0.00000   0.01065   0.00000  Uiso   1.00
xx185  C     0.50000   0.64723   0.30655   0.00000  Uiso   1.00
xx186  C     0.50000   0.42235   0.15715   0.00000  Uiso   1.00
xx187  N     0.50000   0.31843   0.37380   0.00000  Uiso   1.00
xx188  C     0.50000   0.32178   0.48935   0.00000  Uiso   1.00
xx189  C     0.00000   0.14723   0.80655   0.00000  Uiso   1.00
xx190  C     0.00000   0.92235   0.65715   0.00000  Uiso   1.00
xx191  N     0.00000   0.81843   0.87380   0.00000  Uiso   1.00
xx192  C     0.00000   0.82178   0.98935   0.00000  Uiso   1.00
xx193  C     0.00000   0.85277   0.80655   0.00000  Uiso   1.00
xx194  C     0.00000   0.07765   0.65715   0.00000  Uiso   1.00
xx195  N     0.00000   0.18157   0.87380   0.00000  Uiso   1.00
xx196  C     0.00000   0.17822   0.98935   0.00000  Uiso   1.00
xx197  C     0.50000   0.35277   0.30655   0.00000  Uiso   1.00
xx198  C     0.50000   0.57765   0.15715   0.00000  Uiso   1.00
xx199  N     0.50000   0.68157   0.37380   0.00000  Uiso   1.00
xx200  C     0.50000   0.67822   0.48935   0.00000  Uiso   1.00
xx201  C     0.14723   0.50000   0.05655   0.00000  Uiso   1.00
xx202  C     0.92235   0.50000   0.90715   0.00000  Uiso   1.00
xx203  N     0.81843   0.50000   0.12380   0.00000  Uiso   1.00
xx204  C     0.82178   0.50000   0.23935   0.00000  Uiso   1.00
xx205  C     0.35277   0.00000   0.55655   0.00000  Uiso   1.00
xx206  C     0.57765   0.00000   0.40715   0.00000  Uiso   1.00
xx207  N     0.68157   0.00000   0.62380   0.00000  Uiso   1.00
xx208  C     0.67822   0.00000   0.73935   0.00000  Uiso   1.00
xx209  C     0.85277   0.50000   0.05655   0.00000  Uiso   1.00
xx210  C     0.07765   0.50000   0.90715   0.00000  Uiso   1.00
xx211  N     0.18157   0.50000   0.12380   0.00000  Uiso   1.00
xx212  C     0.17822   0.50000   0.23935   0.00000  Uiso   1.00
xx213  C     0.64723   0.00000   0.55655   0.00000  Uiso   1.00
xx214  C     0.42235   0.00000   0.40715   0.00000  Uiso   1.00
xx215  N     0.31843   0.00000   0.62380   0.00000  Uiso   1.00
xx216  C     0.32178   0.00000   0.73935   0.00000  Uiso   1.00
xx217  C     0.85277   0.00000   0.19345   0.00000  Uiso   1.00
xx218  C     0.07765   0.00000   0.34285   0.00000  Uiso   1.00
xx219  N     0.18157   0.00000   0.12620   0.00000  Uiso   1.00
xx220  C     0.17822   0.00000   0.01065   0.00000  Uiso   1.00
xx221  C     0.64723   0.50000   0.69345   0.00000  Uiso   1.00
xx222  C     0.42235   0.50000   0.84285   0.00000  Uiso   1.00
xx223  N     0.31843   0.50000   0.62620   0.00000  Uiso   1.00
xx224  C     0.32178   0.50000   0.51065   0.00000  Uiso   1.00
xx225  C     0.50000   0.46047   0.07846   0.00000  Uiso   1.00
xx226  C     0.50000   0.28617   0.55692   0.00000  Uiso   1.00
xx227  C     0.00000   0.96047   0.57846   0.00000  Uiso   1.00
xx228  C     0.00000   0.78617   0.05692   0.00000  Uiso   1.00
xx229  C     0.00000   0.03953   0.57846   0.00000  Uiso   1.00
xx230  C     0.00000   0.21383   0.05692   0.00000  Uiso   1.00
xx231  C     0.50000   0.53953   0.07846   0.00000  Uiso   1.00
xx232  C     0.50000   0.71383   0.55692   0.00000  Uiso   1.00
xx233  C     0.53953   0.00000   0.32846   0.00000  Uiso   1.00
xx234  C     0.71383   0.00000   0.80692   0.00000  Uiso   1.00
xx235  C     0.96047   0.50000   0.82846   0.00000  Uiso   1.00
xx236  C     0.78617   0.50000   0.30692   0.00000  Uiso   1.00
xx237  C     0.00000   0.46047   0.67154   0.00000  Uiso   1.00
xx238  C     0.00000   0.28617   0.19308   0.00000  Uiso   1.00
xx239  C     0.50000   0.96047   0.17154   0.00000  Uiso   1.00
xx240  C     0.50000   0.78617   0.69308   0.00000  Uiso   1.00
xx241  C     0.50000   0.03953   0.17154   0.00000  Uiso   1.00
xx242  C     0.50000   0.21383   0.69308   0.00000  Uiso   1.00
xx243  C     0.00000   0.53953   0.67154   0.00000  Uiso   1.00
xx244  C     0.00000   0.71383   0.19308   0.00000  Uiso   1.00
xx245  C     0.96047   0.00000   0.42154   0.00000  Uiso   1.00
xx246  C     0.78617   0.00000   0.94308   0.00000  Uiso   1.00
xx247  C     0.53953   0.50000   0.92154   0.00000  Uiso   1.00
xx248  C     0.71383   0.50000   0.44308   0.00000  Uiso   1.00
xx249  C     0.46047   0.50000   0.92154   0.00000  Uiso   1.00
xx250  C     0.28617   0.50000   0.44308   0.00000  Uiso   1.00
xx251  C     0.03953   0.00000   0.42154   0.00000  Uiso   1.00
xx252  C     0.21383   0.00000   0.94308   0.00000  Uiso   1.00
xx253  C     0.03953   0.50000   0.82846   0.00000  Uiso   1.00
xx254  C     0.21383   0.50000   0.30692   0.00000  Uiso   1.00
xx255  C     0.46047   0.00000   0.32846   0.00000  Uiso   1.00
xx256  C     0.28617   0.00000   0.80692   0.00000  Uiso   1.00
xx257  C     0.53889   0.46111   0.00000   0.00000  Uiso   1.00
xx258  C     0.03889   0.96111   0.50000   0.00000  Uiso   1.00
xx259  C     0.96111   0.03889   0.50000   0.00000  Uiso   1.00
xx260  C     0.46111   0.53889   0.00000   0.00000  Uiso   1.00
xx261  C     0.53889   0.03889   0.25000   0.00000  Uiso   1.00
xx262  C     0.03889   0.53889   0.75000   0.00000  Uiso   1.00
xx263  C     0.96111   0.46111   0.75000   0.00000  Uiso   1.00
xx264  C     0.46111   0.96111   0.25000   0.00000  Uiso   1.00
xx265  C     0.46111   0.03889   0.25000   0.00000  Uiso   1.00
xx266  C     0.96111   0.53889   0.75000   0.00000  Uiso   1.00
xx267  C     0.03889   0.46111   0.75000   0.00000  Uiso   1.00
xx268  C     0.53889   0.96111   0.25000   0.00000  Uiso   1.00
xx269  C     0.46111   0.46111   0.00000   0.00000  Uiso   1.00
xx270  C     0.96111   0.96111   0.50000   0.00000  Uiso   1.00
xx271  C     0.03889   0.03889   0.50000   0.00000  Uiso   1.00
xx272  C     0.53889   0.53889   0.00000   0.00000  Uiso   1.00
xx273  C     0.50000   0.50000   0.15332   0.00000  Uiso   1.00
xx274  C     0.00000   0.00000   0.65332   0.00000  Uiso   1.00
xx275  C     0.50000   0.00000   0.40332   0.00000  Uiso   1.00
xx276  C     0.00000   0.50000   0.90332   0.00000  Uiso   1.00
xx277  C     0.00000   0.50000   0.59668   0.00000  Uiso   1.00
xx278  C     0.50000   0.00000   0.09668   0.00000  Uiso   1.00
xx279  C     0.00000   0.00000   0.34668   0.00000  Uiso   1.00
xx280  C     0.50000   0.50000   0.84668   0.00000  Uiso   1.00
loop_
_geom_bond_atom_site_label_1
_geom_bond_atom_site_label_2
_geom_bond_distance
_geom_bond_site_symmetry_2
_ccdc_geom_bond_type
xx1    xx51    1.399   .     T
xx1    xx232   1.402   .     S
xx2    xx3     1.397   .     S
xx2    xx4     1.083   .     S
xx2    xx173   1.398   .     D
xx3    xx5     1.082   .     S
xx3    xx162   1.412   .     D
xx6    xx56    1.399   .     T
xx6    xx230   1.402   .     S
xx7    xx8     1.397   1_556 S
xx7    xx9     1.083   .     S
xx7    xx169   1.398   .     D
xx8    xx7     1.397   1_554 S
xx8    xx10    1.082   .     S
xx8    xx166   1.412   .     D
xx11   xx41    1.399   .     T
xx11   xx228   1.402   1_655 S
xx12   xx13    1.397   1_556 D
xx12   xx14    1.083   .     S
xx12   xx165   1.398   .     S
xx13   xx12    1.397   1_554 D
xx13   xx15    1.082   .     S
xx13   xx170   1.412   .     S
xx16   xx46    1.399   .     T
xx16   xx226   1.402   .     S
xx17   xx18    1.397   .     D
xx17   xx19    1.083   .     S
xx17   xx161   1.398   1_655 S
xx18   xx20    1.082   .     S
xx18   xx174   1.412   1_655 S
xx21   xx61    1.399   .     T
xx21   xx256   1.402   .     S
xx22   xx23    1.397   .     S
xx22   xx24    1.083   .     S
xx22   xx221   1.398   .     D
xx23   xx25    1.082   .     S
xx23   xx178   1.412   .     D
xx26   xx66    1.399   .     T
xx26   xx236   1.402   .     S
xx27   xx28    1.397   .     S
xx27   xx29    1.083   .     S
xx27   xx181   1.398   .     D
xx28   xx30    1.082   .     S
xx28   xx218   1.412   .     D
xx31   xx71    1.399   .     T
xx31   xx254   1.402   .     S
xx32   xx33    1.397   .     D
xx32   xx34    1.083   .     S
xx32   xx217   1.398   1_565 S
xx33   xx35    1.082   .     S
xx33   xx182   1.412   1_565 S
xx36   xx76    1.399   .     T
xx36   xx234   1.402   1_565 S
xx37   xx38    1.397   .     D
xx37   xx39    1.083   .     S
xx37   xx177   1.398   .     S
xx38   xx40    1.082   .     S
xx38   xx222   1.412   .     S
xx41   xx244   1.402   1_655 S
xx42   xx43    1.397   .     D
xx42   xx44    1.083   .     S
xx42   xx197   1.398   .     S
xx43   xx45    1.082   .     S
xx43   xx186   1.412   .     S
xx46   xx242   1.402   .     S
xx47   xx48    1.397   .     D
xx47   xx49    1.083   .     S
xx47   xx193   1.398   1_655 S
xx48   xx50    1.082   .     S
xx48   xx190   1.412   1_655 S
xx51   xx240   1.402   .     S
xx52   xx53    1.397   .     S
xx52   xx54    1.083   .     S
xx52   xx189   1.398   .     D
xx53   xx55    1.082   .     S
xx53   xx194   1.412   .     D
xx56   xx238   1.402   .     S
xx57   xx58    1.397   .     S
xx57   xx59    1.083   .     S
xx57   xx185   1.398   .     D
xx58   xx60    1.082   .     S
xx58   xx198   1.412   .     D
xx61   xx252   1.402   .     S
xx62   xx63    1.397   1_554 S
xx62   xx64    1.083   .     S
xx62   xx209   1.398   .     D
xx63   xx62    1.397   1_556 S
xx63   xx65    1.082   .     S
xx63   xx202   1.412   .     D
xx66   xx248   1.402   .     S
xx67   xx68    1.397   .     S
xx67   xx69    1.083   .     S
xx67   xx205   1.398   .     D
xx68   xx70    1.082   .     S
xx68   xx214   1.412   .     D
xx71   xx250   1.402   .     S
xx72   xx73    1.397   .     D
xx72   xx74    1.083   .     S
xx72   xx213   1.398   1_565 S
xx73   xx75    1.082   .     S
xx73   xx206   1.412   1_565 S
xx76   xx246   1.402   1_565 S
xx77   xx78    1.397   1_554 D
xx77   xx79    1.083   .     S
xx77   xx201   1.398   .     S
xx78   xx77    1.397   1_556 D
xx78   xx80    1.082   .     S
xx78   xx210   1.412   .     S
xx81   xx131   1.399   .     T
xx81   xx240   1.402   .     S
xx82   xx83    1.397   .     D
xx82   xx84    1.083   .     S
xx82   xx189   1.398   1_655 S
xx83   xx85    1.082   .     S
xx83   xx194   1.412   1_655 S
xx86   xx136   1.399   .     T
xx86   xx238   1.402   1_655 S
xx87   xx88    1.397   .     D
xx87   xx89    1.083   .     S
xx87   xx185   1.398   .     S
xx88   xx90    1.082   .     S
xx88   xx198   1.412   .     S
xx91   xx121   1.399   .     T
xx91   xx244   1.402   .     S
xx92   xx93    1.397   .     S
xx92   xx94    1.083   .     S
xx92   xx197   1.398   .     D
xx93   xx95    1.082   .     S
xx93   xx186   1.412   .     D
xx96   xx126   1.399   .     T
xx96   xx242   1.402   .     S
xx97   xx98    1.397   .     S
xx97   xx99    1.083   .     S
xx97   xx193   1.398   .     D
xx98   xx100   1.082   .     S
xx98   xx190   1.412   .     D
xx101  xx141   1.399   .     T
xx101  xx248   1.402   .     S
xx102  xx103   1.397   .     D
xx102  xx104   1.083   .     S
xx102  xx205   1.398   1_565 S
xx103  xx105   1.082   .     S
xx103  xx214   1.412   1_565 S
xx106  xx146   1.399   .     T
xx106  xx252   1.402   1_565 S
xx107  xx108   1.397   1_554 D
xx107  xx109   1.083   .     S
xx107  xx209   1.398   .     S
xx108  xx107   1.397   1_556 D
xx108  xx110   1.082   .     S
xx108  xx202   1.412   .     S
xx111  xx151   1.399   .     T
xx111  xx246   1.402   .     S
xx112  xx113   1.397   1_554 S
xx112  xx114   1.083   .     S
xx112  xx201   1.398   .     D
xx113  xx112   1.397   1_556 S
xx113  xx115   1.082   .     S
xx113  xx210   1.412   .     D
xx116  xx156   1.399   .     T
xx116  xx250   1.402   .     S
xx117  xx118   1.397   .     S
xx117  xx119   1.083   .     S
xx117  xx213   1.398   .     D
xx118  xx120   1.082   .     S
xx118  xx206   1.412   .     D
xx121  xx228   1.402   .     S
xx122  xx123   1.397   1_556 S
xx122  xx124   1.083   .     S
xx122  xx165   1.398   .     D
xx123  xx122   1.397   1_554 S
xx123  xx125   1.082   .     S
xx123  xx170   1.412   .     D
xx126  xx226   1.402   .     S
xx127  xx128   1.397   .     S
xx127  xx129   1.083   .     S
xx127  xx161   1.398   .     D
xx128  xx130   1.082   .     S
xx128  xx174   1.412   .     D
xx131  xx232   1.402   .     S
xx132  xx133   1.397   .     D
xx132  xx134   1.083   .     S
xx132  xx173   1.398   1_655 S
xx133  xx135   1.082   .     S
xx133  xx162   1.412   1_655 S
xx136  xx230   1.402   1_655 S
xx137  xx138   1.397   1_556 D
xx137  xx139   1.083   .     S
xx137  xx169   1.398   .     S
xx138  xx137   1.397   1_554 D
xx138  xx140   1.082   .     S
xx138  xx166   1.412   .     S
xx141  xx236   1.402   .     S
xx142  xx143   1.397   .     D
xx142  xx144   1.083   .     S
xx142  xx181   1.398   1_565 S
xx143  xx145   1.082   .     S
xx143  xx218   1.412   1_565 S
xx146  xx256   1.402   1_565 S
xx147  xx148   1.397   .     D
xx147  xx149   1.083   .     S
xx147  xx221   1.398   .     S
xx148  xx150   1.082   .     S
xx148  xx178   1.412   .     S
xx151  xx234   1.402   .     S
xx152  xx153   1.397   .     S
xx152  xx154   1.083   .     S
xx152  xx177   1.398   .     D
xx153  xx155   1.082   .     S
xx153  xx222   1.412   .     D
xx156  xx254   1.402   .     S
xx157  xx158   1.397   .     S
xx157  xx159   1.083   .     S
xx157  xx217   1.398   .     D
xx158  xx160   1.082   .     S
xx158  xx182   1.412   .     D
xx161  xx17    1.398   1_455 S
xx161  xx175   1.349   .     S
xx162  xx133   1.412   1_455 S
xx162  xx237   1.525   .     S
xx163  xx164   1.348   .     D
xx163  xx173   1.349   .     S
xx164  xx238   1.385   .     D
xx165  xx171   1.349   .     S
xx166  xx239   1.525   .     S
xx167  xx168   1.348   .     D
xx167  xx169   1.349   .     S
xx168  xx240   1.385   .     D
xx170  xx241   1.525   .     S
xx171  xx172   1.348   .     D
xx172  xx242   1.385   .     D
xx173  xx132   1.398   1_455 S
xx174  xx18    1.412   1_455 S
xx174  xx243   1.525   .     S
xx175  xx176   1.348   .     D
xx176  xx244   1.385   .     D
xx177  xx223   1.349   .     S
xx178  xx247   1.525   .     S
xx179  xx180   1.348   .     D
xx179  xx221   1.349   .     S
xx180  xx248   1.385   .     D
xx181  xx142   1.398   1_545 S
xx181  xx219   1.349   .     S
xx182  xx33    1.412   1_545 S
xx182  xx245   1.525   .     S
xx183  xx184   1.348   .     D
xx183  xx217   1.349   .     S
xx184  xx246   1.385   1_554 D
xx185  xx199   1.349   .     S
xx186  xx225   1.525   .     S
xx187  xx188   1.348   .     D
xx187  xx197   1.349   .     S
xx188  xx226   1.385   .     D
xx189  xx82    1.398   1_455 S
xx189  xx195   1.349   .     S
xx190  xx48    1.412   1_455 S
xx190  xx227   1.525   .     S
xx191  xx192   1.348   .     D
xx191  xx193   1.349   .     S
xx192  xx228   1.385   1_556 D
xx193  xx47    1.398   1_455 S
xx194  xx83    1.412   1_455 S
xx194  xx229   1.525   .     S
xx195  xx196   1.348   .     D
xx196  xx230   1.385   1_556 D
xx198  xx231   1.525   .     S
xx199  xx200   1.348   .     D
xx200  xx232   1.385   .     D
xx201  xx211   1.349   .     S
xx202  xx235   1.525   .     S
xx203  xx204   1.348   .     D
xx203  xx209   1.349   .     S
xx204  xx236   1.385   .     D
xx205  xx102   1.398   1_545 S
xx205  xx215   1.349   .     S
xx206  xx73    1.412   1_545 S
xx206  xx233   1.525   .     S
xx207  xx208   1.348   .     D
xx207  xx213   1.349   .     S
xx208  xx234   1.385   .     D
xx210  xx253   1.525   .     S
xx211  xx212   1.348   .     D
xx212  xx254   1.385   .     D
xx213  xx72    1.398   1_545 S
xx214  xx103   1.412   1_545 S
xx214  xx255   1.525   .     S
xx215  xx216   1.348   .     D
xx216  xx256   1.385   .     D
xx217  xx32    1.398   1_545 S
xx218  xx143   1.412   1_545 S
xx218  xx251   1.525   .     S
xx219  xx220   1.348   .     D
xx220  xx252   1.385   1_554 D
xx222  xx249   1.525   .     S
xx223  xx224   1.348   .     D
xx224  xx250   1.385   .     D
xx225  xx257   1.544   .     S
xx225  xx269   1.544   .     S
xx225  xx273   1.536   .     S
xx227  xx258   1.544   .     S
xx227  xx270   1.544   1_455 S
xx227  xx274   1.536   1_565 S
xx228  xx11    1.402   1_455 S
xx228  xx192   1.385   1_554 D
xx229  xx259   1.544   1_455 S
xx229  xx271   1.544   .     S
xx229  xx274   1.536   .     S
xx230  xx136   1.402   1_455 S
xx230  xx196   1.385   1_554 D
xx231  xx260   1.544   .     S
xx231  xx272   1.544   .     S
xx231  xx273   1.536   .     S
xx233  xx261   1.544   .     S
xx233  xx268   1.544   1_545 S
xx233  xx275   1.536   .     S
xx234  xx36    1.402   1_545 S
xx235  xx263   1.544   .     S
xx235  xx266   1.544   .     S
xx235  xx276   1.536   1_655 S
xx237  xx263   1.544   1_455 S
xx237  xx267   1.544   .     S
xx237  xx277   1.536   .     S
xx238  xx86    1.402   1_455 S
xx239  xx264   1.544   .     S
xx239  xx268   1.544   .     S
xx239  xx278   1.536   1_565 S
xx241  xx261   1.544   .     S
xx241  xx265   1.544   .     S
xx241  xx278   1.536   .     S
xx243  xx262   1.544   .     S
xx243  xx266   1.544   1_455 S
xx243  xx277   1.536   .     S
xx244  xx41    1.402   1_455 S
xx245  xx259   1.544   .     S
xx245  xx270   1.544   1_545 S
xx245  xx279   1.536   1_655 S
xx246  xx184   1.385   1_556 D
xx246  xx76    1.402   1_545 S
xx247  xx257   1.544   1_556 S
xx247  xx272   1.544   1_556 S
xx247  xx280   1.536   .     S
xx249  xx260   1.544   1_556 S
xx249  xx269   1.544   1_556 S
xx249  xx280   1.536   .     S
xx251  xx258   1.544   1_545 S
xx251  xx271   1.544   .     S
xx251  xx279   1.536   .     S
xx252  xx220   1.385   1_556 D
xx252  xx106   1.402   1_545 S
xx253  xx262   1.544   .     S
xx253  xx267   1.544   .     S
xx253  xx276   1.536   .     S
xx255  xx264   1.544   1_545 S
xx255  xx265   1.544   .     S
xx255  xx275   1.536   .     S
xx256  xx146   1.402   1_545 S
xx257  xx247   1.544   1_554 S
xx258  xx251   1.544   1_565 S
xx259  xx229   1.544   1_655 S
xx260  xx249   1.544   1_554 S
xx263  xx237   1.544   1_655 S
xx264  xx255   1.544   1_565 S
xx266  xx243   1.544   1_655 S
xx268  xx233   1.544   1_565 S
xx269  xx249   1.544   1_554 S
xx270  xx227   1.544   1_655 S
xx270  xx245   1.544   1_565 S
xx272  xx247   1.544   1_554 S
xx274  xx227   1.536   1_545 S
xx276  xx235   1.536   1_455 S
xx278  xx239   1.536   1_545 S
xx279  xx245   1.536   1_455 S
