data_143
_audit_creation_date              2023-09-08
_audit_creation_method            'Materials Studio'
_symmetry_space_group_name_H-M    'P1'
_symmetry_Int_Tables_number       1
_symmetry_cell_setting            triclinic
loop_
_symmetry_equiv_pos_as_xyz
  x,y,z
_cell_length_a                    22.5800
_cell_length_b                    22.5800
_cell_length_c                    9.7200
_cell_angle_alpha                 90.0000
_cell_angle_beta                  90.0000
_cell_angle_gamma                 90.0000
loop_
_atom_site_label
_atom_site_type_symbol
_atom_site_fract_x
_atom_site_fract_y
_atom_site_fract_z
_atom_site_U_iso_or_equiv
_atom_site_adp_type
_atom_site_occupancy
xx1    C     0.40705   0.33150   0.67209   0.00000  Uiso   1.00
xx2    C     0.44198   0.36620   0.75863   0.00000  Uiso   1.00
xx3    C     0.26956   0.19352   0.21157   0.00000  Uiso   1.00
xx4    H     0.42349   0.28904   0.63684   0.00000  Uiso   1.00
xx5    H     0.48505   0.34886   0.78373   0.00000  Uiso   1.00
xx6    H     0.28519   0.15001   0.18156   0.00000  Uiso   1.00
xx7    H     0.96945   0.89311   0.44078   0.00000  Uiso   1.00
xx8    C     0.59295   0.66850   0.67209   0.00000  Uiso   1.00
xx9    C     0.55802   0.63380   0.75863   0.00000  Uiso   1.00
xx10   C     0.73044   0.80648   0.21157   0.00000  Uiso   1.00
xx11   H     0.57651   0.71096   0.63684   0.00000  Uiso   1.00
xx12   H     0.51495   0.65114   0.78373   0.00000  Uiso   1.00
xx13   H     0.71481   0.84999   0.18156   0.00000  Uiso   1.00
xx14   H     0.03055   0.10689   0.44078   0.00000  Uiso   1.00
xx15   C     0.16850   0.90705   0.17209   0.00000  Uiso   1.00
xx16   C     0.13380   0.94198   0.25863   0.00000  Uiso   1.00
xx17   C     0.30648   0.76956   0.71157   0.00000  Uiso   1.00
xx18   H     0.21096   0.92349   0.13684   0.00000  Uiso   1.00
xx19   H     0.15114   0.98505   0.28373   0.00000  Uiso   1.00
xx20   H     0.34999   0.78519   0.68156   0.00000  Uiso   1.00
xx21   H     0.60689   0.46945   0.94078   0.00000  Uiso   1.00
xx22   C     0.83150   0.09295   0.17209   0.00000  Uiso   1.00
xx23   C     0.86620   0.05802   0.25863   0.00000  Uiso   1.00
xx24   C     0.69352   0.23044   0.71157   0.00000  Uiso   1.00
xx25   H     0.78904   0.07651   0.13684   0.00000  Uiso   1.00
xx26   H     0.84886   0.01495   0.28373   0.00000  Uiso   1.00
xx27   H     0.65001   0.21481   0.68156   0.00000  Uiso   1.00
xx28   H     0.39311   0.53055   0.94078   0.00000  Uiso   1.00
xx29   C     0.59295   0.33150   0.32791   0.00000  Uiso   1.00
xx30   C     0.55802   0.36620   0.24137   0.00000  Uiso   1.00
xx31   C     0.73044   0.19352   0.78843   0.00000  Uiso   1.00
xx32   H     0.57651   0.28904   0.36316   0.00000  Uiso   1.00
xx33   H     0.51495   0.34886   0.21627   0.00000  Uiso   1.00
xx34   H     0.71481   0.15001   0.81844   0.00000  Uiso   1.00
xx35   H     0.03055   0.89311   0.55922   0.00000  Uiso   1.00
xx36   C     0.40705   0.66850   0.32791   0.00000  Uiso   1.00
xx37   C     0.44198   0.63380   0.24137   0.00000  Uiso   1.00
xx38   C     0.26956   0.80648   0.78843   0.00000  Uiso   1.00
xx39   H     0.42349   0.71096   0.36316   0.00000  Uiso   1.00
xx40   H     0.48505   0.65114   0.21627   0.00000  Uiso   1.00
xx41   H     0.28519   0.84999   0.81844   0.00000  Uiso   1.00
xx42   H     0.96945   0.10689   0.55922   0.00000  Uiso   1.00
xx43   C     0.83150   0.90705   0.82791   0.00000  Uiso   1.00
xx44   C     0.86620   0.94198   0.74137   0.00000  Uiso   1.00
xx45   C     0.69352   0.76956   0.28843   0.00000  Uiso   1.00
xx46   H     0.78904   0.92349   0.86316   0.00000  Uiso   1.00
xx47   H     0.84886   0.98505   0.71627   0.00000  Uiso   1.00
xx48   H     0.65001   0.78519   0.31844   0.00000  Uiso   1.00
xx49   H     0.39311   0.46945   0.05922   0.00000  Uiso   1.00
xx50   C     0.16850   0.09295   0.82791   0.00000  Uiso   1.00
xx51   C     0.13380   0.05802   0.74137   0.00000  Uiso   1.00
xx52   C     0.30648   0.23044   0.28843   0.00000  Uiso   1.00
xx53   H     0.21096   0.07651   0.86316   0.00000  Uiso   1.00
xx54   H     0.15114   0.01495   0.71627   0.00000  Uiso   1.00
xx55   H     0.34999   0.21481   0.31844   0.00000  Uiso   1.00
xx56   H     0.60689   0.53055   0.05922   0.00000  Uiso   1.00
xx57   C     0.09295   0.16850   0.82791   0.00000  Uiso   1.00
xx58   C     0.05802   0.13380   0.74137   0.00000  Uiso   1.00
xx59   C     0.23044   0.30648   0.28843   0.00000  Uiso   1.00
xx60   H     0.07651   0.21096   0.86316   0.00000  Uiso   1.00
xx61   H     0.01495   0.15114   0.71627   0.00000  Uiso   1.00
xx62   H     0.21481   0.34999   0.31844   0.00000  Uiso   1.00
xx63   H     0.53055   0.60689   0.05922   0.00000  Uiso   1.00
xx64   C     0.90705   0.83150   0.82791   0.00000  Uiso   1.00
xx65   C     0.94198   0.86620   0.74137   0.00000  Uiso   1.00
xx66   C     0.76956   0.69352   0.28843   0.00000  Uiso   1.00
xx67   H     0.92349   0.78904   0.86316   0.00000  Uiso   1.00
xx68   H     0.98505   0.84886   0.71627   0.00000  Uiso   1.00
xx69   H     0.78519   0.65001   0.31844   0.00000  Uiso   1.00
xx70   H     0.46945   0.39311   0.05922   0.00000  Uiso   1.00
xx71   C     0.33150   0.59295   0.32791   0.00000  Uiso   1.00
xx72   C     0.36620   0.55802   0.24137   0.00000  Uiso   1.00
xx73   C     0.19352   0.73044   0.78843   0.00000  Uiso   1.00
xx74   H     0.28904   0.57651   0.36316   0.00000  Uiso   1.00
xx75   H     0.34886   0.51495   0.21627   0.00000  Uiso   1.00
xx76   H     0.15001   0.71481   0.81844   0.00000  Uiso   1.00
xx77   H     0.89311   0.03055   0.55922   0.00000  Uiso   1.00
xx78   C     0.66850   0.40705   0.32791   0.00000  Uiso   1.00
xx79   C     0.63380   0.44198   0.24137   0.00000  Uiso   1.00
xx80   C     0.80648   0.26956   0.78843   0.00000  Uiso   1.00
xx81   H     0.71096   0.42349   0.36316   0.00000  Uiso   1.00
xx82   H     0.65114   0.48505   0.21627   0.00000  Uiso   1.00
xx83   H     0.84999   0.28519   0.81844   0.00000  Uiso   1.00
xx84   H     0.10689   0.96945   0.55922   0.00000  Uiso   1.00
xx85   C     0.90705   0.16850   0.17209   0.00000  Uiso   1.00
xx86   C     0.94198   0.13380   0.25863   0.00000  Uiso   1.00
xx87   C     0.76956   0.30648   0.71157   0.00000  Uiso   1.00
xx88   H     0.92349   0.21096   0.13684   0.00000  Uiso   1.00
xx89   H     0.98505   0.15114   0.28373   0.00000  Uiso   1.00
xx90   H     0.78519   0.34999   0.68156   0.00000  Uiso   1.00
xx91   H     0.46945   0.60689   0.94078   0.00000  Uiso   1.00
xx92   C     0.09295   0.83150   0.17209   0.00000  Uiso   1.00
xx93   C     0.05802   0.86620   0.25863   0.00000  Uiso   1.00
xx94   C     0.23044   0.69352   0.71157   0.00000  Uiso   1.00
xx95   H     0.07651   0.78904   0.13684   0.00000  Uiso   1.00
xx96   H     0.01495   0.84886   0.28373   0.00000  Uiso   1.00
xx97   H     0.21481   0.65001   0.68156   0.00000  Uiso   1.00
xx98   H     0.53055   0.39311   0.94078   0.00000  Uiso   1.00
xx99   C     0.66850   0.59295   0.67209   0.00000  Uiso   1.00
xx100  C     0.63380   0.55802   0.75863   0.00000  Uiso   1.00
xx101  C     0.80648   0.73044   0.21157   0.00000  Uiso   1.00
xx102  H     0.71096   0.57651   0.63684   0.00000  Uiso   1.00
xx103  H     0.65114   0.51495   0.78373   0.00000  Uiso   1.00
xx104  H     0.84999   0.71481   0.18156   0.00000  Uiso   1.00
xx105  H     0.10689   0.03055   0.44078   0.00000  Uiso   1.00
xx106  C     0.33150   0.40705   0.67209   0.00000  Uiso   1.00
xx107  C     0.36620   0.44198   0.75863   0.00000  Uiso   1.00
xx108  C     0.19352   0.26956   0.21157   0.00000  Uiso   1.00
xx109  H     0.28904   0.42349   0.63684   0.00000  Uiso   1.00
xx110  H     0.34886   0.48505   0.78373   0.00000  Uiso   1.00
xx111  H     0.15001   0.28519   0.18156   0.00000  Uiso   1.00
xx112  H     0.89311   0.96945   0.44078   0.00000  Uiso   1.00
xx113  C     0.42158   0.42158   0.80827   0.00000  Uiso   1.00
xx114  N     0.31809   0.31809   0.54592   0.00000  Uiso   1.00
xx115  C     0.32240   0.32240   0.40792   0.00000  Uiso   1.00
xx116  H     0.35312   0.35312   0.36025   0.00000  Uiso   1.00
xx117  C     0.96033   0.96033   0.59631   0.00000  Uiso   1.00
xx118  C     0.64835   0.64835   0.62972   0.00000  Uiso   1.00
xx119  C     0.78703   0.78703   0.17343   0.00000  Uiso   1.00
xx120  C     0.57842   0.57842   0.80827   0.00000  Uiso   1.00
xx121  N     0.68191   0.68191   0.54592   0.00000  Uiso   1.00
xx122  C     0.67760   0.67760   0.40792   0.00000  Uiso   1.00
xx123  H     0.64688   0.64688   0.36025   0.00000  Uiso   1.00
xx124  C     0.03967   0.03967   0.59631   0.00000  Uiso   1.00
xx125  C     0.35165   0.35165   0.62972   0.00000  Uiso   1.00
xx126  C     0.21297   0.21297   0.17343   0.00000  Uiso   1.00
xx127  C     0.07842   0.92158   0.30827   0.00000  Uiso   1.00
xx128  N     0.18191   0.81809   0.04592   0.00000  Uiso   1.00
xx129  C     0.17760   0.82240   0.90792   0.00000  Uiso   1.00
xx130  H     0.14688   0.85312   0.86025   0.00000  Uiso   1.00
xx131  C     0.53967   0.46033   0.09631   0.00000  Uiso   1.00
xx132  C     0.85165   0.14835   0.12972   0.00000  Uiso   1.00
xx133  C     0.71297   0.28703   0.67343   0.00000  Uiso   1.00
xx134  C     0.92158   0.07842   0.30827   0.00000  Uiso   1.00
xx135  N     0.81809   0.18191   0.04592   0.00000  Uiso   1.00
xx136  C     0.82240   0.17760   0.90792   0.00000  Uiso   1.00
xx137  H     0.85312   0.14688   0.86025   0.00000  Uiso   1.00
xx138  C     0.46033   0.53967   0.09631   0.00000  Uiso   1.00
xx139  C     0.14835   0.85165   0.12972   0.00000  Uiso   1.00
xx140  C     0.28703   0.71297   0.67343   0.00000  Uiso   1.00
xx141  C     0.57842   0.42158   0.19173   0.00000  Uiso   1.00
xx142  N     0.68191   0.31809   0.45408   0.00000  Uiso   1.00
xx143  C     0.67760   0.32240   0.59208   0.00000  Uiso   1.00
xx144  H     0.64688   0.35312   0.63975   0.00000  Uiso   1.00
xx145  C     0.03967   0.96033   0.40369   0.00000  Uiso   1.00
xx146  C     0.35165   0.64835   0.37028   0.00000  Uiso   1.00
xx147  C     0.21297   0.78703   0.82657   0.00000  Uiso   1.00
xx148  C     0.42158   0.57842   0.19173   0.00000  Uiso   1.00
xx149  N     0.31809   0.68191   0.45408   0.00000  Uiso   1.00
xx150  C     0.32240   0.67760   0.59208   0.00000  Uiso   1.00
xx151  H     0.35312   0.64688   0.63975   0.00000  Uiso   1.00
xx152  C     0.96033   0.03967   0.40369   0.00000  Uiso   1.00
xx153  C     0.64835   0.35165   0.37028   0.00000  Uiso   1.00
xx154  C     0.78703   0.21297   0.82657   0.00000  Uiso   1.00
xx155  C     0.92158   0.92158   0.69173   0.00000  Uiso   1.00
xx156  N     0.81809   0.81809   0.95408   0.00000  Uiso   1.00
xx157  C     0.82240   0.82240   0.09208   0.00000  Uiso   1.00
xx158  H     0.85312   0.85312   0.13975   0.00000  Uiso   1.00
xx159  C     0.46033   0.46033   0.90369   0.00000  Uiso   1.00
xx160  C     0.14835   0.14835   0.87028   0.00000  Uiso   1.00
xx161  C     0.28703   0.28703   0.32657   0.00000  Uiso   1.00
xx162  C     0.07842   0.07842   0.69173   0.00000  Uiso   1.00
xx163  N     0.18191   0.18191   0.95408   0.00000  Uiso   1.00
xx164  C     0.17760   0.17760   0.09208   0.00000  Uiso   1.00
xx165  H     0.14688   0.14688   0.13975   0.00000  Uiso   1.00
xx166  C     0.53967   0.53967   0.90369   0.00000  Uiso   1.00
xx167  C     0.85165   0.85165   0.87028   0.00000  Uiso   1.00
xx168  C     0.71297   0.71297   0.32657   0.00000  Uiso   1.00
xx169  C     0.00000   0.92184   0.50000   0.00000  Uiso   1.00
xx170  C     0.00000   0.07816   0.50000   0.00000  Uiso   1.00
xx171  C     0.57816   0.50000   0.00000   0.00000  Uiso   1.00
xx172  C     0.42184   0.50000   0.00000   0.00000  Uiso   1.00
xx173  C     0.50000   0.57816   0.00000   0.00000  Uiso   1.00
xx174  C     0.50000   0.42184   0.00000   0.00000  Uiso   1.00
xx175  C     0.92184   0.00000   0.50000   0.00000  Uiso   1.00
xx176  C     0.07816   0.00000   0.50000   0.00000  Uiso   1.00
xx177  C     0.00000   0.00000   0.68651   0.00000  Uiso   1.00
xx178  C     0.50000   0.50000   0.18651   0.00000  Uiso   1.00
xx179  C     0.00000   0.00000   0.31349   0.00000  Uiso   1.00
xx180  C     0.50000   0.50000   0.81349   0.00000  Uiso   1.00
xx181  H     0.02811   0.97189   0.75437   0.00000  Uiso   1.00
xx182  H     0.97189   0.02811   0.75437   0.00000  Uiso   1.00
xx183  H     0.52811   0.52811   0.25437   0.00000  Uiso   1.00
xx184  H     0.47189   0.47189   0.25437   0.00000  Uiso   1.00
xx185  H     0.97189   0.97189   0.24563   0.00000  Uiso   1.00
xx186  H     0.02811   0.02811   0.24563   0.00000  Uiso   1.00
xx187  H     0.47189   0.52811   0.74563   0.00000  Uiso   1.00
xx188  H     0.52811   0.47189   0.74563   0.00000  Uiso   1.00
loop_
_geom_bond_atom_site_label_1
_geom_bond_atom_site_label_2
_geom_bond_distance
_geom_bond_site_symmetry_2
_ccdc_geom_bond_type
xx1    xx2     1.394   .     D
xx1    xx4     1.084   .     S
xx1    xx125   1.393   .     S
xx2    xx5     1.076   .     S
xx2    xx113   1.417   .     S
xx3    xx6     1.084   .     S
xx3    xx52    1.396   .     S
xx3    xx126   1.401   .     D
xx7    xx169   1.108   1_655 S
xx8    xx9     1.394   .     S
xx8    xx11    1.084   .     S
xx8    xx118   1.393   .     D
xx9    xx12    1.076   .     S
xx9    xx120   1.417   .     D
xx10   xx13    1.084   .     S
xx10   xx45    1.396   .     S
xx10   xx119   1.401   .     D
xx14   xx170   1.108   .     S
xx15   xx16    1.394   .     S
xx15   xx18    1.084   .     S
xx15   xx139   1.393   .     D
xx16   xx19    1.076   .     S
xx16   xx127   1.417   .     D
xx17   xx20    1.084   .     S
xx17   xx38    1.396   .     D
xx17   xx140   1.401   .     S
xx21   xx171   1.108   1_556 S
xx22   xx23    1.394   .     D
xx22   xx25    1.084   .     S
xx22   xx132   1.393   .     S
xx23   xx26    1.076   .     S
xx23   xx134   1.417   .     S
xx24   xx27    1.084   .     S
xx24   xx31    1.396   .     D
xx24   xx133   1.401   .     S
xx28   xx172   1.108   1_556 S
xx29   xx30    1.394   .     S
xx29   xx32    1.084   .     S
xx29   xx153   1.393   .     D
xx30   xx33    1.076   .     S
xx30   xx141   1.417   .     D
xx31   xx34    1.084   .     S
xx31   xx154   1.401   .     S
xx35   xx169   1.108   .     S
xx36   xx37    1.394   .     S
xx36   xx39    1.084   .     S
xx36   xx146   1.393   .     D
xx37   xx40    1.076   .     S
xx37   xx148   1.417   .     D
xx38   xx41    1.084   .     S
xx38   xx147   1.401   .     S
xx42   xx170   1.108   1_655 S
xx43   xx44    1.394   .     D
xx43   xx46    1.084   .     S
xx43   xx167   1.393   .     S
xx44   xx47    1.076   .     S
xx44   xx155   1.417   .     S
xx45   xx48    1.084   .     S
xx45   xx168   1.401   .     D
xx49   xx172   1.108   .     S
xx50   xx51    1.394   .     S
xx50   xx53    1.084   .     S
xx50   xx160   1.393   .     D
xx51   xx54    1.076   .     S
xx51   xx162   1.417   .     D
xx52   xx55    1.084   .     S
xx52   xx161   1.401   .     D
xx56   xx171   1.108   .     S
xx57   xx58    1.394   .     D
xx57   xx60    1.084   .     S
xx57   xx160   1.393   .     S
xx58   xx61    1.076   .     S
xx58   xx162   1.417   .     S
xx59   xx62    1.084   .     S
xx59   xx108   1.396   .     D
xx59   xx161   1.401   .     S
xx63   xx173   1.108   .     S
xx64   xx65    1.394   .     S
xx64   xx67    1.084   .     S
xx64   xx167   1.393   .     D
xx65   xx68    1.076   .     S
xx65   xx155   1.417   .     D
xx66   xx69    1.084   .     S
xx66   xx101   1.396   .     D
xx66   xx168   1.401   .     S
xx70   xx174   1.108   .     S
xx71   xx72    1.394   .     D
xx71   xx74    1.084   .     S
xx71   xx146   1.393   .     S
xx72   xx75    1.076   .     S
xx72   xx148   1.417   .     S
xx73   xx76    1.084   .     S
xx73   xx94    1.396   .     S
xx73   xx147   1.401   .     D
xx77   xx175   1.108   .     S
xx78   xx79    1.394   .     D
xx78   xx81    1.084   .     S
xx78   xx153   1.393   .     S
xx79   xx82    1.076   .     S
xx79   xx141   1.417   .     S
xx80   xx83    1.084   .     S
xx80   xx87    1.396   .     S
xx80   xx154   1.401   .     D
xx84   xx176   1.108   1_565 S
xx85   xx86    1.394   .     S
xx85   xx88    1.084   .     S
xx85   xx132   1.393   .     D
xx86   xx89    1.076   .     S
xx86   xx134   1.417   .     D
xx87   xx90    1.084   .     S
xx87   xx133   1.401   .     D
xx91   xx173   1.108   1_556 S
xx92   xx93    1.394   .     D
xx92   xx95    1.084   .     S
xx92   xx139   1.393   .     S
xx93   xx96    1.076   .     S
xx93   xx127   1.417   .     S
xx94   xx97    1.084   .     S
xx94   xx140   1.401   .     D
xx98   xx174   1.108   1_556 S
xx99   xx100   1.394   .     D
xx99   xx102   1.084   .     S
xx99   xx118   1.393   .     S
xx100  xx103   1.076   .     S
xx100  xx120   1.417   .     S
xx101  xx104   1.084   .     S
xx101  xx119   1.401   .     S
xx105  xx176   1.108   .     S
xx106  xx107   1.394   .     S
xx106  xx109   1.084   .     S
xx106  xx125   1.393   .     D
xx107  xx110   1.076   .     S
xx107  xx113   1.417   .     D
xx108  xx111   1.084   .     S
xx108  xx126   1.401   .     S
xx112  xx175   1.108   1_565 S
xx113  xx159   1.546   .     S
xx114  xx115   1.348   .     D
xx114  xx125   1.346   .     S
xx115  xx116   1.085   .     S
xx115  xx161   1.379   .     S
xx117  xx155   1.546   .     S
xx117  xx169   1.560   1_655 S
xx117  xx175   1.560   1_565 S
xx117  xx177   1.541   1_665 S
xx118  xx121   1.346   .     S
xx119  xx157   1.379   .     S
xx120  xx166   1.546   .     S
xx121  xx122   1.348   .     D
xx122  xx123   1.085   .     S
xx122  xx168   1.379   .     S
xx124  xx162   1.546   .     S
xx124  xx170   1.560   .     S
xx124  xx176   1.560   .     S
xx124  xx177   1.541   .     S
xx126  xx164   1.379   .     S
xx127  xx145   1.546   .     S
xx128  xx129   1.348   1_554 D
xx128  xx139   1.346   .     S
xx129  xx128   1.348   1_556 D
xx129  xx130   1.085   .     S
xx129  xx147   1.379   .     S
xx131  xx141   1.546   .     S
xx131  xx171   1.560   .     S
xx131  xx174   1.560   .     S
xx131  xx178   1.541   .     S
xx132  xx135   1.346   .     S
xx133  xx143   1.379   .     S
xx134  xx152   1.546   .     S
xx135  xx136   1.348   1_554 D
xx136  xx135   1.348   1_556 D
xx136  xx137   1.085   .     S
xx136  xx154   1.379   .     S
xx138  xx148   1.546   .     S
xx138  xx172   1.560   .     S
xx138  xx173   1.560   .     S
xx138  xx178   1.541   .     S
xx140  xx150   1.379   .     S
xx142  xx143   1.348   .     D
xx142  xx153   1.346   .     S
xx143  xx144   1.085   .     S
xx145  xx169   1.560   .     S
xx145  xx176   1.560   1_565 S
xx145  xx179   1.541   1_565 S
xx146  xx149   1.346   .     S
xx149  xx150   1.348   .     D
xx150  xx151   1.085   .     S
xx152  xx170   1.560   1_655 S
xx152  xx175   1.560   .     S
xx152  xx179   1.541   1_655 S
xx156  xx157   1.348   1_556 D
xx156  xx167   1.346   .     S
xx157  xx156   1.348   1_554 D
xx157  xx158   1.085   .     S
xx159  xx172   1.560   1_556 S
xx159  xx174   1.560   1_556 S
xx159  xx180   1.541   .     S
xx160  xx163   1.346   .     S
xx163  xx164   1.348   1_556 D
xx164  xx163   1.348   1_554 D
xx164  xx165   1.085   .     S
xx166  xx171   1.560   1_556 S
xx166  xx173   1.560   1_556 S
xx166  xx180   1.541   .     S
xx169  xx7     1.108   1_455 S
xx169  xx117   1.560   1_455 S
xx170  xx152   1.560   1_455 S
xx170  xx42    1.108   1_455 S
xx171  xx166   1.560   1_554 S
xx171  xx21    1.108   1_554 S
xx172  xx28    1.108   1_554 S
xx172  xx159   1.560   1_554 S
xx173  xx91    1.108   1_554 S
xx173  xx166   1.560   1_554 S
xx174  xx98    1.108   1_554 S
xx174  xx159   1.560   1_554 S
xx175  xx112   1.108   1_545 S
xx175  xx117   1.560   1_545 S
xx176  xx145   1.560   1_545 S
xx176  xx84    1.108   1_545 S
xx177  xx117   1.541   1_445 S
xx177  xx181   1.114   1_545 S
xx177  xx182   1.114   1_455 S
xx178  xx183   1.114   .     S
xx178  xx184   1.114   .     S
xx179  xx152   1.541   1_455 S
xx179  xx145   1.541   1_545 S
xx179  xx185   1.114   1_445 S
xx179  xx186   1.114   .     S
xx180  xx187   1.114   .     S
xx180  xx188   1.114   .     S
xx181  xx177   1.114   1_565 S
xx182  xx177   1.114   1_655 S
xx185  xx179   1.114   1_665 S
