data_144
_audit_creation_date              2023-09-08
_audit_creation_method            'Materials Studio'
_symmetry_space_group_name_H-M    'P1'
_symmetry_Int_Tables_number       1
_symmetry_cell_setting            triclinic
loop_
_symmetry_equiv_pos_as_xyz
  x,y,z
_cell_length_a                    32.0100
_cell_length_b                    32.0100
_cell_length_c                    7.6500
_cell_angle_alpha                 90.0000
_cell_angle_beta                  90.0000
_cell_angle_gamma                 90.0000
loop_
_atom_site_label
_atom_site_type_symbol
_atom_site_fract_x
_atom_site_fract_y
_atom_site_fract_z
_atom_site_U_iso_or_equiv
_atom_site_adp_type
_atom_site_occupancy
xx1    C     0.03792   0.87254   0.59434   0.00000  Uiso   1.00
xx2    C     0.03802   0.90708   0.70284   0.00000  Uiso   1.00
xx3    C     0.53794   0.22903   0.60248   0.00000  Uiso   1.00
xx4    H     0.06723   0.85945   0.54935   0.00000  Uiso   1.00
xx5    H     0.06782   0.92062   0.73851   0.00000  Uiso   1.00
xx6    H     0.56743   0.21335   0.57867   0.00000  Uiso   1.00
xx7    C     0.53792   0.37254   0.09434   0.00000  Uiso   1.00
xx8    C     0.53802   0.40708   0.20284   0.00000  Uiso   1.00
xx9    C     0.03794   0.72903   0.10248   0.00000  Uiso   1.00
xx10   H     0.56723   0.35945   0.04935   0.00000  Uiso   1.00
xx11   H     0.56782   0.42062   0.23851   0.00000  Uiso   1.00
xx12   H     0.06743   0.71335   0.07867   0.00000  Uiso   1.00
xx13   C     0.46208   0.62746   0.09434   0.00000  Uiso   1.00
xx14   C     0.46198   0.59292   0.20284   0.00000  Uiso   1.00
xx15   C     0.96206   0.27097   0.10248   0.00000  Uiso   1.00
xx16   H     0.43277   0.64055   0.04935   0.00000  Uiso   1.00
xx17   H     0.43218   0.57938   0.23851   0.00000  Uiso   1.00
xx18   H     0.93257   0.28665   0.07867   0.00000  Uiso   1.00
xx19   C     0.96208   0.12746   0.59434   0.00000  Uiso   1.00
xx20   C     0.96198   0.09292   0.70284   0.00000  Uiso   1.00
xx21   C     0.46206   0.77097   0.60248   0.00000  Uiso   1.00
xx22   H     0.93277   0.14055   0.54935   0.00000  Uiso   1.00
xx23   H     0.93218   0.07938   0.73851   0.00000  Uiso   1.00
xx24   H     0.43257   0.78665   0.57867   0.00000  Uiso   1.00
xx25   C     0.12746   0.53792   0.84434   0.00000  Uiso   1.00
xx26   C     0.09292   0.53802   0.95284   0.00000  Uiso   1.00
xx27   C     0.77097   0.03794   0.85248   0.00000  Uiso   1.00
xx28   H     0.14055   0.56723   0.79935   0.00000  Uiso   1.00
xx29   H     0.07938   0.56782   0.98851   0.00000  Uiso   1.00
xx30   H     0.78665   0.06743   0.82867   0.00000  Uiso   1.00
xx31   C     0.62746   0.03792   0.34434   0.00000  Uiso   1.00
xx32   C     0.59292   0.03802   0.45284   0.00000  Uiso   1.00
xx33   C     0.27097   0.53794   0.35248   0.00000  Uiso   1.00
xx34   H     0.64055   0.06723   0.29935   0.00000  Uiso   1.00
xx35   H     0.57938   0.06782   0.48851   0.00000  Uiso   1.00
xx36   H     0.28665   0.56743   0.32867   0.00000  Uiso   1.00
xx37   C     0.37254   0.96208   0.34434   0.00000  Uiso   1.00
xx38   C     0.40708   0.96198   0.45284   0.00000  Uiso   1.00
xx39   C     0.72903   0.46206   0.35248   0.00000  Uiso   1.00
xx40   H     0.35945   0.93277   0.29935   0.00000  Uiso   1.00
xx41   H     0.42062   0.93218   0.48851   0.00000  Uiso   1.00
xx42   H     0.71335   0.43257   0.32867   0.00000  Uiso   1.00
xx43   C     0.87254   0.46208   0.84434   0.00000  Uiso   1.00
xx44   C     0.90708   0.46198   0.95284   0.00000  Uiso   1.00
xx45   C     0.22903   0.96206   0.85248   0.00000  Uiso   1.00
xx46   H     0.85945   0.43277   0.79935   0.00000  Uiso   1.00
xx47   H     0.92062   0.43218   0.98851   0.00000  Uiso   1.00
xx48   H     0.21335   0.93257   0.82867   0.00000  Uiso   1.00
xx49   C     0.46208   0.87254   0.15566   0.00000  Uiso   1.00
xx50   C     0.46198   0.90708   0.04716   0.00000  Uiso   1.00
xx51   C     0.96206   0.22903   0.14752   0.00000  Uiso   1.00
xx52   H     0.43277   0.85945   0.20065   0.00000  Uiso   1.00
xx53   H     0.43218   0.92062   0.01149   0.00000  Uiso   1.00
xx54   H     0.93257   0.21335   0.17133   0.00000  Uiso   1.00
xx55   C     0.96208   0.37254   0.65566   0.00000  Uiso   1.00
xx56   C     0.96198   0.40708   0.54716   0.00000  Uiso   1.00
xx57   C     0.46206   0.72903   0.64752   0.00000  Uiso   1.00
xx58   H     0.93277   0.35945   0.70065   0.00000  Uiso   1.00
xx59   H     0.93218   0.42062   0.51149   0.00000  Uiso   1.00
xx60   H     0.43257   0.71335   0.67133   0.00000  Uiso   1.00
xx61   C     0.03792   0.62746   0.65566   0.00000  Uiso   1.00
xx62   C     0.03802   0.59292   0.54716   0.00000  Uiso   1.00
xx63   C     0.53794   0.27097   0.64752   0.00000  Uiso   1.00
xx64   H     0.06723   0.64055   0.70065   0.00000  Uiso   1.00
xx65   H     0.06782   0.57938   0.51149   0.00000  Uiso   1.00
xx66   H     0.56743   0.28665   0.67133   0.00000  Uiso   1.00
xx67   C     0.53792   0.12746   0.15566   0.00000  Uiso   1.00
xx68   C     0.53802   0.09292   0.04716   0.00000  Uiso   1.00
xx69   C     0.03794   0.77097   0.14752   0.00000  Uiso   1.00
xx70   H     0.56723   0.14055   0.20065   0.00000  Uiso   1.00
xx71   H     0.56782   0.07938   0.01149   0.00000  Uiso   1.00
xx72   H     0.06743   0.78665   0.17133   0.00000  Uiso   1.00
xx73   C     0.37254   0.53792   0.90566   0.00000  Uiso   1.00
xx74   C     0.40708   0.53802   0.79716   0.00000  Uiso   1.00
xx75   C     0.72903   0.03794   0.89752   0.00000  Uiso   1.00
xx76   H     0.35945   0.56723   0.95065   0.00000  Uiso   1.00
xx77   H     0.42062   0.56782   0.76149   0.00000  Uiso   1.00
xx78   H     0.71335   0.06743   0.92133   0.00000  Uiso   1.00
xx79   C     0.87254   0.03792   0.40566   0.00000  Uiso   1.00
xx80   C     0.90708   0.03802   0.29716   0.00000  Uiso   1.00
xx81   C     0.22903   0.53794   0.39752   0.00000  Uiso   1.00
xx82   H     0.85945   0.06723   0.45065   0.00000  Uiso   1.00
xx83   H     0.92062   0.06782   0.26149   0.00000  Uiso   1.00
xx84   H     0.21335   0.56743   0.42133   0.00000  Uiso   1.00
xx85   C     0.12746   0.96208   0.40566   0.00000  Uiso   1.00
xx86   C     0.09292   0.96198   0.29716   0.00000  Uiso   1.00
xx87   C     0.77097   0.46206   0.39752   0.00000  Uiso   1.00
xx88   H     0.14055   0.93277   0.45065   0.00000  Uiso   1.00
xx89   H     0.07938   0.93218   0.26149   0.00000  Uiso   1.00
xx90   H     0.78665   0.43257   0.42133   0.00000  Uiso   1.00
xx91   C     0.62746   0.46208   0.90566   0.00000  Uiso   1.00
xx92   C     0.59292   0.46198   0.79716   0.00000  Uiso   1.00
xx93   C     0.27097   0.96206   0.89752   0.00000  Uiso   1.00
xx94   H     0.64055   0.43277   0.95065   0.00000  Uiso   1.00
xx95   H     0.57938   0.43218   0.76149   0.00000  Uiso   1.00
xx96   H     0.28665   0.93257   0.92133   0.00000  Uiso   1.00
xx97   C     0.96208   0.62746   0.65566   0.00000  Uiso   1.00
xx98   C     0.96198   0.59292   0.54716   0.00000  Uiso   1.00
xx99   C     0.46206   0.27097   0.64752   0.00000  Uiso   1.00
xx100  H     0.93277   0.64055   0.70065   0.00000  Uiso   1.00
xx101  H     0.93218   0.57938   0.51149   0.00000  Uiso   1.00
xx102  H     0.43257   0.28665   0.67133   0.00000  Uiso   1.00
xx103  C     0.46208   0.12746   0.15566   0.00000  Uiso   1.00
xx104  C     0.46198   0.09292   0.04716   0.00000  Uiso   1.00
xx105  C     0.96206   0.77097   0.14752   0.00000  Uiso   1.00
xx106  H     0.43277   0.14055   0.20065   0.00000  Uiso   1.00
xx107  H     0.43218   0.07938   0.01149   0.00000  Uiso   1.00
xx108  H     0.93257   0.78665   0.17133   0.00000  Uiso   1.00
xx109  C     0.53792   0.87254   0.15566   0.00000  Uiso   1.00
xx110  C     0.53802   0.90708   0.04716   0.00000  Uiso   1.00
xx111  C     0.03794   0.22903   0.14752   0.00000  Uiso   1.00
xx112  H     0.56723   0.85945   0.20065   0.00000  Uiso   1.00
xx113  H     0.56782   0.92062   0.01149   0.00000  Uiso   1.00
xx114  H     0.06743   0.21335   0.17133   0.00000  Uiso   1.00
xx115  C     0.03792   0.37254   0.65566   0.00000  Uiso   1.00
xx116  C     0.03802   0.40708   0.54716   0.00000  Uiso   1.00
xx117  C     0.53794   0.72903   0.64752   0.00000  Uiso   1.00
xx118  H     0.06723   0.35945   0.70065   0.00000  Uiso   1.00
xx119  H     0.06782   0.42062   0.51149   0.00000  Uiso   1.00
xx120  H     0.56743   0.71335   0.67133   0.00000  Uiso   1.00
xx121  C     0.87254   0.96208   0.40566   0.00000  Uiso   1.00
xx122  C     0.90708   0.96198   0.29716   0.00000  Uiso   1.00
xx123  C     0.22903   0.46206   0.39752   0.00000  Uiso   1.00
xx124  H     0.85945   0.93277   0.45065   0.00000  Uiso   1.00
xx125  H     0.92062   0.93218   0.26149   0.00000  Uiso   1.00
xx126  H     0.21335   0.43257   0.42133   0.00000  Uiso   1.00
xx127  C     0.37254   0.46208   0.90566   0.00000  Uiso   1.00
xx128  C     0.40708   0.46198   0.79716   0.00000  Uiso   1.00
xx129  C     0.72903   0.96206   0.89752   0.00000  Uiso   1.00
xx130  H     0.35945   0.43277   0.95065   0.00000  Uiso   1.00
xx131  H     0.42062   0.43218   0.76149   0.00000  Uiso   1.00
xx132  H     0.71335   0.93257   0.92133   0.00000  Uiso   1.00
xx133  C     0.62746   0.53792   0.90566   0.00000  Uiso   1.00
xx134  C     0.59292   0.53802   0.79716   0.00000  Uiso   1.00
xx135  C     0.27097   0.03794   0.89752   0.00000  Uiso   1.00
xx136  H     0.64055   0.56723   0.95065   0.00000  Uiso   1.00
xx137  H     0.57938   0.56782   0.76149   0.00000  Uiso   1.00
xx138  H     0.28665   0.06743   0.92133   0.00000  Uiso   1.00
xx139  C     0.12746   0.03792   0.40566   0.00000  Uiso   1.00
xx140  C     0.09292   0.03802   0.29716   0.00000  Uiso   1.00
xx141  C     0.77097   0.53794   0.39752   0.00000  Uiso   1.00
xx142  H     0.14055   0.06723   0.45065   0.00000  Uiso   1.00
xx143  H     0.07938   0.06782   0.26149   0.00000  Uiso   1.00
xx144  H     0.78665   0.56743   0.42133   0.00000  Uiso   1.00
xx145  C     0.53792   0.62746   0.09434   0.00000  Uiso   1.00
xx146  C     0.53802   0.59292   0.20284   0.00000  Uiso   1.00
xx147  C     0.03794   0.27097   0.10248   0.00000  Uiso   1.00
xx148  H     0.56723   0.64055   0.04935   0.00000  Uiso   1.00
xx149  H     0.56782   0.57938   0.23851   0.00000  Uiso   1.00
xx150  H     0.06743   0.28665   0.07867   0.00000  Uiso   1.00
xx151  C     0.03792   0.12746   0.59434   0.00000  Uiso   1.00
xx152  C     0.03802   0.09292   0.70284   0.00000  Uiso   1.00
xx153  C     0.53794   0.77097   0.60248   0.00000  Uiso   1.00
xx154  H     0.06723   0.14055   0.54935   0.00000  Uiso   1.00
xx155  H     0.06782   0.07938   0.73851   0.00000  Uiso   1.00
xx156  H     0.56743   0.78665   0.57867   0.00000  Uiso   1.00
xx157  C     0.96208   0.87254   0.59434   0.00000  Uiso   1.00
xx158  C     0.96198   0.90708   0.70284   0.00000  Uiso   1.00
xx159  C     0.46206   0.22903   0.60248   0.00000  Uiso   1.00
xx160  H     0.93277   0.85945   0.54935   0.00000  Uiso   1.00
xx161  H     0.93218   0.92062   0.73851   0.00000  Uiso   1.00
xx162  H     0.43257   0.21335   0.57867   0.00000  Uiso   1.00
xx163  C     0.46208   0.37254   0.09434   0.00000  Uiso   1.00
xx164  C     0.46198   0.40708   0.20284   0.00000  Uiso   1.00
xx165  C     0.96206   0.72903   0.10248   0.00000  Uiso   1.00
xx166  H     0.43277   0.35945   0.04935   0.00000  Uiso   1.00
xx167  H     0.43218   0.42062   0.23851   0.00000  Uiso   1.00
xx168  H     0.93257   0.71335   0.07867   0.00000  Uiso   1.00
xx169  C     0.62746   0.96208   0.34434   0.00000  Uiso   1.00
xx170  C     0.59292   0.96198   0.45284   0.00000  Uiso   1.00
xx171  C     0.27097   0.46206   0.35248   0.00000  Uiso   1.00
xx172  H     0.64055   0.93277   0.29935   0.00000  Uiso   1.00
xx173  H     0.57938   0.93218   0.48851   0.00000  Uiso   1.00
xx174  H     0.28665   0.43257   0.32867   0.00000  Uiso   1.00
xx175  C     0.12746   0.46208   0.84434   0.00000  Uiso   1.00
xx176  C     0.09292   0.46198   0.95284   0.00000  Uiso   1.00
xx177  C     0.77097   0.96206   0.85248   0.00000  Uiso   1.00
xx178  H     0.14055   0.43277   0.79935   0.00000  Uiso   1.00
xx179  H     0.07938   0.43218   0.98851   0.00000  Uiso   1.00
xx180  H     0.78665   0.93257   0.82867   0.00000  Uiso   1.00
xx181  C     0.87254   0.53792   0.84434   0.00000  Uiso   1.00
xx182  C     0.90708   0.53802   0.95284   0.00000  Uiso   1.00
xx183  C     0.22903   0.03794   0.85248   0.00000  Uiso   1.00
xx184  H     0.85945   0.56723   0.79935   0.00000  Uiso   1.00
xx185  H     0.92062   0.56782   0.98851   0.00000  Uiso   1.00
xx186  H     0.21335   0.06743   0.82867   0.00000  Uiso   1.00
xx187  C     0.37254   0.03792   0.34434   0.00000  Uiso   1.00
xx188  C     0.40708   0.03802   0.45284   0.00000  Uiso   1.00
xx189  C     0.72903   0.53794   0.35248   0.00000  Uiso   1.00
xx190  H     0.35945   0.06723   0.29935   0.00000  Uiso   1.00
xx191  H     0.42062   0.06782   0.48851   0.00000  Uiso   1.00
xx192  H     0.71335   0.56743   0.32867   0.00000  Uiso   1.00
xx193  C     0.00000   0.92379   0.76395   0.00000  Uiso   1.00
xx194  N     0.00000   0.82223   0.43743   0.00000  Uiso   1.00
xx195  C     0.00000   0.82769   0.26403   0.00000  Uiso   1.00
xx196  C     0.00000   0.14480   0.54260   0.00000  Uiso   1.00
xx197  C     0.00000   0.46102   0.36818   0.00000  Uiso   1.00
xx198  C     0.00000   0.29210   0.08231   0.00000  Uiso   1.00
xx199  C     0.50000   0.42379   0.26395   0.00000  Uiso   1.00
xx200  N     0.50000   0.32223   0.93743   0.00000  Uiso   1.00
xx201  C     0.50000   0.32769   0.76403   0.00000  Uiso   1.00
xx202  C     0.50000   0.64480   0.04260   0.00000  Uiso   1.00
xx203  C     0.50000   0.96102   0.86818   0.00000  Uiso   1.00
xx204  C     0.50000   0.79210   0.58231   0.00000  Uiso   1.00
xx205  C     0.50000   0.57621   0.26395   0.00000  Uiso   1.00
xx206  N     0.50000   0.67777   0.93743   0.00000  Uiso   1.00
xx207  C     0.50000   0.67231   0.76403   0.00000  Uiso   1.00
xx208  C     0.50000   0.35520   0.04260   0.00000  Uiso   1.00
xx209  C     0.50000   0.03898   0.86818   0.00000  Uiso   1.00
xx210  C     0.50000   0.20790   0.58231   0.00000  Uiso   1.00
xx211  C     0.00000   0.07621   0.76395   0.00000  Uiso   1.00
xx212  N     0.00000   0.17777   0.43743   0.00000  Uiso   1.00
xx213  C     0.00000   0.17231   0.26403   0.00000  Uiso   1.00
xx214  C     0.00000   0.85520   0.54260   0.00000  Uiso   1.00
xx215  C     0.00000   0.53898   0.36818   0.00000  Uiso   1.00
xx216  C     0.00000   0.70790   0.08231   0.00000  Uiso   1.00
xx217  C     0.07621   0.50000   0.01395   0.00000  Uiso   1.00
xx218  N     0.17777   0.50000   0.68743   0.00000  Uiso   1.00
xx219  C     0.17231   0.50000   0.51403   0.00000  Uiso   1.00
xx220  C     0.85520   0.50000   0.79260   0.00000  Uiso   1.00
xx221  C     0.53898   0.50000   0.61818   0.00000  Uiso   1.00
xx222  C     0.70790   0.50000   0.33231   0.00000  Uiso   1.00
xx223  C     0.42379   0.00000   0.51395   0.00000  Uiso   1.00
xx224  N     0.32223   0.00000   0.18743   0.00000  Uiso   1.00
xx225  C     0.32769   0.00000   0.01403   0.00000  Uiso   1.00
xx226  C     0.64480   0.00000   0.29260   0.00000  Uiso   1.00
xx227  C     0.96102   0.00000   0.11818   0.00000  Uiso   1.00
xx228  C     0.79210   0.00000   0.83231   0.00000  Uiso   1.00
xx229  C     0.50000   0.92379   0.98605   0.00000  Uiso   1.00
xx230  N     0.50000   0.82223   0.31257   0.00000  Uiso   1.00
xx231  C     0.50000   0.82769   0.48597   0.00000  Uiso   1.00
xx232  C     0.50000   0.14480   0.20740   0.00000  Uiso   1.00
xx233  C     0.50000   0.46102   0.38182   0.00000  Uiso   1.00
xx234  C     0.50000   0.29210   0.66769   0.00000  Uiso   1.00
xx235  C     0.00000   0.42379   0.48605   0.00000  Uiso   1.00
xx236  N     0.00000   0.32223   0.81257   0.00000  Uiso   1.00
xx237  C     0.00000   0.32769   0.98597   0.00000  Uiso   1.00
xx238  C     0.00000   0.64480   0.70740   0.00000  Uiso   1.00
xx239  C     0.00000   0.96102   0.88182   0.00000  Uiso   1.00
xx240  C     0.00000   0.79210   0.16769   0.00000  Uiso   1.00
xx241  C     0.00000   0.57621   0.48605   0.00000  Uiso   1.00
xx242  N     0.00000   0.67777   0.81257   0.00000  Uiso   1.00
xx243  C     0.00000   0.67231   0.98597   0.00000  Uiso   1.00
xx244  C     0.00000   0.35520   0.70740   0.00000  Uiso   1.00
xx245  C     0.00000   0.03898   0.88182   0.00000  Uiso   1.00
xx246  C     0.00000   0.20790   0.16769   0.00000  Uiso   1.00
xx247  C     0.50000   0.07621   0.98605   0.00000  Uiso   1.00
xx248  N     0.50000   0.17777   0.31257   0.00000  Uiso   1.00
xx249  C     0.50000   0.17231   0.48597   0.00000  Uiso   1.00
xx250  C     0.50000   0.85520   0.20740   0.00000  Uiso   1.00
xx251  C     0.50000   0.53898   0.38182   0.00000  Uiso   1.00
xx252  C     0.50000   0.70790   0.66769   0.00000  Uiso   1.00
xx253  C     0.42379   0.50000   0.73605   0.00000  Uiso   1.00
xx254  N     0.32223   0.50000   0.06257   0.00000  Uiso   1.00
xx255  C     0.32769   0.50000   0.23597   0.00000  Uiso   1.00
xx256  C     0.64480   0.50000   0.95740   0.00000  Uiso   1.00
xx257  C     0.96102   0.50000   0.13182   0.00000  Uiso   1.00
xx258  C     0.79210   0.50000   0.41769   0.00000  Uiso   1.00
xx259  C     0.07621   0.00000   0.23605   0.00000  Uiso   1.00
xx260  N     0.17777   0.00000   0.56257   0.00000  Uiso   1.00
xx261  C     0.17231   0.00000   0.73597   0.00000  Uiso   1.00
xx262  C     0.85520   0.00000   0.45740   0.00000  Uiso   1.00
xx263  C     0.53898   0.00000   0.63182   0.00000  Uiso   1.00
xx264  C     0.70790   0.00000   0.91769   0.00000  Uiso   1.00
xx265  C     0.92379   0.00000   0.23605   0.00000  Uiso   1.00
xx266  N     0.82223   0.00000   0.56257   0.00000  Uiso   1.00
xx267  C     0.82769   0.00000   0.73597   0.00000  Uiso   1.00
xx268  C     0.14480   0.00000   0.45740   0.00000  Uiso   1.00
xx269  C     0.46102   0.00000   0.63182   0.00000  Uiso   1.00
xx270  C     0.29210   0.00000   0.91769   0.00000  Uiso   1.00
xx271  C     0.57621   0.50000   0.73605   0.00000  Uiso   1.00
xx272  N     0.67777   0.50000   0.06257   0.00000  Uiso   1.00
xx273  C     0.67231   0.50000   0.23597   0.00000  Uiso   1.00
xx274  C     0.35520   0.50000   0.95740   0.00000  Uiso   1.00
xx275  C     0.03898   0.50000   0.13182   0.00000  Uiso   1.00
xx276  C     0.20790   0.50000   0.41769   0.00000  Uiso   1.00
xx277  C     0.57621   0.00000   0.51395   0.00000  Uiso   1.00
xx278  N     0.67777   0.00000   0.18743   0.00000  Uiso   1.00
xx279  C     0.67231   0.00000   0.01403   0.00000  Uiso   1.00
xx280  C     0.35520   0.00000   0.29260   0.00000  Uiso   1.00
xx281  C     0.03898   0.00000   0.11818   0.00000  Uiso   1.00
xx282  C     0.20790   0.00000   0.83231   0.00000  Uiso   1.00
xx283  C     0.92379   0.50000   0.01395   0.00000  Uiso   1.00
xx284  N     0.82223   0.50000   0.68743   0.00000  Uiso   1.00
xx285  C     0.82769   0.50000   0.51403   0.00000  Uiso   1.00
xx286  C     0.14480   0.50000   0.79260   0.00000  Uiso   1.00
xx287  C     0.46102   0.50000   0.61818   0.00000  Uiso   1.00
xx288  C     0.29210   0.50000   0.33231   0.00000  Uiso   1.00
xx289  C     0.53870   0.96130   0.75000   0.00000  Uiso   1.00
xx290  C     0.96130   0.53870   0.25000   0.00000  Uiso   1.00
xx291  C     0.03870   0.03870   0.00000   0.00000  Uiso   1.00
xx292  C     0.46130   0.46130   0.50000   0.00000  Uiso   1.00
xx293  C     0.96130   0.96130   0.00000   0.00000  Uiso   1.00
xx294  C     0.53870   0.53870   0.50000   0.00000  Uiso   1.00
xx295  C     0.46130   0.03870   0.75000   0.00000  Uiso   1.00
xx296  C     0.03870   0.46130   0.25000   0.00000  Uiso   1.00
xx297  C     0.46130   0.53870   0.50000   0.00000  Uiso   1.00
xx298  C     0.03870   0.96130   0.00000   0.00000  Uiso   1.00
xx299  C     0.96130   0.46130   0.25000   0.00000  Uiso   1.00
xx300  C     0.53870   0.03870   0.75000   0.00000  Uiso   1.00
xx301  C     0.03870   0.53870   0.25000   0.00000  Uiso   1.00
xx302  C     0.46130   0.96130   0.75000   0.00000  Uiso   1.00
xx303  C     0.53870   0.46130   0.50000   0.00000  Uiso   1.00
xx304  C     0.96130   0.03870   0.00000   0.00000  Uiso   1.00
xx305  C     0.00000   0.50000   0.48270   0.00000  Uiso   1.00
xx306  C     0.50000   0.00000   0.98270   0.00000  Uiso   1.00
xx307  C     0.50000   0.50000   0.73270   0.00000  Uiso   1.00
xx308  C     0.00000   0.00000   0.23270   0.00000  Uiso   1.00
xx309  C     0.50000   0.50000   0.26730   0.00000  Uiso   1.00
xx310  C     0.00000   0.00000   0.76730   0.00000  Uiso   1.00
xx311  C     0.00000   0.50000   0.01730   0.00000  Uiso   1.00
xx312  C     0.50000   0.00000   0.51730   0.00000  Uiso   1.00
loop_
_geom_bond_atom_site_label_1
_geom_bond_atom_site_label_2
_geom_bond_distance
_geom_bond_site_symmetry_2
_ccdc_geom_bond_type
xx1    xx2     1.383   .     S
xx1    xx4     1.084   .     S
xx1    xx214   1.392   .     D
xx2    xx5     1.083   .     S
xx2    xx193   1.409   .     D
xx3    xx6     1.085   .     S
xx3    xx63    1.386   .     D
xx3    xx210   1.399   .     S
xx7    xx8     1.383   .     S
xx7    xx10    1.084   .     S
xx7    xx208   1.392   .     D
xx8    xx11    1.083   .     S
xx8    xx199   1.409   .     D
xx9    xx12    1.085   .     S
xx9    xx69    1.386   .     D
xx9    xx216   1.399   .     S
xx13   xx14    1.383   .     D
xx13   xx16    1.084   .     S
xx13   xx202   1.392   .     S
xx14   xx17    1.083   .     S
xx14   xx205   1.409   .     S
xx15   xx18    1.085   .     S
xx15   xx51    1.386   .     D
xx15   xx198   1.399   1_655 S
xx19   xx20    1.383   .     D
xx19   xx22    1.084   .     S
xx19   xx196   1.392   1_655 S
xx20   xx23    1.083   .     S
xx20   xx211   1.409   1_655 S
xx21   xx24    1.085   .     S
xx21   xx57    1.386   .     D
xx21   xx204   1.399   .     S
xx25   xx26    1.383   .     S
xx25   xx28    1.084   .     S
xx25   xx286   1.392   .     D
xx26   xx29    1.083   .     S
xx26   xx217   1.409   1_556 D
xx27   xx30    1.085   .     S
xx27   xx75    1.386   .     D
xx27   xx228   1.399   .     S
xx31   xx32    1.383   .     S
xx31   xx34    1.084   .     S
xx31   xx226   1.392   .     D
xx32   xx35    1.083   .     S
xx32   xx277   1.409   .     D
xx33   xx36    1.085   .     S
xx33   xx81    1.386   .     D
xx33   xx288   1.399   .     S
xx37   xx38    1.383   .     D
xx37   xx40    1.084   .     S
xx37   xx280   1.392   1_565 S
xx38   xx41    1.083   .     S
xx38   xx223   1.409   1_565 S
xx39   xx42    1.085   .     S
xx39   xx87    1.386   .     D
xx39   xx222   1.399   .     S
xx43   xx44    1.383   .     D
xx43   xx46    1.084   .     S
xx43   xx220   1.392   .     S
xx44   xx47    1.083   .     S
xx44   xx283   1.409   1_556 S
xx45   xx48    1.085   .     S
xx45   xx93    1.386   .     D
xx45   xx282   1.399   1_565 S
xx49   xx50    1.383   .     D
xx49   xx52    1.084   .     S
xx49   xx250   1.392   .     S
xx50   xx53    1.083   .     S
xx50   xx229   1.409   1_554 S
xx51   xx54    1.085   .     S
xx51   xx246   1.399   1_655 S
xx55   xx56    1.383   .     D
xx55   xx58    1.084   .     S
xx55   xx244   1.392   1_655 S
xx56   xx59    1.083   .     S
xx56   xx235   1.409   1_655 S
xx57   xx60    1.085   .     S
xx57   xx252   1.399   .     S
xx61   xx62    1.383   .     S
xx61   xx64    1.084   .     S
xx61   xx238   1.392   .     D
xx62   xx65    1.083   .     S
xx62   xx241   1.409   .     D
xx63   xx66    1.085   .     S
xx63   xx234   1.399   .     S
xx67   xx68    1.383   .     S
xx67   xx70    1.084   .     S
xx67   xx232   1.392   .     D
xx68   xx71    1.083   .     S
xx68   xx247   1.409   1_554 D
xx69   xx72    1.085   .     S
xx69   xx240   1.399   .     S
xx73   xx74    1.383   .     S
xx73   xx76    1.084   .     S
xx73   xx274   1.392   .     D
xx74   xx77    1.083   .     S
xx74   xx253   1.409   .     D
xx75   xx78    1.085   .     S
xx75   xx264   1.399   .     S
xx79   xx80    1.383   .     S
xx79   xx82    1.084   .     S
xx79   xx262   1.392   .     D
xx80   xx83    1.083   .     S
xx80   xx265   1.409   .     D
xx81   xx84    1.085   .     S
xx81   xx276   1.399   .     S
xx85   xx86    1.383   .     D
xx85   xx88    1.084   .     S
xx85   xx268   1.392   1_565 S
xx86   xx89    1.083   .     S
xx86   xx259   1.409   1_565 S
xx87   xx90    1.085   .     S
xx87   xx258   1.399   .     S
xx91   xx92    1.383   .     D
xx91   xx94    1.084   .     S
xx91   xx256   1.392   .     S
xx92   xx95    1.083   .     S
xx92   xx271   1.409   .     S
xx93   xx96    1.085   .     S
xx93   xx270   1.399   1_565 S
xx97   xx98    1.383   .     D
xx97   xx100   1.084   .     S
xx97   xx238   1.392   1_655 S
xx98   xx101   1.083   .     S
xx98   xx241   1.409   1_655 S
xx99   xx102   1.085   .     S
xx99   xx159   1.386   .     D
xx99   xx234   1.399   .     S
xx103  xx104   1.383   .     D
xx103  xx106   1.084   .     S
xx103  xx232   1.392   .     S
xx104  xx107   1.083   .     S
xx104  xx247   1.409   1_554 S
xx105  xx108   1.085   .     S
xx105  xx165   1.386   .     D
xx105  xx240   1.399   1_655 S
xx109  xx110   1.383   .     S
xx109  xx112   1.084   .     S
xx109  xx250   1.392   .     D
xx110  xx113   1.083   .     S
xx110  xx229   1.409   1_554 D
xx111  xx114   1.085   .     S
xx111  xx147   1.386   .     D
xx111  xx246   1.399   .     S
xx115  xx116   1.383   .     S
xx115  xx118   1.084   .     S
xx115  xx244   1.392   .     D
xx116  xx119   1.083   .     S
xx116  xx235   1.409   .     D
xx117  xx120   1.085   .     S
xx117  xx153   1.386   .     D
xx117  xx252   1.399   .     S
xx121  xx122   1.383   .     D
xx121  xx124   1.084   .     S
xx121  xx262   1.392   1_565 S
xx122  xx125   1.083   .     S
xx122  xx265   1.409   1_565 S
xx123  xx126   1.085   .     S
xx123  xx171   1.386   .     D
xx123  xx276   1.399   .     S
xx127  xx128   1.383   .     D
xx127  xx130   1.084   .     S
xx127  xx274   1.392   .     S
xx128  xx131   1.083   .     S
xx128  xx253   1.409   .     S
xx129  xx132   1.085   .     S
xx129  xx177   1.386   .     D
xx129  xx264   1.399   1_565 S
xx133  xx134   1.383   .     S
xx133  xx136   1.084   .     S
xx133  xx256   1.392   .     D
xx134  xx137   1.083   .     S
xx134  xx271   1.409   .     D
xx135  xx138   1.085   .     S
xx135  xx183   1.386   .     D
xx135  xx270   1.399   .     S
xx139  xx140   1.383   .     S
xx139  xx142   1.084   .     S
xx139  xx268   1.392   .     D
xx140  xx143   1.083   .     S
xx140  xx259   1.409   .     D
xx141  xx144   1.085   .     S
xx141  xx189   1.386   .     D
xx141  xx258   1.399   .     S
xx145  xx146   1.383   .     S
xx145  xx148   1.084   .     S
xx145  xx202   1.392   .     D
xx146  xx149   1.083   .     S
xx146  xx205   1.409   .     D
xx147  xx150   1.085   .     S
xx147  xx198   1.399   .     S
xx151  xx152   1.383   .     S
xx151  xx154   1.084   .     S
xx151  xx196   1.392   .     D
xx152  xx155   1.083   .     S
xx152  xx211   1.409   .     D
xx153  xx156   1.085   .     S
xx153  xx204   1.399   .     S
xx157  xx158   1.383   .     D
xx157  xx160   1.084   .     S
xx157  xx214   1.392   1_655 S
xx158  xx161   1.083   .     S
xx158  xx193   1.409   1_655 S
xx159  xx162   1.085   .     S
xx159  xx210   1.399   .     S
xx163  xx164   1.383   .     D
xx163  xx166   1.084   .     S
xx163  xx208   1.392   .     S
xx164  xx167   1.083   .     S
xx164  xx199   1.409   .     S
xx165  xx168   1.085   .     S
xx165  xx216   1.399   1_655 S
xx169  xx170   1.383   .     D
xx169  xx172   1.084   .     S
xx169  xx226   1.392   1_565 S
xx170  xx173   1.083   .     S
xx170  xx277   1.409   1_565 S
xx171  xx174   1.085   .     S
xx171  xx288   1.399   .     S
xx175  xx176   1.383   .     D
xx175  xx178   1.084   .     S
xx175  xx286   1.392   .     S
xx176  xx179   1.083   .     S
xx176  xx217   1.409   1_556 S
xx177  xx180   1.085   .     S
xx177  xx228   1.399   1_565 S
xx181  xx182   1.383   .     S
xx181  xx184   1.084   .     S
xx181  xx220   1.392   .     D
xx182  xx185   1.083   .     S
xx182  xx283   1.409   1_556 D
xx183  xx186   1.085   .     S
xx183  xx282   1.399   .     S
xx187  xx188   1.383   .     S
xx187  xx190   1.084   .     S
xx187  xx280   1.392   .     D
xx188  xx191   1.083   .     S
xx188  xx223   1.409   .     D
xx189  xx192   1.085   .     S
xx189  xx222   1.399   .     S
xx193  xx158   1.409   1_455 S
xx193  xx239   1.494   .     S
xx194  xx195   1.338   .     D
xx194  xx214   1.327   .     S
xx195  xx240   1.357   .     D
xx196  xx19    1.392   1_455 S
xx196  xx212   1.327   .     S
xx197  xx235   1.494   .     S
xx197  xx296   1.534   .     S
xx197  xx299   1.534   1_455 S
xx197  xx305   1.525   .     S
xx198  xx15    1.399   1_455 S
xx198  xx237   1.357   1_554 D
xx199  xx233   1.494   .     S
xx200  xx201   1.338   .     D
xx200  xx208   1.327   1_556 S
xx201  xx234   1.357   .     D
xx202  xx206   1.327   1_554 S
xx203  xx229   1.494   .     S
xx203  xx289   1.534   .     S
xx203  xx302   1.534   .     S
xx203  xx306   1.525   1_565 S
xx204  xx231   1.357   .     D
xx205  xx251   1.494   .     S
xx206  xx202   1.327   1_556 S
xx206  xx207   1.338   .     D
xx207  xx252   1.357   .     D
xx208  xx200   1.327   1_554 S
xx209  xx247   1.494   .     S
xx209  xx295   1.534   .     S
xx209  xx300   1.534   .     S
xx209  xx306   1.525   .     S
xx210  xx249   1.357   .     D
xx211  xx20    1.409   1_455 S
xx211  xx245   1.494   .     S
xx212  xx213   1.338   .     D
xx213  xx246   1.357   .     D
xx214  xx157   1.392   1_455 S
xx215  xx241   1.494   .     S
xx215  xx290   1.534   1_455 S
xx215  xx301   1.534   .     S
xx215  xx305   1.525   .     S
xx216  xx165   1.399   1_455 S
xx216  xx243   1.357   1_554 D
xx217  xx26    1.409   1_554 D
xx217  xx176   1.409   1_554 S
xx217  xx275   1.494   .     S
xx218  xx219   1.338   .     D
xx218  xx286   1.327   .     S
xx219  xx276   1.357   .     D
xx220  xx284   1.327   .     S
xx221  xx271   1.494   .     S
xx221  xx294   1.534   .     S
xx221  xx303   1.534   .     S
xx221  xx307   1.525   .     S
xx222  xx273   1.357   .     D
xx223  xx38    1.409   1_545 S
xx223  xx269   1.494   .     S
xx224  xx225   1.338   .     D
xx224  xx280   1.327   .     S
xx225  xx270   1.357   1_554 D
xx226  xx169   1.392   1_545 S
xx226  xx278   1.327   .     S
xx227  xx265   1.494   .     S
xx227  xx293   1.534   1_545 S
xx227  xx304   1.534   .     S
xx227  xx308   1.525   1_655 S
xx228  xx177   1.399   1_545 S
xx228  xx267   1.357   .     D
xx229  xx110   1.409   1_556 D
xx229  xx50    1.409   1_556 S
xx230  xx231   1.338   .     D
xx230  xx250   1.327   .     S
xx232  xx248   1.327   .     S
xx233  xx292   1.534   .     S
xx233  xx303   1.534   .     S
xx233  xx309   1.525   .     S
xx235  xx56    1.409   1_455 S
xx236  xx237   1.338   .     D
xx236  xx244   1.327   .     S
xx237  xx198   1.357   1_556 D
xx238  xx97    1.392   1_455 S
xx238  xx242   1.327   .     S
xx239  xx293   1.534   1_456 S
xx239  xx298   1.534   1_556 S
xx239  xx310   1.525   1_565 S
xx240  xx105   1.399   1_455 S
xx241  xx98    1.409   1_455 S
xx242  xx243   1.338   .     D
xx243  xx216   1.357   1_556 D
xx244  xx55    1.392   1_455 S
xx245  xx291   1.534   1_556 S
xx245  xx304   1.534   1_456 S
xx245  xx310   1.525   .     S
xx246  xx51    1.399   1_455 S
xx247  xx68    1.409   1_556 D
xx247  xx104   1.409   1_556 S
xx248  xx249   1.338   .     D
xx251  xx294   1.534   .     S
xx251  xx297   1.534   .     S
xx251  xx309   1.525   .     S
xx253  xx287   1.494   .     S
xx254  xx255   1.338   .     D
xx254  xx274   1.327   1_554 S
xx255  xx288   1.357   .     D
xx256  xx272   1.327   1_556 S
xx257  xx283   1.494   .     S
xx257  xx290   1.534   .     S
xx257  xx299   1.534   .     S
xx257  xx311   1.525   1_655 S
xx258  xx285   1.357   .     D
xx259  xx86    1.409   1_545 S
xx259  xx281   1.494   .     S
xx260  xx261   1.338   .     D
xx260  xx268   1.327   .     S
xx261  xx282   1.357   .     D
xx262  xx121   1.392   1_545 S
xx262  xx266   1.327   .     S
xx263  xx277   1.494   .     S
xx263  xx289   1.534   1_545 S
xx263  xx300   1.534   .     S
xx263  xx312   1.525   .     S
xx264  xx129   1.399   1_545 S
xx264  xx279   1.357   1_556 D
xx265  xx122   1.409   1_545 S
xx266  xx267   1.338   .     D
xx268  xx85    1.392   1_545 S
xx269  xx295   1.534   .     S
xx269  xx302   1.534   1_545 S
xx269  xx312   1.525   .     S
xx270  xx93    1.399   1_545 S
xx270  xx225   1.357   1_556 D
xx272  xx256   1.327   1_554 S
xx272  xx273   1.338   .     D
xx274  xx254   1.327   1_556 S
xx275  xx296   1.534   .     S
xx275  xx301   1.534   .     S
xx275  xx311   1.525   .     S
xx277  xx170   1.409   1_545 S
xx278  xx279   1.338   .     D
xx279  xx264   1.357   1_554 D
xx280  xx37    1.392   1_545 S
xx281  xx291   1.534   .     S
xx281  xx298   1.534   1_545 S
xx281  xx308   1.525   .     S
xx282  xx45    1.399   1_545 S
xx283  xx182   1.409   1_554 D
xx283  xx44    1.409   1_554 S
xx284  xx285   1.338   .     D
xx287  xx292   1.534   .     S
xx287  xx297   1.534   .     S
xx287  xx307   1.525   .     S
xx289  xx263   1.534   1_565 S
xx290  xx215   1.534   1_655 S
xx291  xx245   1.534   1_554 S
xx293  xx227   1.534   1_565 S
xx293  xx239   1.534   1_654 S
xx298  xx281   1.534   1_565 S
xx298  xx239   1.534   1_554 S
xx299  xx197   1.534   1_655 S
xx302  xx269   1.534   1_565 S
xx304  xx245   1.534   1_654 S
xx306  xx203   1.525   1_545 S
xx308  xx227   1.525   1_455 S
xx310  xx239   1.525   1_545 S
xx311  xx257   1.525   1_455 S
