data_145
_audit_creation_date              2023-09-08
_audit_creation_method            'Materials Studio'
_symmetry_space_group_name_H-M    'P1'
_symmetry_Int_Tables_number       1
_symmetry_cell_setting            triclinic
loop_
_symmetry_equiv_pos_as_xyz
  x,y,z
_cell_length_a                    30.8700
_cell_length_b                    30.8700
_cell_length_c                    60.2900
_cell_angle_alpha                 90.0000
_cell_angle_beta                  90.0000
_cell_angle_gamma                 90.0000
loop_
_atom_site_label
_atom_site_type_symbol
_atom_site_fract_x
_atom_site_fract_y
_atom_site_fract_z
_atom_site_U_iso_or_equiv
_atom_site_adp_type
_atom_site_occupancy
xx1    C     0.53917   0.86678   0.19707   0.00000  Uiso   1.00
xx2    C     0.53924   0.90196   0.21166   0.00000  Uiso   1.00
xx3    C     0.03929   0.23223   0.61780   0.00000  Uiso   1.00
xx4    H     0.57112   0.85237   0.19111   0.00000  Uiso   1.00
xx5    H     0.57124   0.91675   0.21729   0.00000  Uiso   1.00
xx6    H     0.07127   0.21770   0.61197   0.00000  Uiso   1.00
xx7    C     0.03917   0.36678   0.69707   0.00000  Uiso   1.00
xx8    C     0.03924   0.40196   0.71166   0.00000  Uiso   1.00
xx9    C     0.53929   0.73223   0.11780   0.00000  Uiso   1.00
xx10   H     0.07112   0.35237   0.69111   0.00000  Uiso   1.00
xx11   H     0.07124   0.41675   0.71729   0.00000  Uiso   1.00
xx12   H     0.57127   0.71770   0.11197   0.00000  Uiso   1.00
xx13   C     0.96083   0.63322   0.69707   0.00000  Uiso   1.00
xx14   C     0.96076   0.59804   0.71166   0.00000  Uiso   1.00
xx15   C     0.46071   0.26777   0.11780   0.00000  Uiso   1.00
xx16   H     0.92888   0.64763   0.69111   0.00000  Uiso   1.00
xx17   H     0.92876   0.58325   0.71729   0.00000  Uiso   1.00
xx18   H     0.42873   0.28230   0.11197   0.00000  Uiso   1.00
xx19   C     0.46083   0.13322   0.19707   0.00000  Uiso   1.00
xx20   C     0.46076   0.09804   0.21166   0.00000  Uiso   1.00
xx21   C     0.96071   0.76777   0.61780   0.00000  Uiso   1.00
xx22   H     0.42888   0.14763   0.19111   0.00000  Uiso   1.00
xx23   H     0.42876   0.08325   0.21729   0.00000  Uiso   1.00
xx24   H     0.92873   0.78230   0.61197   0.00000  Uiso   1.00
xx25   C     0.13322   0.03917   0.44707   0.00000  Uiso   1.00
xx26   C     0.09804   0.03924   0.46166   0.00000  Uiso   1.00
xx27   C     0.76777   0.53929   0.86780   0.00000  Uiso   1.00
xx28   H     0.14763   0.07112   0.44111   0.00000  Uiso   1.00
xx29   H     0.08325   0.07124   0.46729   0.00000  Uiso   1.00
xx30   H     0.78230   0.57127   0.86197   0.00000  Uiso   1.00
xx31   C     0.63322   0.53917   0.94707   0.00000  Uiso   1.00
xx32   C     0.59804   0.53924   0.96166   0.00000  Uiso   1.00
xx33   C     0.26777   0.03929   0.36780   0.00000  Uiso   1.00
xx34   H     0.64763   0.57112   0.94111   0.00000  Uiso   1.00
xx35   H     0.58325   0.57124   0.96729   0.00000  Uiso   1.00
xx36   H     0.28230   0.07127   0.36197   0.00000  Uiso   1.00
xx37   C     0.36678   0.46083   0.94707   0.00000  Uiso   1.00
xx38   C     0.40196   0.46076   0.96166   0.00000  Uiso   1.00
xx39   C     0.73223   0.96071   0.36780   0.00000  Uiso   1.00
xx40   H     0.35237   0.42888   0.94111   0.00000  Uiso   1.00
xx41   H     0.41675   0.42876   0.96729   0.00000  Uiso   1.00
xx42   H     0.71770   0.92873   0.36197   0.00000  Uiso   1.00
xx43   C     0.86678   0.96083   0.44707   0.00000  Uiso   1.00
xx44   C     0.90196   0.96076   0.46166   0.00000  Uiso   1.00
xx45   C     0.23223   0.46071   0.86780   0.00000  Uiso   1.00
xx46   H     0.85237   0.92888   0.44111   0.00000  Uiso   1.00
xx47   H     0.91675   0.92876   0.46729   0.00000  Uiso   1.00
xx48   H     0.21770   0.42873   0.86197   0.00000  Uiso   1.00
xx49   C     0.96083   0.86678   0.55293   0.00000  Uiso   1.00
xx50   C     0.96076   0.90196   0.53834   0.00000  Uiso   1.00
xx51   C     0.46071   0.23223   0.13220   0.00000  Uiso   1.00
xx52   H     0.92888   0.85237   0.55889   0.00000  Uiso   1.00
xx53   H     0.92876   0.91675   0.53271   0.00000  Uiso   1.00
xx54   H     0.42873   0.21770   0.13803   0.00000  Uiso   1.00
xx55   C     0.46083   0.36678   0.05293   0.00000  Uiso   1.00
xx56   C     0.46076   0.40196   0.03834   0.00000  Uiso   1.00
xx57   C     0.96071   0.73223   0.63220   0.00000  Uiso   1.00
xx58   H     0.42888   0.35237   0.05889   0.00000  Uiso   1.00
xx59   H     0.42876   0.41675   0.03271   0.00000  Uiso   1.00
xx60   H     0.92873   0.71770   0.63803   0.00000  Uiso   1.00
xx61   C     0.53917   0.63322   0.05293   0.00000  Uiso   1.00
xx62   C     0.53924   0.59804   0.03834   0.00000  Uiso   1.00
xx63   C     0.03929   0.26777   0.63220   0.00000  Uiso   1.00
xx64   H     0.57112   0.64763   0.05889   0.00000  Uiso   1.00
xx65   H     0.57124   0.58325   0.03271   0.00000  Uiso   1.00
xx66   H     0.07127   0.28230   0.63803   0.00000  Uiso   1.00
xx67   C     0.03917   0.13322   0.55293   0.00000  Uiso   1.00
xx68   C     0.03924   0.09804   0.53834   0.00000  Uiso   1.00
xx69   C     0.53929   0.76777   0.13220   0.00000  Uiso   1.00
xx70   H     0.07112   0.14763   0.55889   0.00000  Uiso   1.00
xx71   H     0.07124   0.08325   0.53271   0.00000  Uiso   1.00
xx72   H     0.57127   0.78230   0.13803   0.00000  Uiso   1.00
xx73   C     0.36678   0.03917   0.30293   0.00000  Uiso   1.00
xx74   C     0.40196   0.03924   0.28834   0.00000  Uiso   1.00
xx75   C     0.73223   0.53929   0.88220   0.00000  Uiso   1.00
xx76   H     0.35237   0.07112   0.30889   0.00000  Uiso   1.00
xx77   H     0.41675   0.07124   0.28271   0.00000  Uiso   1.00
xx78   H     0.71770   0.57127   0.88803   0.00000  Uiso   1.00
xx79   C     0.86678   0.53917   0.80293   0.00000  Uiso   1.00
xx80   C     0.90196   0.53924   0.78834   0.00000  Uiso   1.00
xx81   C     0.23223   0.03929   0.38220   0.00000  Uiso   1.00
xx82   H     0.85237   0.57112   0.80889   0.00000  Uiso   1.00
xx83   H     0.91675   0.57124   0.78271   0.00000  Uiso   1.00
xx84   H     0.21770   0.07127   0.38803   0.00000  Uiso   1.00
xx85   C     0.13322   0.46083   0.80293   0.00000  Uiso   1.00
xx86   C     0.09804   0.46076   0.78834   0.00000  Uiso   1.00
xx87   C     0.76777   0.96071   0.38220   0.00000  Uiso   1.00
xx88   H     0.14763   0.42888   0.80889   0.00000  Uiso   1.00
xx89   H     0.08325   0.42876   0.78271   0.00000  Uiso   1.00
xx90   H     0.78230   0.92873   0.38803   0.00000  Uiso   1.00
xx91   C     0.63322   0.96083   0.30293   0.00000  Uiso   1.00
xx92   C     0.59804   0.96076   0.28834   0.00000  Uiso   1.00
xx93   C     0.26777   0.46071   0.88220   0.00000  Uiso   1.00
xx94   H     0.64763   0.92888   0.30889   0.00000  Uiso   1.00
xx95   H     0.58325   0.92876   0.28271   0.00000  Uiso   1.00
xx96   H     0.28230   0.42873   0.88803   0.00000  Uiso   1.00
xx97   C     0.46083   0.63322   0.05293   0.00000  Uiso   1.00
xx98   C     0.46076   0.59804   0.03834   0.00000  Uiso   1.00
xx99   C     0.96071   0.26777   0.63220   0.00000  Uiso   1.00
xx100  H     0.42888   0.64763   0.05889   0.00000  Uiso   1.00
xx101  H     0.42876   0.58325   0.03271   0.00000  Uiso   1.00
xx102  H     0.92873   0.28230   0.63803   0.00000  Uiso   1.00
xx103  C     0.96083   0.13322   0.55293   0.00000  Uiso   1.00
xx104  C     0.96076   0.09804   0.53834   0.00000  Uiso   1.00
xx105  C     0.46071   0.76777   0.13220   0.00000  Uiso   1.00
xx106  H     0.92888   0.14763   0.55889   0.00000  Uiso   1.00
xx107  H     0.92876   0.08325   0.53271   0.00000  Uiso   1.00
xx108  H     0.42873   0.78230   0.13803   0.00000  Uiso   1.00
xx109  C     0.03917   0.86678   0.55293   0.00000  Uiso   1.00
xx110  C     0.03924   0.90196   0.53834   0.00000  Uiso   1.00
xx111  C     0.53929   0.23223   0.13220   0.00000  Uiso   1.00
xx112  H     0.07112   0.85237   0.55889   0.00000  Uiso   1.00
xx113  H     0.07124   0.91675   0.53271   0.00000  Uiso   1.00
xx114  H     0.57127   0.21770   0.13803   0.00000  Uiso   1.00
xx115  C     0.53917   0.36678   0.05293   0.00000  Uiso   1.00
xx116  C     0.53924   0.40196   0.03834   0.00000  Uiso   1.00
xx117  C     0.03929   0.73223   0.63220   0.00000  Uiso   1.00
xx118  H     0.57112   0.35237   0.05889   0.00000  Uiso   1.00
xx119  H     0.57124   0.41675   0.03271   0.00000  Uiso   1.00
xx120  H     0.07127   0.71770   0.63803   0.00000  Uiso   1.00
xx121  C     0.86678   0.46083   0.80293   0.00000  Uiso   1.00
xx122  C     0.90196   0.46076   0.78834   0.00000  Uiso   1.00
xx123  C     0.23223   0.96071   0.38220   0.00000  Uiso   1.00
xx124  H     0.85237   0.42888   0.80889   0.00000  Uiso   1.00
xx125  H     0.91675   0.42876   0.78271   0.00000  Uiso   1.00
xx126  H     0.21770   0.92873   0.38803   0.00000  Uiso   1.00
xx127  C     0.36678   0.96083   0.30293   0.00000  Uiso   1.00
xx128  C     0.40196   0.96076   0.28834   0.00000  Uiso   1.00
xx129  C     0.73223   0.46071   0.88220   0.00000  Uiso   1.00
xx130  H     0.35237   0.92888   0.30889   0.00000  Uiso   1.00
xx131  H     0.41675   0.92876   0.28271   0.00000  Uiso   1.00
xx132  H     0.71770   0.42873   0.88803   0.00000  Uiso   1.00
xx133  C     0.63322   0.03917   0.30293   0.00000  Uiso   1.00
xx134  C     0.59804   0.03924   0.28834   0.00000  Uiso   1.00
xx135  C     0.26777   0.53929   0.88220   0.00000  Uiso   1.00
xx136  H     0.64763   0.07112   0.30889   0.00000  Uiso   1.00
xx137  H     0.58325   0.07124   0.28271   0.00000  Uiso   1.00
xx138  H     0.28230   0.57127   0.88803   0.00000  Uiso   1.00
xx139  C     0.13322   0.53917   0.80293   0.00000  Uiso   1.00
xx140  C     0.09804   0.53924   0.78834   0.00000  Uiso   1.00
xx141  C     0.76777   0.03929   0.38220   0.00000  Uiso   1.00
xx142  H     0.14763   0.57112   0.80889   0.00000  Uiso   1.00
xx143  H     0.08325   0.57124   0.78271   0.00000  Uiso   1.00
xx144  H     0.78230   0.07127   0.38803   0.00000  Uiso   1.00
xx145  C     0.03917   0.63322   0.69707   0.00000  Uiso   1.00
xx146  C     0.03924   0.59804   0.71166   0.00000  Uiso   1.00
xx147  C     0.53929   0.26777   0.11780   0.00000  Uiso   1.00
xx148  H     0.07112   0.64763   0.69111   0.00000  Uiso   1.00
xx149  H     0.07124   0.58325   0.71729   0.00000  Uiso   1.00
xx150  H     0.57127   0.28230   0.11197   0.00000  Uiso   1.00
xx151  C     0.53917   0.13322   0.19707   0.00000  Uiso   1.00
xx152  C     0.53924   0.09804   0.21166   0.00000  Uiso   1.00
xx153  C     0.03929   0.76777   0.61780   0.00000  Uiso   1.00
xx154  H     0.57112   0.14763   0.19111   0.00000  Uiso   1.00
xx155  H     0.57124   0.08325   0.21729   0.00000  Uiso   1.00
xx156  H     0.07127   0.78230   0.61197   0.00000  Uiso   1.00
xx157  C     0.46083   0.86678   0.19707   0.00000  Uiso   1.00
xx158  C     0.46076   0.90196   0.21166   0.00000  Uiso   1.00
xx159  C     0.96071   0.23223   0.61780   0.00000  Uiso   1.00
xx160  H     0.42888   0.85237   0.19111   0.00000  Uiso   1.00
xx161  H     0.42876   0.91675   0.21729   0.00000  Uiso   1.00
xx162  H     0.92873   0.21770   0.61197   0.00000  Uiso   1.00
xx163  C     0.96083   0.36678   0.69707   0.00000  Uiso   1.00
xx164  C     0.96076   0.40196   0.71166   0.00000  Uiso   1.00
xx165  C     0.46071   0.73223   0.11780   0.00000  Uiso   1.00
xx166  H     0.92888   0.35237   0.69111   0.00000  Uiso   1.00
xx167  H     0.92876   0.41675   0.71729   0.00000  Uiso   1.00
xx168  H     0.42873   0.71770   0.11197   0.00000  Uiso   1.00
xx169  C     0.63322   0.46083   0.94707   0.00000  Uiso   1.00
xx170  C     0.59804   0.46076   0.96166   0.00000  Uiso   1.00
xx171  C     0.26777   0.96071   0.36780   0.00000  Uiso   1.00
xx172  H     0.64763   0.42888   0.94111   0.00000  Uiso   1.00
xx173  H     0.58325   0.42876   0.96729   0.00000  Uiso   1.00
xx174  H     0.28230   0.92873   0.36197   0.00000  Uiso   1.00
xx175  C     0.13322   0.96083   0.44707   0.00000  Uiso   1.00
xx176  C     0.09804   0.96076   0.46166   0.00000  Uiso   1.00
xx177  C     0.76777   0.46071   0.86780   0.00000  Uiso   1.00
xx178  H     0.14763   0.92888   0.44111   0.00000  Uiso   1.00
xx179  H     0.08325   0.92876   0.46729   0.00000  Uiso   1.00
xx180  H     0.78230   0.42873   0.86197   0.00000  Uiso   1.00
xx181  C     0.86678   0.03917   0.44707   0.00000  Uiso   1.00
xx182  C     0.90196   0.03924   0.46166   0.00000  Uiso   1.00
xx183  C     0.23223   0.53929   0.86780   0.00000  Uiso   1.00
xx184  H     0.85237   0.07112   0.44111   0.00000  Uiso   1.00
xx185  H     0.91675   0.07124   0.46729   0.00000  Uiso   1.00
xx186  H     0.21770   0.57127   0.86197   0.00000  Uiso   1.00
xx187  C     0.36678   0.53917   0.94707   0.00000  Uiso   1.00
xx188  C     0.40196   0.53924   0.96166   0.00000  Uiso   1.00
xx189  C     0.73223   0.03929   0.36780   0.00000  Uiso   1.00
xx190  H     0.35237   0.57112   0.94111   0.00000  Uiso   1.00
xx191  H     0.41675   0.57124   0.96729   0.00000  Uiso   1.00
xx192  H     0.71770   0.07127   0.36197   0.00000  Uiso   1.00
xx193  C     0.50000   0.91963   0.21960   0.00000  Uiso   1.00
xx194  N     0.50000   0.81493   0.17579   0.00000  Uiso   1.00
xx195  C     0.50000   0.82089   0.15363   0.00000  Uiso   1.00
xx196  C     0.50000   0.15088   0.18972   0.00000  Uiso   1.00
xx197  C     0.00000   0.41963   0.71960   0.00000  Uiso   1.00
xx198  N     0.00000   0.31493   0.67579   0.00000  Uiso   1.00
xx199  C     0.00000   0.32089   0.65363   0.00000  Uiso   1.00
xx200  C     0.00000   0.65088   0.68972   0.00000  Uiso   1.00
xx201  C     0.00000   0.58037   0.71960   0.00000  Uiso   1.00
xx202  N     0.00000   0.68507   0.67579   0.00000  Uiso   1.00
xx203  C     0.00000   0.67911   0.65363   0.00000  Uiso   1.00
xx204  C     0.00000   0.34912   0.68972   0.00000  Uiso   1.00
xx205  C     0.50000   0.08037   0.21960   0.00000  Uiso   1.00
xx206  N     0.50000   0.18507   0.17579   0.00000  Uiso   1.00
xx207  C     0.50000   0.17911   0.15363   0.00000  Uiso   1.00
xx208  C     0.50000   0.84912   0.18972   0.00000  Uiso   1.00
xx209  C     0.08037   0.00000   0.46960   0.00000  Uiso   1.00
xx210  N     0.18507   0.00000   0.42579   0.00000  Uiso   1.00
xx211  C     0.17911   0.00000   0.40363   0.00000  Uiso   1.00
xx212  C     0.84912   0.00000   0.43972   0.00000  Uiso   1.00
xx213  C     0.58037   0.50000   0.96960   0.00000  Uiso   1.00
xx214  N     0.68507   0.50000   0.92579   0.00000  Uiso   1.00
xx215  C     0.67911   0.50000   0.90363   0.00000  Uiso   1.00
xx216  C     0.34912   0.50000   0.93972   0.00000  Uiso   1.00
xx217  C     0.41963   0.50000   0.96960   0.00000  Uiso   1.00
xx218  N     0.31493   0.50000   0.92579   0.00000  Uiso   1.00
xx219  C     0.32089   0.50000   0.90363   0.00000  Uiso   1.00
xx220  C     0.65088   0.50000   0.93972   0.00000  Uiso   1.00
xx221  C     0.00000   0.91963   0.53040   0.00000  Uiso   1.00
xx222  N     0.00000   0.81493   0.57421   0.00000  Uiso   1.00
xx223  C     0.00000   0.82089   0.59637   0.00000  Uiso   1.00
xx224  C     0.00000   0.15088   0.56028   0.00000  Uiso   1.00
xx225  C     0.50000   0.41963   0.03040   0.00000  Uiso   1.00
xx226  N     0.50000   0.31493   0.07421   0.00000  Uiso   1.00
xx227  C     0.50000   0.32089   0.09637   0.00000  Uiso   1.00
xx228  C     0.50000   0.65088   0.06028   0.00000  Uiso   1.00
xx229  C     0.50000   0.58037   0.03040   0.00000  Uiso   1.00
xx230  N     0.50000   0.68507   0.07421   0.00000  Uiso   1.00
xx231  C     0.50000   0.67911   0.09637   0.00000  Uiso   1.00
xx232  C     0.50000   0.34912   0.06028   0.00000  Uiso   1.00
xx233  C     0.00000   0.08037   0.53040   0.00000  Uiso   1.00
xx234  N     0.00000   0.18507   0.57421   0.00000  Uiso   1.00
xx235  C     0.00000   0.17911   0.59637   0.00000  Uiso   1.00
xx236  C     0.00000   0.84912   0.56028   0.00000  Uiso   1.00
xx237  C     0.41963   0.00000   0.28040   0.00000  Uiso   1.00
xx238  N     0.31493   0.00000   0.32421   0.00000  Uiso   1.00
xx239  C     0.32089   0.00000   0.34637   0.00000  Uiso   1.00
xx240  C     0.65088   0.00000   0.31028   0.00000  Uiso   1.00
xx241  C     0.08037   0.50000   0.78040   0.00000  Uiso   1.00
xx242  N     0.18507   0.50000   0.82421   0.00000  Uiso   1.00
xx243  C     0.17911   0.50000   0.84637   0.00000  Uiso   1.00
xx244  C     0.84912   0.50000   0.81028   0.00000  Uiso   1.00
xx245  C     0.91963   0.50000   0.78040   0.00000  Uiso   1.00
xx246  N     0.81493   0.50000   0.82421   0.00000  Uiso   1.00
xx247  C     0.82089   0.50000   0.84637   0.00000  Uiso   1.00
xx248  C     0.15088   0.50000   0.81028   0.00000  Uiso   1.00
xx249  C     0.58037   0.00000   0.28040   0.00000  Uiso   1.00
xx250  N     0.68507   0.00000   0.32421   0.00000  Uiso   1.00
xx251  C     0.67911   0.00000   0.34637   0.00000  Uiso   1.00
xx252  C     0.34912   0.00000   0.31028   0.00000  Uiso   1.00
xx253  C     0.91963   0.00000   0.46960   0.00000  Uiso   1.00
xx254  N     0.81493   0.00000   0.42579   0.00000  Uiso   1.00
xx255  C     0.82089   0.00000   0.40363   0.00000  Uiso   1.00
xx256  C     0.15088   0.00000   0.43972   0.00000  Uiso   1.00
xx257  C     0.00000   0.95901   0.51512   0.00000  Uiso   1.00
xx258  C     0.00000   0.78557   0.61053   0.00000  Uiso   1.00
xx259  C     0.50000   0.45901   0.01512   0.00000  Uiso   1.00
xx260  C     0.50000   0.28557   0.11053   0.00000  Uiso   1.00
xx261  C     0.50000   0.54099   0.01512   0.00000  Uiso   1.00
xx262  C     0.50000   0.71443   0.11053   0.00000  Uiso   1.00
xx263  C     0.00000   0.04099   0.51512   0.00000  Uiso   1.00
xx264  C     0.00000   0.21443   0.61053   0.00000  Uiso   1.00
xx265  C     0.04099   0.50000   0.76512   0.00000  Uiso   1.00
xx266  C     0.21443   0.50000   0.86053   0.00000  Uiso   1.00
xx267  C     0.45901   0.00000   0.26512   0.00000  Uiso   1.00
xx268  C     0.28557   0.00000   0.36053   0.00000  Uiso   1.00
xx269  C     0.50000   0.95901   0.23488   0.00000  Uiso   1.00
xx270  C     0.50000   0.78557   0.13947   0.00000  Uiso   1.00
xx271  C     0.00000   0.45901   0.73488   0.00000  Uiso   1.00
xx272  C     0.00000   0.28557   0.63947   0.00000  Uiso   1.00
xx273  C     0.00000   0.54099   0.73488   0.00000  Uiso   1.00
xx274  C     0.00000   0.71443   0.63947   0.00000  Uiso   1.00
xx275  C     0.50000   0.04099   0.23488   0.00000  Uiso   1.00
xx276  C     0.50000   0.21443   0.13947   0.00000  Uiso   1.00
xx277  C     0.45901   0.50000   0.98488   0.00000  Uiso   1.00
xx278  C     0.28557   0.50000   0.88947   0.00000  Uiso   1.00
xx279  C     0.04099   0.00000   0.48488   0.00000  Uiso   1.00
xx280  C     0.21443   0.00000   0.38947   0.00000  Uiso   1.00
xx281  C     0.54099   0.50000   0.98488   0.00000  Uiso   1.00
xx282  C     0.71443   0.50000   0.88947   0.00000  Uiso   1.00
xx283  C     0.95901   0.00000   0.48488   0.00000  Uiso   1.00
xx284  C     0.78557   0.00000   0.38947   0.00000  Uiso   1.00
xx285  C     0.54099   0.00000   0.26512   0.00000  Uiso   1.00
xx286  C     0.71443   0.00000   0.36053   0.00000  Uiso   1.00
xx287  C     0.95901   0.50000   0.76512   0.00000  Uiso   1.00
xx288  C     0.78557   0.50000   0.86053   0.00000  Uiso   1.00
xx289  C     0.04035   0.95965   0.50000   0.00000  Uiso   1.00
xx290  C     0.54035   0.45965   0.00000   0.00000  Uiso   1.00
xx291  C     0.45965   0.54035   0.00000   0.00000  Uiso   1.00
xx292  C     0.95965   0.04035   0.50000   0.00000  Uiso   1.00
xx293  C     0.04035   0.54035   0.75000   0.00000  Uiso   1.00
xx294  C     0.54035   0.04035   0.25000   0.00000  Uiso   1.00
xx295  C     0.45965   0.95965   0.25000   0.00000  Uiso   1.00
xx296  C     0.95965   0.45965   0.75000   0.00000  Uiso   1.00
xx297  C     0.95965   0.54035   0.75000   0.00000  Uiso   1.00
xx298  C     0.45965   0.04035   0.25000   0.00000  Uiso   1.00
xx299  C     0.54035   0.95965   0.25000   0.00000  Uiso   1.00
xx300  C     0.04035   0.45965   0.75000   0.00000  Uiso   1.00
xx301  C     0.95965   0.95965   0.50000   0.00000  Uiso   1.00
xx302  C     0.45965   0.45965   0.00000   0.00000  Uiso   1.00
xx303  C     0.54035   0.54035   0.00000   0.00000  Uiso   1.00
xx304  C     0.04035   0.04035   0.50000   0.00000  Uiso   1.00
xx305  C     0.00000   0.00000   0.52954   0.00000  Uiso   1.00
xx306  C     0.50000   0.50000   0.02954   0.00000  Uiso   1.00
xx307  C     0.00000   0.50000   0.77954   0.00000  Uiso   1.00
xx308  C     0.50000   0.00000   0.27954   0.00000  Uiso   1.00
xx309  C     0.50000   0.00000   0.22046   0.00000  Uiso   1.00
xx310  C     0.00000   0.50000   0.72046   0.00000  Uiso   1.00
xx311  C     0.50000   0.50000   0.97046   0.00000  Uiso   1.00
xx312  C     0.00000   0.00000   0.47046   0.00000  Uiso   1.00
loop_
_geom_bond_atom_site_label_1
_geom_bond_atom_site_label_2
_geom_bond_distance
_geom_bond_site_symmetry_2
_ccdc_geom_bond_type
xx1    xx2     1.398   .     D
xx1    xx4     1.140   .     S
xx1    xx208   1.398   .     S
xx2    xx5     1.140   .     S
xx2    xx193   1.412   .     S
xx3    xx6     1.140   .     S
xx3    xx63    1.399   .     D
xx3    xx264   1.402   .     S
xx7    xx8     1.398   .     S
xx7    xx10    1.140   .     S
xx7    xx204   1.398   .     D
xx8    xx11    1.140   .     S
xx8    xx197   1.412   .     D
xx9    xx12    1.140   .     S
xx9    xx69    1.399   .     D
xx9    xx262   1.402   .     S
xx13   xx14    1.398   .     D
xx13   xx16    1.140   .     S
xx13   xx200   1.398   1_655 S
xx14   xx17    1.140   .     S
xx14   xx201   1.412   1_655 S
xx15   xx18    1.140   .     S
xx15   xx51    1.399   .     D
xx15   xx260   1.402   .     S
xx19   xx20    1.398   .     S
xx19   xx22    1.140   .     S
xx19   xx196   1.398   .     D
xx20   xx23    1.140   .     S
xx20   xx205   1.412   .     D
xx21   xx24    1.140   .     S
xx21   xx57    1.399   .     D
xx21   xx258   1.402   1_655 S
xx25   xx26    1.398   .     S
xx25   xx28    1.140   .     S
xx25   xx256   1.398   .     D
xx26   xx29    1.140   .     S
xx26   xx209   1.412   .     D
xx27   xx30    1.140   .     S
xx27   xx75    1.399   .     D
xx27   xx288   1.402   .     S
xx31   xx32    1.398   .     S
xx31   xx34    1.140   .     S
xx31   xx220   1.398   .     D
xx32   xx35    1.140   .     S
xx32   xx213   1.412   .     D
xx33   xx36    1.140   .     S
xx33   xx81    1.399   .     D
xx33   xx268   1.402   .     S
xx37   xx38    1.398   .     D
xx37   xx40    1.140   .     S
xx37   xx216   1.398   .     S
xx38   xx41    1.140   .     S
xx38   xx217   1.412   .     S
xx39   xx42    1.140   .     S
xx39   xx87    1.399   .     D
xx39   xx286   1.402   1_565 S
xx43   xx44    1.398   .     D
xx43   xx46    1.140   .     S
xx43   xx212   1.398   1_565 S
xx44   xx47    1.140   .     S
xx44   xx253   1.412   1_565 S
xx45   xx48    1.140   .     S
xx45   xx93    1.399   .     D
xx45   xx266   1.402   .     S
xx49   xx50    1.398   .     D
xx49   xx52    1.140   .     S
xx49   xx236   1.398   1_655 S
xx50   xx53    1.140   .     S
xx50   xx221   1.412   1_655 S
xx51   xx54    1.140   .     S
xx51   xx276   1.402   .     S
xx55   xx56    1.398   .     S
xx55   xx58    1.140   .     S
xx55   xx232   1.398   .     D
xx56   xx59    1.140   .     S
xx56   xx225   1.412   .     D
xx57   xx60    1.140   .     S
xx57   xx274   1.402   1_655 S
xx61   xx62    1.398   .     D
xx61   xx64    1.140   .     S
xx61   xx228   1.398   .     S
xx62   xx65    1.140   .     S
xx62   xx229   1.412   .     S
xx63   xx66    1.140   .     S
xx63   xx272   1.402   .     S
xx67   xx68    1.398   .     S
xx67   xx70    1.140   .     S
xx67   xx224   1.398   .     D
xx68   xx71    1.140   .     S
xx68   xx233   1.412   .     D
xx69   xx72    1.140   .     S
xx69   xx270   1.402   .     S
xx73   xx74    1.398   .     S
xx73   xx76    1.140   .     S
xx73   xx252   1.398   .     D
xx74   xx77    1.140   .     S
xx74   xx237   1.412   .     D
xx75   xx78    1.140   .     S
xx75   xx282   1.402   .     S
xx79   xx80    1.398   .     D
xx79   xx82    1.140   .     S
xx79   xx244   1.398   .     S
xx80   xx83    1.140   .     S
xx80   xx245   1.412   .     S
xx81   xx84    1.140   .     S
xx81   xx280   1.402   .     S
xx85   xx86    1.398   .     S
xx85   xx88    1.140   .     S
xx85   xx248   1.398   .     D
xx86   xx89    1.140   .     S
xx86   xx241   1.412   .     D
xx87   xx90    1.140   .     S
xx87   xx284   1.402   1_565 S
xx91   xx92    1.398   .     D
xx91   xx94    1.140   .     S
xx91   xx240   1.398   1_565 S
xx92   xx95    1.140   .     S
xx92   xx249   1.412   1_565 S
xx93   xx96    1.140   .     S
xx93   xx278   1.402   .     S
xx97   xx98    1.398   .     S
xx97   xx100   1.140   .     S
xx97   xx228   1.398   .     D
xx98   xx101   1.140   .     S
xx98   xx229   1.412   .     D
xx99   xx102   1.140   .     S
xx99   xx159   1.399   .     D
xx99   xx272   1.402   1_655 S
xx103  xx104   1.398   .     D
xx103  xx106   1.140   .     S
xx103  xx224   1.398   1_655 S
xx104  xx107   1.140   .     S
xx104  xx233   1.412   1_655 S
xx105  xx108   1.140   .     S
xx105  xx165   1.399   .     D
xx105  xx270   1.402   .     S
xx109  xx110   1.398   .     S
xx109  xx112   1.140   .     S
xx109  xx236   1.398   .     D
xx110  xx113   1.140   .     S
xx110  xx221   1.412   .     D
xx111  xx114   1.140   .     S
xx111  xx147   1.399   .     D
xx111  xx276   1.402   .     S
xx115  xx116   1.398   .     D
xx115  xx118   1.140   .     S
xx115  xx232   1.398   .     S
xx116  xx119   1.140   .     S
xx116  xx225   1.412   .     S
xx117  xx120   1.140   .     S
xx117  xx153   1.399   .     D
xx117  xx274   1.402   .     S
xx121  xx122   1.398   .     S
xx121  xx124   1.140   .     S
xx121  xx244   1.398   .     D
xx122  xx125   1.140   .     S
xx122  xx245   1.412   .     D
xx123  xx126   1.140   .     S
xx123  xx171   1.399   .     D
xx123  xx280   1.402   1_565 S
xx127  xx128   1.398   .     D
xx127  xx130   1.140   .     S
xx127  xx252   1.398   1_565 S
xx128  xx131   1.140   .     S
xx128  xx237   1.412   1_565 S
xx129  xx132   1.140   .     S
xx129  xx177   1.399   .     D
xx129  xx282   1.402   .     S
xx133  xx134   1.398   .     S
xx133  xx136   1.140   .     S
xx133  xx240   1.398   .     D
xx134  xx137   1.140   .     S
xx134  xx249   1.412   .     D
xx135  xx138   1.140   .     S
xx135  xx183   1.399   .     D
xx135  xx278   1.402   .     S
xx139  xx140   1.398   .     D
xx139  xx142   1.140   .     S
xx139  xx248   1.398   .     S
xx140  xx143   1.140   .     S
xx140  xx241   1.412   .     S
xx141  xx144   1.140   .     S
xx141  xx189   1.399   .     D
xx141  xx284   1.402   .     S
xx145  xx146   1.398   .     S
xx145  xx148   1.140   .     S
xx145  xx200   1.398   .     D
xx146  xx149   1.140   .     S
xx146  xx201   1.412   .     D
xx147  xx150   1.140   .     S
xx147  xx260   1.402   .     S
xx151  xx152   1.398   .     D
xx151  xx154   1.140   .     S
xx151  xx196   1.398   .     S
xx152  xx155   1.140   .     S
xx152  xx205   1.412   .     S
xx153  xx156   1.140   .     S
xx153  xx258   1.402   .     S
xx157  xx158   1.398   .     S
xx157  xx160   1.140   .     S
xx157  xx208   1.398   .     D
xx158  xx161   1.140   .     S
xx158  xx193   1.412   .     D
xx159  xx162   1.140   .     S
xx159  xx264   1.402   1_655 S
xx163  xx164   1.398   .     D
xx163  xx166   1.140   .     S
xx163  xx204   1.398   1_655 S
xx164  xx167   1.140   .     S
xx164  xx197   1.412   1_655 S
xx165  xx168   1.140   .     S
xx165  xx262   1.402   .     S
xx169  xx170   1.398   .     D
xx169  xx172   1.140   .     S
xx169  xx220   1.398   .     S
xx170  xx173   1.140   .     S
xx170  xx213   1.412   .     S
xx171  xx174   1.140   .     S
xx171  xx268   1.402   1_565 S
xx175  xx176   1.398   .     D
xx175  xx178   1.140   .     S
xx175  xx256   1.398   1_565 S
xx176  xx179   1.140   .     S
xx176  xx209   1.412   1_565 S
xx177  xx180   1.140   .     S
xx177  xx288   1.402   .     S
xx181  xx182   1.398   .     S
xx181  xx184   1.140   .     S
xx181  xx212   1.398   .     D
xx182  xx185   1.140   .     S
xx182  xx253   1.412   .     D
xx183  xx186   1.140   .     S
xx183  xx266   1.402   .     S
xx187  xx188   1.398   .     S
xx187  xx190   1.140   .     S
xx187  xx216   1.398   .     D
xx188  xx191   1.140   .     S
xx188  xx217   1.412   .     D
xx189  xx192   1.140   .     S
xx189  xx286   1.402   .     S
xx193  xx269   1.525   .     S
xx194  xx195   1.349   .     D
xx194  xx208   1.349   .     S
xx195  xx270   1.385   .     D
xx196  xx206   1.349   .     S
xx197  xx164   1.412   1_455 S
xx197  xx271   1.525   .     S
xx198  xx199   1.349   .     D
xx198  xx204   1.349   .     S
xx199  xx272   1.385   .     D
xx200  xx13    1.398   1_455 S
xx200  xx202   1.349   .     S
xx201  xx14    1.412   1_455 S
xx201  xx273   1.525   .     S
xx202  xx203   1.349   .     D
xx203  xx274   1.385   .     D
xx204  xx163   1.398   1_455 S
xx205  xx275   1.525   .     S
xx206  xx207   1.349   .     D
xx207  xx276   1.385   .     D
xx209  xx176   1.412   1_545 S
xx209  xx279   1.525   .     S
xx210  xx211   1.349   .     D
xx210  xx256   1.349   .     S
xx211  xx280   1.385   .     D
xx212  xx43    1.398   1_545 S
xx212  xx254   1.349   .     S
xx213  xx281   1.525   .     S
xx214  xx215   1.349   .     D
xx214  xx220   1.349   .     S
xx215  xx282   1.385   .     D
xx216  xx218   1.349   .     S
xx217  xx277   1.525   .     S
xx218  xx219   1.349   .     D
xx219  xx278   1.385   .     D
xx221  xx50    1.412   1_455 S
xx221  xx257   1.525   .     S
xx222  xx223   1.349   .     D
xx222  xx236   1.349   .     S
xx223  xx258   1.385   .     D
xx224  xx103   1.398   1_455 S
xx224  xx234   1.349   .     S
xx225  xx259   1.525   .     S
xx226  xx227   1.349   .     D
xx226  xx232   1.349   .     S
xx227  xx260   1.385   .     D
xx228  xx230   1.349   .     S
xx229  xx261   1.525   .     S
xx230  xx231   1.349   .     D
xx231  xx262   1.385   .     D
xx233  xx104   1.412   1_455 S
xx233  xx263   1.525   .     S
xx234  xx235   1.349   .     D
xx235  xx264   1.385   .     D
xx236  xx49    1.398   1_455 S
xx237  xx128   1.412   1_545 S
xx237  xx267   1.525   .     S
xx238  xx239   1.349   .     D
xx238  xx252   1.349   .     S
xx239  xx268   1.385   .     D
xx240  xx91    1.398   1_545 S
xx240  xx250   1.349   .     S
xx241  xx265   1.525   .     S
xx242  xx243   1.349   .     D
xx242  xx248   1.349   .     S
xx243  xx266   1.385   .     D
xx244  xx246   1.349   .     S
xx245  xx287   1.525   .     S
xx246  xx247   1.349   .     D
xx247  xx288   1.385   .     D
xx249  xx92    1.412   1_545 S
xx249  xx285   1.525   .     S
xx250  xx251   1.349   .     D
xx251  xx286   1.385   .     D
xx252  xx127   1.398   1_545 S
xx253  xx44    1.412   1_545 S
xx253  xx283   1.525   .     S
xx254  xx255   1.349   .     D
xx255  xx284   1.385   .     D
xx256  xx175   1.398   1_545 S
xx257  xx289   1.544   .     S
xx257  xx301   1.544   1_455 S
xx257  xx305   1.535   1_565 S
xx258  xx21    1.402   1_455 S
xx259  xx290   1.544   .     S
xx259  xx302   1.544   .     S
xx259  xx306   1.535   .     S
xx261  xx291   1.544   .     S
xx261  xx303   1.544   .     S
xx261  xx306   1.535   .     S
xx263  xx292   1.544   1_455 S
xx263  xx304   1.544   .     S
xx263  xx305   1.535   .     S
xx264  xx159   1.402   1_455 S
xx265  xx293   1.544   .     S
xx265  xx300   1.544   .     S
xx265  xx307   1.535   .     S
xx267  xx295   1.544   1_545 S
xx267  xx298   1.544   .     S
xx267  xx308   1.535   .     S
xx268  xx171   1.402   1_545 S
xx269  xx295   1.544   .     S
xx269  xx299   1.544   .     S
xx269  xx309   1.535   1_565 S
xx271  xx296   1.544   1_455 S
xx271  xx300   1.544   .     S
xx271  xx310   1.535   .     S
xx272  xx99    1.402   1_455 S
xx273  xx293   1.544   .     S
xx273  xx297   1.544   1_455 S
xx273  xx310   1.535   .     S
xx274  xx57    1.402   1_455 S
xx275  xx294   1.544   .     S
xx275  xx298   1.544   .     S
xx275  xx309   1.535   .     S
xx277  xx291   1.544   1_556 S
xx277  xx302   1.544   1_556 S
xx277  xx311   1.535   .     S
xx279  xx289   1.544   1_545 S
xx279  xx304   1.544   .     S
xx279  xx312   1.535   .     S
xx280  xx123   1.402   1_545 S
xx281  xx290   1.544   1_556 S
xx281  xx303   1.544   1_556 S
xx281  xx311   1.535   .     S
xx283  xx292   1.544   .     S
xx283  xx301   1.544   1_545 S
xx283  xx312   1.535   1_655 S
xx284  xx87    1.402   1_545 S
xx285  xx294   1.544   .     S
xx285  xx299   1.544   1_545 S
xx285  xx308   1.535   .     S
xx286  xx39    1.402   1_545 S
xx287  xx296   1.544   .     S
xx287  xx297   1.544   .     S
xx287  xx307   1.535   1_655 S
xx289  xx279   1.544   1_565 S
xx290  xx281   1.544   1_554 S
xx291  xx277   1.544   1_554 S
xx292  xx263   1.544   1_655 S
xx295  xx267   1.544   1_565 S
xx296  xx271   1.544   1_655 S
xx297  xx273   1.544   1_655 S
xx299  xx285   1.544   1_565 S
xx301  xx257   1.544   1_655 S
xx301  xx283   1.544   1_565 S
xx302  xx277   1.544   1_554 S
xx303  xx281   1.544   1_554 S
xx305  xx257   1.535   1_545 S
xx307  xx287   1.535   1_455 S
xx309  xx269   1.535   1_545 S
xx312  xx283   1.535   1_455 S
