data_146
_audit_creation_date              2023-09-08
_audit_creation_method            'Materials Studio'
_symmetry_space_group_name_H-M    'P1'
_symmetry_Int_Tables_number       1
_symmetry_cell_setting            triclinic
loop_
_symmetry_equiv_pos_as_xyz
  x,y,z
_cell_length_a                    37.9900
_cell_length_b                    24.3300
_cell_length_c                    4.8000
_cell_angle_alpha                 90.0000
_cell_angle_beta                  90.0000
_cell_angle_gamma                 90.0000
loop_
_atom_site_label
_atom_site_type_symbol
_atom_site_fract_x
_atom_site_fract_y
_atom_site_fract_z
_atom_site_U_iso_or_equiv
_atom_site_adp_type
_atom_site_occupancy
C1     C     0.46525   0.61933   0.50113   0.00000  Uiso   1.00
C2     C     0.43779   0.73366   0.69112   0.00000  Uiso   1.00
C3     C     0.43571   0.63320   0.33751   0.00000  Uiso   1.00
C4     C     0.36192   0.83501   0.50355   0.00000  Uiso   1.00
C5     C     0.40385   0.60300   0.34058   0.00000  Uiso   1.00
C6     C     0.35727   0.89023   0.41577   0.00000  Uiso   1.00
C7     C     0.39914   0.55633   0.51170   0.00000  Uiso   1.00
C8     C     0.32370   0.91657   0.42024   0.00000  Uiso   1.00
C9     C     0.42884   0.54131   0.67508   0.00000  Uiso   1.00
C10    C     0.29288   0.88919   0.51297   0.00000  Uiso   1.00
C11    C     0.46102   0.57168   0.66780   0.00000  Uiso   1.00
C12    C     0.29755   0.83370   0.59458   0.00000  Uiso   1.00
C13    C     0.36379   0.52449   0.51843   0.00000  Uiso   1.00
C14    C     0.33092   0.80750   0.58990   0.00000  Uiso   1.00
C15    C     0.33133   0.54938   0.44289   0.00000  Uiso   1.00
H16    H     0.43655   0.66945   0.21499   0.00000  Uiso   1.00
C17    C     0.29888   0.52011   0.44593   0.00000  Uiso   1.00
H18    H     0.38287   0.61680   0.20542   0.00000  Uiso   1.00
C19    C     0.29682   0.46428   0.52689   0.00000  Uiso   1.00
H20    H     0.42726   0.50648   0.81441   0.00000  Uiso   1.00
C21    C     0.32922   0.43936   0.60222   0.00000  Uiso   1.00
H22    H     0.48252   0.55825   0.79838   0.00000  Uiso   1.00
C23    C     0.36168   0.46853   0.59805   0.00000  Uiso   1.00
H24    H     0.33054   0.59232   0.38538   0.00000  Uiso   1.00
C25    C     0.26151   0.43259   0.53850   0.00000  Uiso   1.00
H26    H     0.27515   0.54206   0.38999   0.00000  Uiso   1.00
C27    C     0.23231   0.44503   0.36364   0.00000  Uiso   1.00
H28    H     0.32985   0.39646   0.66103   0.00000  Uiso   1.00
C29    C     0.20001   0.41494   0.37747   0.00000  Uiso   1.00
H30    H     0.38533   0.44636   0.65352   0.00000  Uiso   1.00
C31    C     0.19541   0.37118   0.56790   0.00000  Uiso   1.00
H32    H     0.23452   0.47754   0.21087   0.00000  Uiso   1.00
C33    C     0.22441   0.35922   0.74225   0.00000  Uiso   1.00
H34    H     0.17877   0.42580   0.23757   0.00000  Uiso   1.00
C35    C     0.25641   0.38892   0.72852   0.00000  Uiso   1.00
H36    H     0.22231   0.32643   0.89402   0.00000  Uiso   1.00
C37    C     0.16190   0.33644   0.59745   0.00000  Uiso   1.00
H38    H     0.27705   0.37793   0.87342   0.00000  Uiso   1.00
C39    C     0.03439   0.11735   0.48108   0.00000  Uiso   1.00
H40    H     0.16298   0.30471   0.75468   0.00000  Uiso   1.00
C41    C     0.03485   0.24440   0.49270   0.00000  Uiso   1.00
H42    H     0.02250   0.06038   0.81444   0.00000  Uiso   1.00
C43    C     0.04182   0.07253   0.66079   0.00000  Uiso   1.00
H44    H     0.07893   0.01093   0.79870   0.00000  Uiso   1.00
C45    C     0.07471   0.04401   0.65223   0.00000  Uiso   1.00
H46    H     0.11281   0.11502   0.12430   0.00000  Uiso   1.00
C47    C     0.10154   0.05892   0.46047   0.00000  Uiso   1.00
H48    H     0.05599   0.16350   0.14829   0.00000  Uiso   1.00
C49    C     0.09342   0.10214   0.27616   0.00000  Uiso   1.00
H50    H     0.06615   0.19271   0.75921   0.00000  Uiso   1.00
C51    C     0.06067   0.12990   0.28552   0.00000  Uiso   1.00
H52    H     0.11934   0.24581   0.75220   0.00000  Uiso   1.00
C53    C     0.06557   0.22991   0.64309   0.00000  Uiso   1.00
H54    H     0.07033   0.36095   0.19254   0.00000  Uiso   1.00
C55    C     0.09715   0.26099   0.63459   0.00000  Uiso   1.00
H56    H     0.01554   0.30720   0.21239   0.00000  Uiso   1.00
C57    C     0.10001   0.30930   0.47289   0.00000  Uiso   1.00
H58    H     0.26440   0.97699   0.19798   0.00000  Uiso   1.00
C59    C     0.06957   0.32447   0.32157   0.00000  Uiso   1.00
H60    H     0.20581   0.02013   0.23097   0.00000  Uiso   1.00
C61    C     0.03782   0.29322   0.33291   0.00000  Uiso   1.00
H62    H     0.17891   0.90967   0.89747   0.00000  Uiso   1.00
N63    N     0.13261   0.34245   0.45189   0.00000  Uiso   1.00
H64    H     0.23685   0.86774   0.87126   0.00000  Uiso   1.00
C65    C     0.25643   0.91755   0.52964   0.00000  Uiso   1.00
H66    H     0.13390   0.97638   0.76590   0.00000  Uiso   1.00
C67    C     0.24627   0.96192   0.35410   0.00000  Uiso   1.00
H68    H     0.47951   0.80450   0.18542   0.00000  Uiso   1.00
C69    C     0.21223   0.98680   0.37152   0.00000  Uiso   1.00
H70    H     0.42312   0.85394   0.18073   0.00000  Uiso   1.00
C71    C     0.18683   0.96864   0.56649   0.00000  Uiso   1.00
H72    H     0.38556   0.74897   0.84093   0.00000  Uiso   1.00
C73    C     0.19713   0.92491   0.74203   0.00000  Uiso   1.00
H74    H     0.44106   0.69928   0.82473   0.00000  Uiso   1.00
C75    C     0.23081   0.90018   0.72478   0.00000  Uiso   1.00
H76    H     0.37979   0.91398   0.34850   0.00000  Uiso   1.00
C77    C     0.14987   0.99322   0.60007   0.00000  Uiso   1.00
H78    H     0.32219   0.95915   0.35631   0.00000  Uiso   1.00
N79    N     0.13659   0.03270   0.44366   0.00000  Uiso   1.00
H80    H     0.27514   0.80949   0.65958   0.00000  Uiso   1.00
C81    C     0.46544   0.74651   0.50813   0.00000  Uiso   1.00
H82    H     0.33204   0.76477   0.65123   0.00000  Uiso   1.00
C83    C     0.45927   0.79201   0.33033   0.00000  Uiso   1.00
C84    C     0.42649   0.82086   0.32886   0.00000  Uiso   1.00
C85    C     0.39825   0.80606   0.50795   0.00000  Uiso   1.00
C86    C     0.40524   0.76202   0.69228   0.00000  Uiso   1.00
C87    C     0.53475   0.61933   0.49887   0.00000  Uiso   1.00
C88    C     0.56221   0.73366   0.30888   0.00000  Uiso   1.00
C89    C     0.56429   0.63320   0.66249   0.00000  Uiso   1.00
C90    C     0.63808   0.83501   0.49645   0.00000  Uiso   1.00
C91    C     0.59615   0.60300   0.65942   0.00000  Uiso   1.00
C92    C     0.64273   0.89023   0.58423   0.00000  Uiso   1.00
C93    C     0.60086   0.55633   0.48830   0.00000  Uiso   1.00
C94    C     0.67630   0.91657   0.57976   0.00000  Uiso   1.00
C95    C     0.57116   0.54131   0.32492   0.00000  Uiso   1.00
C96    C     0.70712   0.88919   0.48703   0.00000  Uiso   1.00
C97    C     0.53898   0.57168   0.33220   0.00000  Uiso   1.00
C98    C     0.70245   0.83370   0.40542   0.00000  Uiso   1.00
C99    C     0.63621   0.52449   0.48157   0.00000  Uiso   1.00
C100   C     0.66908   0.80750   0.41010   0.00000  Uiso   1.00
C101   C     0.66867   0.54938   0.55711   0.00000  Uiso   1.00
H102   H     0.56345   0.66945   0.78501   0.00000  Uiso   1.00
C103   C     0.70112   0.52011   0.55407   0.00000  Uiso   1.00
H104   H     0.61713   0.61680   0.79458   0.00000  Uiso   1.00
C105   C     0.70318   0.46428   0.47311   0.00000  Uiso   1.00
H106   H     0.57274   0.50648   0.18559   0.00000  Uiso   1.00
C107   C     0.67078   0.43936   0.39778   0.00000  Uiso   1.00
H108   H     0.51748   0.55825   0.20162   0.00000  Uiso   1.00
C109   C     0.63832   0.46853   0.40195   0.00000  Uiso   1.00
H110   H     0.66946   0.59232   0.61462   0.00000  Uiso   1.00
C111   C     0.73849   0.43259   0.46150   0.00000  Uiso   1.00
H112   H     0.72485   0.54206   0.61001   0.00000  Uiso   1.00
C113   C     0.76769   0.44503   0.63636   0.00000  Uiso   1.00
H114   H     0.67015   0.39646   0.33897   0.00000  Uiso   1.00
C115   C     0.79999   0.41494   0.62253   0.00000  Uiso   1.00
H116   H     0.61467   0.44636   0.34648   0.00000  Uiso   1.00
C117   C     0.80459   0.37118   0.43210   0.00000  Uiso   1.00
H118   H     0.76548   0.47754   0.78913   0.00000  Uiso   1.00
C119   C     0.77559   0.35922   0.25775   0.00000  Uiso   1.00
H120   H     0.82123   0.42580   0.76243   0.00000  Uiso   1.00
C121   C     0.74359   0.38892   0.27148   0.00000  Uiso   1.00
H122   H     0.77769   0.32643   0.10598   0.00000  Uiso   1.00
C123   C     0.83810   0.33644   0.40255   0.00000  Uiso   1.00
H124   H     0.72295   0.37793   0.12658   0.00000  Uiso   1.00
C125   C     0.96561   0.11735   0.51892   0.00000  Uiso   1.00
H126   H     0.83702   0.30471   0.24532   0.00000  Uiso   1.00
C127   C     0.96515   0.24440   0.50730   0.00000  Uiso   1.00
H128   H     0.97750   0.06038   0.18556   0.00000  Uiso   1.00
C129   C     0.95818   0.07253   0.33921   0.00000  Uiso   1.00
H130   H     0.92107   0.01093   0.20130   0.00000  Uiso   1.00
C131   C     0.92529   0.04401   0.34777   0.00000  Uiso   1.00
H132   H     0.88719   0.11502   0.87570   0.00000  Uiso   1.00
C133   C     0.89846   0.05892   0.53953   0.00000  Uiso   1.00
H134   H     0.94401   0.16350   0.85171   0.00000  Uiso   1.00
C135   C     0.90658   0.10214   0.72384   0.00000  Uiso   1.00
H136   H     0.93385   0.19271   0.24079   0.00000  Uiso   1.00
C137   C     0.93933   0.12990   0.71448   0.00000  Uiso   1.00
H138   H     0.88066   0.24581   0.24780   0.00000  Uiso   1.00
C139   C     0.93443   0.22991   0.35691   0.00000  Uiso   1.00
H140   H     0.92967   0.36095   0.80746   0.00000  Uiso   1.00
C141   C     0.90285   0.26099   0.36541   0.00000  Uiso   1.00
H142   H     0.98446   0.30720   0.78761   0.00000  Uiso   1.00
C143   C     0.89999   0.30930   0.52711   0.00000  Uiso   1.00
H144   H     0.73560   0.97699   0.80202   0.00000  Uiso   1.00
C145   C     0.93043   0.32447   0.67843   0.00000  Uiso   1.00
H146   H     0.79419   0.02013   0.76903   0.00000  Uiso   1.00
C147   C     0.96218   0.29322   0.66709   0.00000  Uiso   1.00
H148   H     0.82109   0.90967   0.10253   0.00000  Uiso   1.00
N149   N     0.86739   0.34245   0.54811   0.00000  Uiso   1.00
H150   H     0.76315   0.86774   0.12874   0.00000  Uiso   1.00
C151   C     0.74357   0.91755   0.47036   0.00000  Uiso   1.00
H152   H     0.86610   0.97638   0.23410   0.00000  Uiso   1.00
C153   C     0.75373   0.96192   0.64590   0.00000  Uiso   1.00
H154   H     0.52049   0.80450   0.81458   0.00000  Uiso   1.00
C155   C     0.78777   0.98680   0.62848   0.00000  Uiso   1.00
H156   H     0.57688   0.85394   0.81927   0.00000  Uiso   1.00
C157   C     0.81317   0.96864   0.43351   0.00000  Uiso   1.00
H158   H     0.61444   0.74897   0.15907   0.00000  Uiso   1.00
C159   C     0.80287   0.92491   0.25797   0.00000  Uiso   1.00
H160   H     0.55894   0.69928   0.17527   0.00000  Uiso   1.00
C161   C     0.76919   0.90018   0.27522   0.00000  Uiso   1.00
H162   H     0.62021   0.91398   0.65150   0.00000  Uiso   1.00
C163   C     0.85013   0.99322   0.39993   0.00000  Uiso   1.00
H164   H     0.67781   0.95915   0.64369   0.00000  Uiso   1.00
N165   N     0.86341   0.03270   0.55634   0.00000  Uiso   1.00
H166   H     0.72486   0.80949   0.34042   0.00000  Uiso   1.00
C167   C     0.53456   0.74651   0.49187   0.00000  Uiso   1.00
H168   H     0.66796   0.76477   0.34877   0.00000  Uiso   1.00
C169   C     0.54073   0.79201   0.66967   0.00000  Uiso   1.00
C170   C     0.57351   0.82086   0.67114   0.00000  Uiso   1.00
C171   C     0.60175   0.80606   0.49205   0.00000  Uiso   1.00
C172   C     0.59476   0.76202   0.30772   0.00000  Uiso   1.00
C173   C     0.00000   0.15138   0.50000   0.00000  Uiso   1.00
C174   C     0.00000   0.21009   0.50000   0.00000  Uiso   1.00
C175   C     0.50000   0.71238   0.50000   0.00000  Uiso   1.00
C176   C     0.50000   0.65360   0.50000   0.00000  Uiso   1.00
loop_
_geom_bond_atom_site_label_1
_geom_bond_atom_site_label_2
_geom_bond_distance
_geom_bond_site_symmetry_2
_ccdc_geom_bond_type
C1     C3      1.411   .     S
C1     C11     1.418   .     S
C1     C176    1.561   .     D
C2     H74     1.061   .     S
C2     C81     1.405   .     S
C2     C86     1.416   .     D
C3     C5      1.416   .     D
C3     H16     1.061   .     S
C4     C6      1.419   .     S
C4     C14     1.417   .     S
C4     C85     1.550   .     D
C5     C7      1.413   .     S
C5     H18     1.081   .     S
C6     C8      1.427   .     D
C6     H76     1.082   .     S
C7     C9      1.422   .     S
C7     C13     1.551   .     D
C8     C10     1.419   .     S
C8     H78     1.082   .     S
C9     C11     1.429   .     D
C9     H20     1.081   .     S
C10    C12     1.417   .     S
C10    C65     1.549   .     D
C11    H22     1.080   .     S
C12    C14     1.419   .     D
C12    H80     1.081   .     S
C13    C15     1.421   .     S
C13    C23     1.416   .     S
C14    H82     1.081   .     S
C15    C17     1.424   .     D
C15    H24     1.081   .     S
C17    C19     1.415   .     S
C17    H26     1.082   .     S
C19    C21     1.419   .     S
C19    C25     1.548   .     D
C21    C23     1.423   .     D
C21    H28     1.082   .     S
C23    H30     1.081   .     S
C25    C27     1.424   .     S
C25    C35     1.414   .     S
C27    C29     1.430   .     D
C27    H32     1.082   .     S
C29    C31     1.414   .     S
C29    H34     1.083   .     S
C31    C33     1.414   .     S
C31    C37     1.535   .     D
C33    C35     1.416   .     D
C33    H36     1.083   .     S
C35    H38     1.082   .     S
C37    H40     1.080   .     S
C37    N63     1.322   .     S
C39    C43     1.419   .     S
C39    C51     1.404   .     S
C39    C173    1.549   .     D
C41    C53     1.417   .     S
C41    C61     1.418   .     S
C41    C174    1.566   .     D
H42    C43     1.082   .     S
C43    C45     1.430   .     D
H44    C45     1.081   .     S
C45    C47     1.420   .     S
H46    C49     1.083   .     S
C47    C49     1.408   .     S
C47    N79     1.479   .     D
H48    C51     1.065   .     S
C49    C51     1.416   .     D
H50    C53     1.063   .     S
H52    C55     1.080   .     S
C53    C55     1.419   .     D
H54    C59     1.083   .     S
C55    C57     1.413   .     S
H56    C61     1.080   .     S
C57    C59     1.415   .     S
C57    N63     1.481   .     D
H58    C67     1.082   .     S
C59    C61     1.427   .     D
H60    C69     1.083   1_545 S
H62    C73     1.083   .     S
H64    C75     1.082   .     S
C65    C67     1.423   .     S
C65    C75     1.415   .     S
H66    C77     1.081   .     S
C67    C69     1.430   .     D
H68    C83     1.080   .     S
C69    H60     1.083   1_565 S
C69    C71     1.415   .     S
H70    C84     1.082   .     S
C71    C73     1.412   .     S
C71    C77     1.535   .     D
H72    C86     1.081   .     S
C73    C75     1.416   .     D
C77    N79     1.319   1_565 S
N79    C77     1.319   1_545 S
C81    C83     1.417   .     S
C81    C175    1.554   .     D
C83    C84     1.430   .     D
C84    C85     1.421   .     S
C85    C86     1.415   .     S
C87    C89     1.411   .     D
C87    C97     1.418   .     S
C87    C176    1.561   .     S
C88    H160    1.061   .     S
C88    C167    1.405   .     D
C88    C172    1.416   .     S
C89    C91     1.416   .     S
C89    H102    1.061   .     S
C90    C92     1.419   .     D
C90    C100    1.417   .     S
C90    C171    1.550   .     S
C91    C93     1.413   .     D
C91    H104    1.081   .     S
C92    C94     1.427   .     S
C92    H162    1.082   .     S
C93    C95     1.422   .     S
C93    C99     1.551   .     S
C94    C96     1.419   .     D
C94    H164    1.082   .     S
C95    C97     1.429   .     D
C95    H106    1.081   .     S
C96    C98     1.417   .     S
C96    C151    1.549   .     S
C97    H108    1.080   .     S
C98    C100    1.419   .     D
C98    H166    1.081   .     S
C99    C101    1.421   .     D
C99    C109    1.416   .     S
C100   H168    1.081   .     S
C101   C103    1.424   .     S
C101   H110    1.081   .     S
C103   C105    1.415   .     D
C103   H112    1.082   .     S
C105   C107    1.419   .     S
C105   C111    1.548   .     S
C107   C109    1.423   .     D
C107   H114    1.082   .     S
C109   H116    1.081   .     S
C111   C113    1.424   .     D
C111   C121    1.414   .     S
C113   C115    1.430   .     S
C113   H118    1.082   .     S
C115   C117    1.414   .     D
C115   H120    1.083   .     S
C117   C119    1.414   .     S
C117   C123    1.535   .     S
C119   C121    1.416   .     D
C119   H122    1.083   .     S
C121   H124    1.082   .     S
C123   H126    1.080   .     S
C123   N149    1.322   .     D
C125   C129    1.419   .     D
C125   C137    1.404   .     S
C125   C173    1.549   1_655 S
C127   C139    1.417   .     D
C127   C147    1.418   .     S
C127   C174    1.566   1_655 S
H128   C129    1.082   .     S
C129   C131    1.430   .     S
H130   C131    1.081   .     S
C131   C133    1.420   .     D
H132   C135    1.083   .     S
C133   C135    1.408   .     S
C133   N165    1.479   .     S
H134   C137    1.065   .     S
C135   C137    1.416   .     D
H136   C139    1.063   .     S
H138   C141    1.080   .     S
C139   C141    1.419   .     S
H140   C145    1.083   .     S
C141   C143    1.413   .     D
H142   C147    1.080   .     S
C143   C145    1.415   .     S
C143   N149    1.481   .     S
H144   C153    1.082   .     S
C145   C147    1.427   .     D
H146   C155    1.083   1_545 S
H148   C159    1.083   .     S
H150   C161    1.082   .     S
C151   C153    1.423   .     D
C151   C161    1.415   .     S
H152   C163    1.081   .     S
C153   C155    1.430   .     S
H154   C169    1.080   .     S
C155   H146    1.083   1_565 S
C155   C157    1.415   .     D
H156   C170    1.082   .     S
C157   C159    1.412   .     S
C157   C163    1.535   .     S
H158   C172    1.081   .     S
C159   C161    1.416   .     D
C163   N165    1.319   1_565 D
N165   C163    1.319   1_545 D
C167   C169    1.417   .     S
C167   C175    1.554   .     S
C169   C170    1.430   .     D
C170   C171    1.421   .     S
C171   C172    1.415   .     D
C173   C125    1.549   1_455 S
C173   C174    1.428   .     S
C174   C127    1.566   1_455 S
C175   C176    1.430   .     S
