data_147
_audit_creation_date              2023-09-08
_audit_creation_method            'Materials Studio'
_symmetry_space_group_name_H-M    'P1'
_symmetry_Int_Tables_number       1
_symmetry_cell_setting            triclinic
loop_
_symmetry_equiv_pos_as_xyz
  x,y,z
_cell_length_a                    35.1800
_cell_length_b                    35.1800
_cell_length_c                    3.3900
_cell_angle_alpha                 90.0000
_cell_angle_beta                  90.0000
_cell_angle_gamma                 120.0000
loop_
_atom_site_label
_atom_site_type_symbol
_atom_site_fract_x
_atom_site_fract_y
_atom_site_fract_z
_atom_site_U_iso_or_equiv
_atom_site_adp_type
_atom_site_occupancy
C1     C     0.28870   0.64685   0.20299   0.00000  Uiso   1.00
N2     N     0.30904   0.62294   0.19997   0.00000  Uiso   1.00
C3     C     0.24297   0.62640   0.25225   0.00000  Uiso   1.00
C4     C     0.34849   0.57104   0.33765   0.00000  Uiso   1.00
C5     C     0.36908   0.54715   0.44356   0.00000  Uiso   1.00
C6     C     0.41514   0.56883   0.46234   0.00000  Uiso   1.00
C7     C     0.44063   0.61297   0.34968   0.00000  Uiso   1.00
C8     C     0.41999   0.63678   0.24614   0.00000  Uiso   1.00
N9     N     0.43836   0.55087   0.59285   0.00000  Uiso   1.00
C10    C     0.42841   0.51326   0.77493   0.00000  Uiso   1.00
C11    C     0.46400   0.50732   0.86839   0.00000  Uiso   1.00
C12    C     0.45671   0.46436   0.90836   0.00000  Uiso   1.00
C13    C     0.49265   0.45683   0.91405   0.00000  Uiso   1.00
H14    H     0.31488   0.55502   0.33370   0.00000  Uiso   1.00
H15    H     0.35055   0.51461   0.51246   0.00000  Uiso   1.00
H16    H     0.47430   0.62793   0.34972   0.00000  Uiso   1.00
H17    H     0.43929   0.66920   0.17314   0.00000  Uiso   1.00
H18    H     0.39647   0.48977   0.83224   0.00000  Uiso   1.00
F19    F     0.58393   0.56739   0.93745   0.00000  Uiso   1.00
F20    F     0.48613   0.41715   0.96698   0.00000  Uiso   1.00
C21    C     0.35315   0.64185   0.20299   0.00000  Uiso   1.00
N22    N     0.37706   0.68609   0.19997   0.00000  Uiso   1.00
C23    C     0.37360   0.61657   0.25225   0.00000  Uiso   1.00
C24    C     0.42896   0.77745   0.33765   0.00000  Uiso   1.00
C25    C     0.45285   0.82193   0.44356   0.00000  Uiso   1.00
C26    C     0.43117   0.84631   0.46234   0.00000  Uiso   1.00
C27    C     0.38703   0.82766   0.34968   0.00000  Uiso   1.00
C28    C     0.36322   0.78321   0.24614   0.00000  Uiso   1.00
N29    N     0.44913   0.88749   0.59285   0.00000  Uiso   1.00
C30    C     0.48673   0.91515   0.77493   0.00000  Uiso   1.00
C31    C     0.49268   0.95668   0.86839   0.00000  Uiso   1.00
C32    C     0.53564   0.99235   0.90836   0.00000  Uiso   1.00
C33    C     0.54317   0.03582   0.91405   0.00000  Uiso   1.00
H34    H     0.44498   0.75986   0.33370   0.00000  Uiso   1.00
H35    H     0.48539   0.83594   0.51246   0.00000  Uiso   1.00
H36    H     0.37207   0.84637   0.34972   0.00000  Uiso   1.00
H37    H     0.33080   0.77010   0.17314   0.00000  Uiso   1.00
H38    H     0.51023   0.90669   0.83224   0.00000  Uiso   1.00
F39    F     0.43261   0.01654   0.93745   0.00000  Uiso   1.00
F40    F     0.58285   0.06899   0.96698   0.00000  Uiso   1.00
C41    C     0.35816   0.71130   0.20299   0.00000  Uiso   1.00
N42    N     0.31391   0.69096   0.19997   0.00000  Uiso   1.00
C43    C     0.38343   0.75703   0.25225   0.00000  Uiso   1.00
C44    C     0.22255   0.65151   0.33765   0.00000  Uiso   1.00
C45    C     0.17807   0.63092   0.44356   0.00000  Uiso   1.00
C46    C     0.15369   0.58486   0.46234   0.00000  Uiso   1.00
C47    C     0.17234   0.55937   0.34968   0.00000  Uiso   1.00
C48    C     0.21679   0.58001   0.24614   0.00000  Uiso   1.00
N49    N     0.11250   0.56164   0.59285   0.00000  Uiso   1.00
C50    C     0.08485   0.57159   0.77493   0.00000  Uiso   1.00
C51    C     0.04332   0.53600   0.86839   0.00000  Uiso   1.00
C52    C     0.00765   0.54329   0.90836   0.00000  Uiso   1.00
C53    C     0.96418   0.50735   0.91405   0.00000  Uiso   1.00
H54    H     0.24014   0.68512   0.33370   0.00000  Uiso   1.00
H55    H     0.16406   0.64945   0.51246   0.00000  Uiso   1.00
H56    H     0.15363   0.52570   0.34972   0.00000  Uiso   1.00
H57    H     0.22990   0.56071   0.17314   0.00000  Uiso   1.00
H58    H     0.09331   0.60353   0.83224   0.00000  Uiso   1.00
F59    F     0.98346   0.41607   0.93745   0.00000  Uiso   1.00
F60    F     0.93102   0.51387   0.96698   0.00000  Uiso   1.00
C61    C     0.71130   0.35315   0.20299   0.00000  Uiso   1.00
N62    N     0.69096   0.37706   0.19997   0.00000  Uiso   1.00
C63    C     0.75703   0.37360   0.25225   0.00000  Uiso   1.00
C64    C     0.65151   0.42896   0.33765   0.00000  Uiso   1.00
C65    C     0.63092   0.45285   0.44356   0.00000  Uiso   1.00
C66    C     0.58486   0.43117   0.46234   0.00000  Uiso   1.00
C67    C     0.55937   0.38703   0.34968   0.00000  Uiso   1.00
C68    C     0.58001   0.36322   0.24614   0.00000  Uiso   1.00
N69    N     0.56164   0.44913   0.59285   0.00000  Uiso   1.00
C70    C     0.57159   0.48673   0.77493   0.00000  Uiso   1.00
C71    C     0.53600   0.49268   0.86839   0.00000  Uiso   1.00
C72    C     0.54329   0.53564   0.90836   0.00000  Uiso   1.00
C73    C     0.50735   0.54317   0.91405   0.00000  Uiso   1.00
H74    H     0.68512   0.44498   0.33370   0.00000  Uiso   1.00
H75    H     0.64945   0.48539   0.51246   0.00000  Uiso   1.00
H76    H     0.52570   0.37207   0.34972   0.00000  Uiso   1.00
H77    H     0.56071   0.33080   0.17314   0.00000  Uiso   1.00
H78    H     0.60353   0.51023   0.83224   0.00000  Uiso   1.00
F79    F     0.41607   0.43261   0.93745   0.00000  Uiso   1.00
F80    F     0.51387   0.58285   0.96698   0.00000  Uiso   1.00
C81    C     0.64685   0.35815   0.20299   0.00000  Uiso   1.00
N82    N     0.62294   0.31391   0.19997   0.00000  Uiso   1.00
C83    C     0.62640   0.38343   0.25225   0.00000  Uiso   1.00
C84    C     0.57104   0.22255   0.33765   0.00000  Uiso   1.00
C85    C     0.54715   0.17807   0.44356   0.00000  Uiso   1.00
C86    C     0.56883   0.15369   0.46234   0.00000  Uiso   1.00
C87    C     0.61297   0.17234   0.34968   0.00000  Uiso   1.00
C88    C     0.63678   0.21679   0.24614   0.00000  Uiso   1.00
N89    N     0.55087   0.11250   0.59285   0.00000  Uiso   1.00
C90    C     0.51326   0.08485   0.77493   0.00000  Uiso   1.00
C91    C     0.50732   0.04332   0.86839   0.00000  Uiso   1.00
C92    C     0.46436   0.00765   0.90836   0.00000  Uiso   1.00
C93    C     0.45683   0.96418   0.91405   0.00000  Uiso   1.00
H94    H     0.55502   0.24014   0.33370   0.00000  Uiso   1.00
H95    H     0.51461   0.16406   0.51246   0.00000  Uiso   1.00
H96    H     0.62793   0.15363   0.34972   0.00000  Uiso   1.00
H97    H     0.66920   0.22990   0.17314   0.00000  Uiso   1.00
H98    H     0.48977   0.09331   0.83224   0.00000  Uiso   1.00
F99    F     0.56739   0.98346   0.93745   0.00000  Uiso   1.00
F100   F     0.41715   0.93102   0.96698   0.00000  Uiso   1.00
C101   C     0.64185   0.28870   0.20299   0.00000  Uiso   1.00
N102   N     0.68609   0.30904   0.19997   0.00000  Uiso   1.00
C103   C     0.61657   0.24297   0.25225   0.00000  Uiso   1.00
C104   C     0.77745   0.34849   0.33765   0.00000  Uiso   1.00
C105   C     0.82193   0.36908   0.44356   0.00000  Uiso   1.00
C106   C     0.84631   0.41514   0.46234   0.00000  Uiso   1.00
C107   C     0.82766   0.44063   0.34968   0.00000  Uiso   1.00
C108   C     0.78321   0.41999   0.24614   0.00000  Uiso   1.00
N109   N     0.88750   0.43836   0.59285   0.00000  Uiso   1.00
C110   C     0.91515   0.42841   0.77493   0.00000  Uiso   1.00
C111   C     0.95668   0.46400   0.86839   0.00000  Uiso   1.00
C112   C     0.99235   0.45671   0.90836   0.00000  Uiso   1.00
C113   C     0.03582   0.49265   0.91405   0.00000  Uiso   1.00
H114   H     0.75986   0.31488   0.33370   0.00000  Uiso   1.00
H115   H     0.83594   0.35055   0.51246   0.00000  Uiso   1.00
H116   H     0.84637   0.47430   0.34972   0.00000  Uiso   1.00
H117   H     0.77010   0.43929   0.17314   0.00000  Uiso   1.00
H118   H     0.90669   0.39647   0.83224   0.00000  Uiso   1.00
F119   F     0.01654   0.58393   0.93745   0.00000  Uiso   1.00
F120   F     0.06899   0.48613   0.96698   0.00000  Uiso   1.00
loop_
_geom_bond_atom_site_label_1
_geom_bond_atom_site_label_2
_geom_bond_distance
_geom_bond_site_symmetry_2
_ccdc_geom_bond_type
C1     N2      1.350   .     S
C1     C3      1.406   .     S
C1     N42     1.349   .     D
N2     C21     1.349   .     D
C3     C44     1.420   .     S
C3     C48     1.417   .     D
C4     C5      1.403   .     D
C4     H14     1.024   .     S
C4     C23     1.420   .     S
C5     C6      1.406   .     S
C5     H15     1.022   .     S
C6     C7      1.403   .     D
C6     N9      1.334   .     S
C7     C8      1.400   .     S
C7     H16     1.028   .     S
C8     H17     1.024   .     S
C8     C23     1.417   .     D
N9     C10     1.338   .     D
C10    C11     1.405   .     S
C10    H18     1.027   .     S
C11    C12     1.407   .     D
C11    C73     1.420   .     S
C12    C13     1.416   .     S
C12    F79     1.306   .     S
C13    F20     1.309   .     S
C13    C71     1.420   .     D
F19    C72     1.306   .     S
C21    N22     1.350   .     S
C21    C23     1.406   .     S
N22    C41     1.349   .     D
C24    C25     1.403   .     D
C24    H34     1.024   .     S
C24    C43     1.420   .     S
C25    C26     1.406   .     S
C25    H35     1.022   .     S
C26    C27     1.403   .     D
C26    N29     1.334   .     S
C27    C28     1.400   .     S
C27    H36     1.028   .     S
C28    H37     1.024   .     S
C28    C43     1.417   .     D
N29    C30     1.338   .     D
C30    C31     1.405   .     S
C30    H38     1.027   .     S
C31    C32     1.407   .     D
C31    C93     1.420   .     S
C32    C33     1.416   1_565 S
C32    F99     1.306   .     S
C33    C32     1.416   1_545 S
C33    F40     1.309   .     S
C33    C91     1.420   .     D
F39    C92     1.306   .     S
C41    N42     1.350   .     S
C41    C43     1.406   .     S
C44    C45     1.403   .     D
C44    H54     1.024   .     S
C45    C46     1.406   .     S
C45    H55     1.022   .     S
C46    C47     1.403   .     D
C46    N49     1.334   .     S
C47    C48     1.400   .     S
C47    H56     1.028   .     S
C48    H57     1.024   .     S
N49    C50     1.338   .     D
C50    C51     1.405   .     S
C50    H58     1.027   .     S
C51    C52     1.407   .     S
C51    C113    1.420   .     D
C52    C53     1.416   1_455 D
C52    F119    1.306   .     S
C53    C52     1.416   1_655 D
C53    F60     1.309   .     S
C53    C111    1.420   .     S
F59    C112    1.306   .     S
C61    N62     1.350   .     S
C61    C63     1.406   .     S
C61    N102    1.349   .     D
N62    C81     1.349   .     D
C63    C104    1.420   .     S
C63    C108    1.417   .     D
C64    C65     1.403   .     D
C64    H74     1.024   .     S
C64    C83     1.420   .     S
C65    C66     1.406   .     S
C65    H75     1.022   .     S
C66    C67     1.403   .     D
C66    N69     1.334   .     S
C67    C68     1.400   .     S
C67    H76     1.028   .     S
C68    H77     1.024   .     S
C68    C83     1.417   .     D
N69    C70     1.338   .     D
C70    C71     1.405   .     S
C70    H78     1.027   .     S
C71    C72     1.407   .     S
C72    C73     1.416   .     D
C73    F80     1.309   .     S
C81    N82     1.350   .     S
C81    C83     1.406   .     S
N82    C101    1.349   .     D
C84    C85     1.403   .     S
C84    H94     1.024   .     S
C84    C103    1.420   .     D
C85    C86     1.406   .     D
C85    H95     1.022   .     S
C86    C87     1.403   .     S
C86    N89     1.334   .     S
C87    C88     1.400   .     D
C87    H96     1.028   .     S
C88    H97     1.024   .     S
C88    C103    1.417   .     S
N89    C90     1.338   .     D
C90    C91     1.405   .     S
C90    H98     1.027   .     S
C91    C92     1.407   .     S
C92    C93     1.416   1_545 D
C93    C92     1.416   1_565 D
C93    F100    1.309   .     S
C101   N102    1.350   .     S
C101   C103    1.406   .     S
C104   C105    1.403   .     D
C104   H114    1.024   .     S
C105   C106    1.406   .     S
C105   H115    1.022   .     S
C106   C107    1.403   .     D
C106   N109    1.334   .     S
C107   C108    1.400   .     S
C107   H116    1.028   .     S
C108   H117    1.024   .     S
N109   C110    1.338   .     D
C110   C111    1.405   .     S
C110   H118    1.027   .     S
C111   C112    1.407   .     D
C112   C113    1.416   1_655 S
C113   C112    1.416   1_455 S
C113   F120    1.309   .     S
