data_148
_audit_creation_date              2023-09-08
_audit_creation_method            'Materials Studio'
_symmetry_space_group_name_H-M    'P1'
_symmetry_Int_Tables_number       1
_symmetry_cell_setting            triclinic
loop_
_symmetry_equiv_pos_as_xyz
  x,y,z
_cell_length_a                    29.7900
_cell_length_b                    29.7900
_cell_length_c                    4.7200
_cell_angle_alpha                 90.0000
_cell_angle_beta                  90.0000
_cell_angle_gamma                 120.0000
loop_
_atom_site_label
_atom_site_type_symbol
_atom_site_fract_x
_atom_site_fract_y
_atom_site_fract_z
_atom_site_U_iso_or_equiv
_atom_site_adp_type
_atom_site_occupancy
C1     C     0.27161   0.13297   0.71146   0.00000  Uiso   1.00
C2     C     0.29328   0.10221   0.78978   0.00000  Uiso   1.00
C3     C     0.34553   0.11944   0.73345   0.00000  Uiso   1.00
C4     C     0.37658   0.16615   0.59052   0.00000  Uiso   1.00
C5     C     0.35427   0.19504   0.48922   0.00000  Uiso   1.00
C6     C     0.30194   0.17821   0.55388   0.00000  Uiso   1.00
O7     O     0.38507   0.23891   0.32040   0.00000  Uiso   1.00
C8     C     0.36534   0.27219   0.24576   0.00000  Uiso   1.00
C9     C     0.40830   0.32071   0.10329   0.00000  Uiso   1.00
C10    C     0.39208   0.36157   0.04726   0.00000  Uiso   1.00
C11    C     0.43822   0.41262  -0.06501   0.00000  Uiso   1.00
C12    C     0.42417   0.45576  -0.10835   0.00000  Uiso   1.00
C13    C     0.47021   0.50684  -0.21445   0.00000  Uiso   1.00
O14    O     0.26331   0.05489   0.92817   0.00000  Uiso   1.00
C15    C     0.25383   0.00979   0.77370   0.00000  Uiso   1.00
C16    C     0.19524   0.97447   0.73939   0.00000  Uiso   1.00
C17    C     0.18091   0.92098   0.61836   0.00000  Uiso   1.00
C18    C     0.12154   0.88665   0.57912   0.00000  Uiso   1.00
C19    C     0.10543   0.83129   0.47383   0.00000  Uiso   1.00
C20    C     0.04643   0.79658   0.44191   0.00000  Uiso   1.00
C21    C     0.43247   0.18411   0.55118   0.00000  Uiso   1.00
N22    N     0.46921   0.23512   0.58640   0.00000  Uiso   1.00
O23    O     0.44581   0.15252   0.49577   0.00000  Uiso   1.00
N24    N     0.52219   0.25138   0.56368   0.00000  Uiso   1.00
C25    C     0.55751   0.29985   0.58335   0.00000  Uiso   1.00
C26    C     0.61327   0.31650   0.57161   0.00000  Uiso   1.00
C27    C     0.63040   0.28031   0.57112   0.00000  Uiso   1.00
C28    C     0.21667   0.11748   0.77201   0.00000  Uiso   1.00
O29    O     0.19386   0.13080   0.60930   0.00000  Uiso   1.00
N30    N     0.19107   0.08906   1.00448   0.00000  Uiso   1.00
C31    C     0.10862   0.03382   1.19979   0.00000  Uiso   1.00
C32    C     0.05321   0.01681   1.22104   0.00000  Uiso   1.00
C33    C     0.03623   0.05303   1.22287   0.00000  Uiso   1.00
N34    N     0.13847   0.07295   1.04193   0.00000  Uiso   1.00
F35    F     0.37396   0.37132   0.29427   0.00000  Uiso   1.00
F36    F     0.35211   0.34185  -0.14703   0.00000  Uiso   1.00
F37    F     0.45427   0.40232  -0.31797   0.00000  Uiso   1.00
F38    F     0.47902   0.43003   0.12315   0.00000  Uiso   1.00
F39    F     0.38412   0.43936  -0.30032   0.00000  Uiso   1.00
F40    F     0.40758   0.46596   0.14304   0.00000  Uiso   1.00
F41    F     0.49010   0.49911  -0.46022   0.00000  Uiso   1.00
F42    F     0.50914   0.52771  -0.01483   0.00000  Uiso   1.00
F43    F     0.45388   0.54206  -0.26684   0.00000  Uiso   1.00
F44    F     0.19875   0.89700   0.79972   0.00000  Uiso   1.00
F45    F     0.20534   0.92780   0.36126   0.00000  Uiso   1.00
F46    F     0.09712   0.88309   0.83253   0.00000  Uiso   1.00
F47    F     0.10535   0.91054   0.38694   0.00000  Uiso   1.00
F48    F     0.12828   0.83442   0.21607   0.00000  Uiso   1.00
F49    F     0.12243   0.80735   0.66068   0.00000  Uiso   1.00
F50    F     0.03547   0.74970   0.32459   0.00000  Uiso   1.00
F51    F     0.02631   0.81948   0.26876   0.00000  Uiso   1.00
F52    F     0.02258   0.78704   0.70207   0.00000  Uiso   1.00
H53    H     0.36210   0.09643   0.80640   0.00000  Uiso   1.00
H54    H     0.28413   0.20005   0.48214   0.00000  Uiso   1.00
H55    H     0.35291   0.28389   0.43944   0.00000  Uiso   1.00
H56    H     0.33208   0.25188   0.09869   0.00000  Uiso   1.00
H57    H     0.41879   0.30943  -0.09863   0.00000  Uiso   1.00
H58    H     0.44288   0.33729   0.24258   0.00000  Uiso   1.00
H59    H     0.27022   0.98956   0.89550   0.00000  Uiso   1.00
H60    H     0.27237   0.01927   0.56169   0.00000  Uiso   1.00
H61    H     0.18065   0.99407   0.59817   0.00000  Uiso   1.00
H62    H     0.17651   0.96951   0.94830   0.00000  Uiso   1.00
H63    H     0.45802   0.26186   0.64593   0.00000  Uiso   1.00
H64    H     0.54616   0.32889   0.61173   0.00000  Uiso   1.00
H65    H     0.60246   0.23923   0.57463   0.00000  Uiso   1.00
H66    H     0.21009   0.07964   1.15754   0.00000  Uiso   1.00
H67    H     0.12324   0.01063   1.29471   0.00000  Uiso   1.00
H68    H     0.06425   0.09410   1.21748   0.00000  Uiso   1.00
C69    C     0.86703   0.13864   0.71146   0.00000  Uiso   1.00
C70    C     0.89779   0.19107   0.78978   0.00000  Uiso   1.00
C71    C     0.88056   0.22609   0.73345   0.00000  Uiso   1.00
C72    C     0.83385   0.21043   0.59052   0.00000  Uiso   1.00
C73    C     0.80496   0.15923   0.48922   0.00000  Uiso   1.00
C74    C     0.82179   0.12373   0.55388   0.00000  Uiso   1.00
O75    O     0.76109   0.14616   0.32040   0.00000  Uiso   1.00
C76    C     0.72781   0.09315   0.24576   0.00000  Uiso   1.00
C77    C     0.67929   0.08759   0.10329   0.00000  Uiso   1.00
C78    C     0.63843   0.03051   0.04726   0.00000  Uiso   1.00
C79    C     0.58738   0.02560  -0.06501   0.00000  Uiso   1.00
C80    C     0.54424   0.96841  -0.10835   0.00000  Uiso   1.00
C81    C     0.49316   0.96337  -0.21445   0.00000  Uiso   1.00
O82    O     0.94511   0.20842   0.92817   0.00000  Uiso   1.00
C83    C     0.99021   0.24404   0.77370   0.00000  Uiso   1.00
C84    C     0.02553   0.22077   0.73939   0.00000  Uiso   1.00
C85    C     0.07902   0.25993   0.61836   0.00000  Uiso   1.00
C86    C     0.11335   0.23489   0.57912   0.00000  Uiso   1.00
C87    C     0.16871   0.27414   0.47383   0.00000  Uiso   1.00
C88    C     0.20342   0.24985   0.44191   0.00000  Uiso   1.00
C89    C     0.81589   0.24836   0.55118   0.00000  Uiso   1.00
N90    N     0.76488   0.23409   0.58640   0.00000  Uiso   1.00
O91    O     0.84748   0.29329   0.49577   0.00000  Uiso   1.00
N92    N     0.74862   0.27081   0.56368   0.00000  Uiso   1.00
C93    C     0.70015   0.25766   0.58335   0.00000  Uiso   1.00
C94    C     0.68350   0.29677   0.57161   0.00000  Uiso   1.00
C95    C     0.71969   0.35009   0.57112   0.00000  Uiso   1.00
C96    C     0.88252   0.09919   0.77201   0.00000  Uiso   1.00
O97    O     0.86920   0.06306   0.60930   0.00000  Uiso   1.00
N98    N     0.91094   0.10201   1.00448   0.00000  Uiso   1.00
C99    C     0.96618   0.07480   1.19979   0.00000  Uiso   1.00
C100   C     0.98319   0.03640   1.22104   0.00000  Uiso   1.00
C101   C     0.94697   0.98320   1.22287   0.00000  Uiso   1.00
N102   N     0.92705   0.06552   1.04193   0.00000  Uiso   1.00
F103   F     0.62868   0.00264   0.29427   0.00000  Uiso   1.00
F104   F     0.65815   0.01026  -0.14703   0.00000  Uiso   1.00
F105   F     0.59768   0.05195  -0.31797   0.00000  Uiso   1.00
F106   F     0.56997   0.04899   0.12315   0.00000  Uiso   1.00
F107   F     0.56064   0.94476  -0.30032   0.00000  Uiso   1.00
F108   F     0.53404   0.94162   0.14304   0.00000  Uiso   1.00
F109   F     0.50089   0.99099  -0.46022   0.00000  Uiso   1.00
F110   F     0.47229   0.98143  -0.01483   0.00000  Uiso   1.00
F111   F     0.45794   0.91182  -0.26684   0.00000  Uiso   1.00
F112   F     0.10300   0.30175   0.79972   0.00000  Uiso   1.00
F113   F     0.07220   0.27754   0.36126   0.00000  Uiso   1.00
F114   F     0.11691   0.21403   0.83253   0.00000  Uiso   1.00
F115   F     0.08946   0.19481   0.38694   0.00000  Uiso   1.00
F116   F     0.16558   0.29386   0.21607   0.00000  Uiso   1.00
F117   F     0.19265   0.31508   0.66068   0.00000  Uiso   1.00
F118   F     0.25030   0.28577   0.32459   0.00000  Uiso   1.00
F119   F     0.18052   0.20683   0.26876   0.00000  Uiso   1.00
F120   F     0.21296   0.23554   0.70207   0.00000  Uiso   1.00
H121   H     0.90357   0.26567   0.80640   0.00000  Uiso   1.00
H122   H     0.79995   0.08408   0.48214   0.00000  Uiso   1.00
H123   H     0.71611   0.06902   0.43944   0.00000  Uiso   1.00
H124   H     0.74812   0.08020   0.09869   0.00000  Uiso   1.00
H125   H     0.69057   0.10936  -0.09863   0.00000  Uiso   1.00
H126   H     0.66271   0.10559   0.24258   0.00000  Uiso   1.00
H127   H     0.01044   0.28066   0.89550   0.00000  Uiso   1.00
H128   H     0.98073   0.25310   0.56169   0.00000  Uiso   1.00
H129   H     0.00593   0.18658   0.59817   0.00000  Uiso   1.00
H130   H     0.03049   0.20700   0.94830   0.00000  Uiso   1.00
H131   H     0.73814   0.19616   0.64593   0.00000  Uiso   1.00
H132   H     0.67111   0.21727   0.61173   0.00000  Uiso   1.00
H133   H     0.76077   0.36323   0.57463   0.00000  Uiso   1.00
H134   H     0.92036   0.13045   1.15754   0.00000  Uiso   1.00
H135   H     0.98937   0.11261   1.29471   0.00000  Uiso   1.00
H136   H     0.90590   0.97015   1.21748   0.00000  Uiso   1.00
C137   C     0.86136   0.72839   0.71146   0.00000  Uiso   1.00
C138   C     0.80893   0.70672   0.78978   0.00000  Uiso   1.00
C139   C     0.77391   0.65447   0.73345   0.00000  Uiso   1.00
C140   C     0.78957   0.62342   0.59052   0.00000  Uiso   1.00
C141   C     0.84077   0.64573   0.48922   0.00000  Uiso   1.00
C142   C     0.87627   0.69806   0.55388   0.00000  Uiso   1.00
O143   O     0.85384   0.61493   0.32040   0.00000  Uiso   1.00
C144   C     0.90685   0.63466   0.24576   0.00000  Uiso   1.00
C145   C     0.91241   0.59170   0.10329   0.00000  Uiso   1.00
C146   C     0.96949   0.60792   0.04726   0.00000  Uiso   1.00
C147   C     0.97440   0.56178  -0.06501   0.00000  Uiso   1.00
C148   C     0.03159   0.57583  -0.10835   0.00000  Uiso   1.00
C149   C     0.03663   0.52979  -0.21445   0.00000  Uiso   1.00
O150   O     0.79158   0.73669   0.92817   0.00000  Uiso   1.00
C151   C     0.75596   0.74617   0.77370   0.00000  Uiso   1.00
C152   C     0.77923   0.80476   0.73939   0.00000  Uiso   1.00
C153   C     0.74007   0.81909   0.61836   0.00000  Uiso   1.00
C154   C     0.76511   0.87846   0.57912   0.00000  Uiso   1.00
C155   C     0.72586   0.89457   0.47383   0.00000  Uiso   1.00
C156   C     0.75015   0.95357   0.44191   0.00000  Uiso   1.00
C157   C     0.75164   0.56753   0.55118   0.00000  Uiso   1.00
N158   N     0.76591   0.53079   0.58640   0.00000  Uiso   1.00
O159   O     0.70671   0.55419   0.49577   0.00000  Uiso   1.00
N160   N     0.72919   0.47781   0.56368   0.00000  Uiso   1.00
C161   C     0.74234   0.44249   0.58335   0.00000  Uiso   1.00
C162   C     0.70323   0.38673   0.57161   0.00000  Uiso   1.00
C163   C     0.64991   0.36960   0.57112   0.00000  Uiso   1.00
C164   C     0.90081   0.78333   0.77201   0.00000  Uiso   1.00
O165   O     0.93694   0.80614   0.60930   0.00000  Uiso   1.00
N166   N     0.89799   0.80893   1.00448   0.00000  Uiso   1.00
C167   C     0.92520   0.89138   1.19979   0.00000  Uiso   1.00
C168   C     0.96360   0.94679   1.22104   0.00000  Uiso   1.00
C169   C     0.01680   0.96377   1.22287   0.00000  Uiso   1.00
N170   N     0.93448   0.86153   1.04193   0.00000  Uiso   1.00
F171   F     0.99736   0.62604   0.29427   0.00000  Uiso   1.00
F172   F     0.98974   0.64789  -0.14703   0.00000  Uiso   1.00
F173   F     0.94805   0.54573  -0.31797   0.00000  Uiso   1.00
F174   F     0.95101   0.52098   0.12315   0.00000  Uiso   1.00
F175   F     0.05524   0.61588  -0.30032   0.00000  Uiso   1.00
F176   F     0.05838   0.59242   0.14304   0.00000  Uiso   1.00
F177   F     0.00901   0.50990  -0.46022   0.00000  Uiso   1.00
F178   F     0.01857   0.49086  -0.01483   0.00000  Uiso   1.00
F179   F     0.08818   0.54612  -0.26684   0.00000  Uiso   1.00
F180   F     0.69825   0.80125   0.79972   0.00000  Uiso   1.00
F181   F     0.72246   0.79466   0.36126   0.00000  Uiso   1.00
F182   F     0.78597   0.90288   0.83253   0.00000  Uiso   1.00
F183   F     0.80519   0.89465   0.38694   0.00000  Uiso   1.00
F184   F     0.70614   0.87172   0.21607   0.00000  Uiso   1.00
F185   F     0.68492   0.87757   0.66068   0.00000  Uiso   1.00
F186   F     0.71423   0.96453   0.32459   0.00000  Uiso   1.00
F187   F     0.79317   0.97369   0.26876   0.00000  Uiso   1.00
F188   F     0.76446   0.97742   0.70207   0.00000  Uiso   1.00
H189   H     0.73433   0.63790   0.80640   0.00000  Uiso   1.00
H190   H     0.91592   0.71587   0.48214   0.00000  Uiso   1.00
H191   H     0.93098   0.64709   0.43944   0.00000  Uiso   1.00
H192   H     0.91980   0.66792   0.09869   0.00000  Uiso   1.00
H193   H     0.89064   0.58121  -0.09863   0.00000  Uiso   1.00
H194   H     0.89441   0.55712   0.24258   0.00000  Uiso   1.00
H195   H     0.71934   0.72978   0.89550   0.00000  Uiso   1.00
H196   H     0.74690   0.72763   0.56169   0.00000  Uiso   1.00
H197   H     0.81342   0.81935   0.59817   0.00000  Uiso   1.00
H198   H     0.79300   0.82349   0.94830   0.00000  Uiso   1.00
H199   H     0.80384   0.54198   0.64593   0.00000  Uiso   1.00
H200   H     0.78273   0.45384   0.61173   0.00000  Uiso   1.00
H201   H     0.63677   0.39754   0.57463   0.00000  Uiso   1.00
H202   H     0.86955   0.78991   1.15754   0.00000  Uiso   1.00
H203   H     0.88739   0.87676   1.29471   0.00000  Uiso   1.00
H204   H     0.02985   0.93575   1.21748   0.00000  Uiso   1.00
loop_
_geom_bond_atom_site_label_1
_geom_bond_atom_site_label_2
_geom_bond_distance
_geom_bond_site_symmetry_2
_ccdc_geom_bond_type
C1     C2      1.409   .     S
C1     C6      1.403   .     D
C1     C28     1.489   .     S
C2     C3      1.399   .     D
C2     O14     1.397   .     S
C3     C4      1.400   .     S
C3     H53     1.082   .     S
C4     C5      1.408   .     D
C4     C21     1.484   .     S
C5     C6      1.412   .     S
C5     O7      1.409   .     S
C6     H54     1.079   .     S
O7     C8      1.427   .     S
C8     C9      1.526   .     S
C8     H55     1.106   .     S
C8     H56     1.109   .     S
C9     C10     1.541   .     S
C9     H57     1.106   .     S
C9     H58     1.108   .     S
C10    C11     1.547   .     S
C10    F35     1.375   .     S
C10    F36     1.380   .     S
C11    C12     1.551   .     S
C11    F37     1.377   .     S
C11    F38     1.380   .     S
C12    C13     1.536   .     S
C12    F39     1.379   .     S
C12    F40     1.376   .     S
C13    F41     1.373   .     S
C13    F42     1.378   .     S
C13    F43     1.382   .     S
O14    C15     1.427   .     S
C15    C16     1.531   1_545 S
C15    H59     1.107   1_545 S
C15    H60     1.109   .     S
C16    C15     1.531   1_565 S
C16    C17     1.539   .     S
C16    H61     1.108   .     S
C16    H62     1.106   .     S
C17    C18     1.549   .     S
C17    F44     1.380   .     S
C17    F45     1.377   .     S
C18    C19     1.551   .     S
C18    F46     1.376   .     S
C18    F47     1.380   .     S
C19    C20     1.537   .     S
C19    F48     1.374   .     S
C19    F49     1.380   .     S
C20    F50     1.381   .     S
C20    F51     1.379   .     S
C20    F52     1.375   .     S
C21    N22     1.368   .     S
C21    O23     1.219   .     D
N22    N24     1.404   .     S
N22    H63     1.044   .     S
N24    C25     1.297   .     D
C25    C26     1.478   .     S
C25    H64     1.083   .     S
C26    C27     1.405   .     S
C26    C163    1.403   .     D
C27    H65     1.083   .     S
C27    C94     1.403   .     D
C28    O29     1.216   .     D
C28    N30     1.363   .     S
N30    N34     1.402   .     S
N30    H66     1.040   .     S
C31    C32     1.468   .     S
C31    N34     1.292   .     D
C31    H67     1.081   .     S
C32    C33     1.402   .     S
C32    C169    1.400   1_545 D
C33    H68     1.083   .     S
C33    C100    1.400   1_455 D
H59    C15     1.107   1_565 S
C69    C70     1.409   .     S
C69    C74     1.403   .     D
C69    C96     1.489   .     S
C70    C71     1.399   .     D
C70    O82     1.397   .     S
C71    C72     1.400   .     S
C71    H121    1.082   .     S
C72    C73     1.408   .     D
C72    C89     1.484   .     S
C73    C74     1.412   .     S
C73    O75     1.409   .     S
C74    H122    1.079   .     S
O75    C76     1.427   .     S
C76    C77     1.526   .     S
C76    H123    1.106   .     S
C76    H124    1.109   .     S
C77    C78     1.541   .     S
C77    H125    1.106   .     S
C77    H126    1.108   .     S
C78    C79     1.547   .     S
C78    F103    1.375   .     S
C78    F104    1.380   .     S
C79    C80     1.551   1_545 S
C79    F105    1.377   .     S
C79    F106    1.380   .     S
C80    C79     1.551   1_565 S
C80    C81     1.536   .     S
C80    F107    1.379   .     S
C80    F108    1.376   .     S
C81    F109    1.373   .     S
C81    F110    1.378   .     S
C81    F111    1.382   .     S
O82    C83     1.427   .     S
C83    C84     1.531   1_655 S
C83    H127    1.107   1_655 S
C83    H128    1.109   .     S
C84    C83     1.531   1_455 S
C84    C85     1.539   .     S
C84    H129    1.108   .     S
C84    H130    1.106   .     S
C85    C86     1.549   .     S
C85    F112    1.380   .     S
C85    F113    1.377   .     S
C86    C87     1.551   .     S
C86    F114    1.376   .     S
C86    F115    1.380   .     S
C87    C88     1.537   .     S
C87    F116    1.374   .     S
C87    F117    1.380   .     S
C88    F118    1.381   .     S
C88    F119    1.379   .     S
C88    F120    1.375   .     S
C89    N90     1.368   .     S
C89    O91     1.219   .     D
N90    N92     1.404   .     S
N90    H131    1.044   .     S
N92    C93     1.297   .     D
C93    C94     1.478   .     S
C93    H132    1.083   .     S
C94    C95     1.405   .     S
C95    H133    1.083   .     S
C95    C162    1.403   .     D
C96    O97     1.216   .     D
C96    N98     1.363   .     S
N98    N102    1.402   .     S
N98    H134    1.040   .     S
C99    C100    1.468   .     S
C99    N102    1.292   .     D
C99    H135    1.081   .     S
C100   C33     1.400   1_655 D
C100   C101    1.402   1_545 S
C101   C100    1.402   1_565 S
C101   H136    1.083   .     S
C101   C168    1.400   .     D
H127   C83     1.107   1_455 S
C137   C138    1.409   .     S
C137   C142    1.403   .     D
C137   C164    1.489   .     S
C138   C139    1.399   .     D
C138   O150    1.397   .     S
C139   C140    1.400   .     S
C139   H189    1.082   .     S
C140   C141    1.408   .     D
C140   C157    1.484   .     S
C141   C142    1.412   .     S
C141   O143    1.409   .     S
C142   H190    1.079   .     S
O143   C144    1.427   .     S
C144   C145    1.526   .     S
C144   H191    1.106   .     S
C144   H192    1.109   .     S
C145   C146    1.541   .     S
C145   H193    1.106   .     S
C145   H194    1.108   .     S
C146   C147    1.547   .     S
C146   F171    1.375   .     S
C146   F172    1.380   .     S
C147   C148    1.551   1_655 S
C147   F173    1.377   .     S
C147   F174    1.380   .     S
C148   C147    1.551   1_455 S
C148   C149    1.536   .     S
C148   F175    1.379   .     S
C148   F176    1.376   .     S
C149   F177    1.373   .     S
C149   F178    1.378   .     S
C149   F179    1.382   .     S
O150   C151    1.427   .     S
C151   C152    1.531   .     S
C151   H195    1.107   .     S
C151   H196    1.109   .     S
C152   C153    1.539   .     S
C152   H197    1.108   .     S
C152   H198    1.106   .     S
C153   C154    1.549   .     S
C153   F180    1.380   .     S
C153   F181    1.377   .     S
C154   C155    1.551   .     S
C154   F182    1.376   .     S
C154   F183    1.380   .     S
C155   C156    1.537   .     S
C155   F184    1.374   .     S
C155   F185    1.380   .     S
C156   F186    1.381   .     S
C156   F187    1.379   .     S
C156   F188    1.375   .     S
C157   N158    1.368   .     S
C157   O159    1.219   .     D
N158   N160    1.404   .     S
N158   H199    1.044   .     S
N160   C161    1.297   .     D
C161   C162    1.478   .     S
C161   H200    1.083   .     S
C162   C163    1.405   .     S
C163   H201    1.083   .     S
C164   O165    1.216   .     D
C164   N166    1.363   .     S
N166   N170    1.402   .     S
N166   H202    1.040   .     S
C167   C168    1.468   .     S
C167   N170    1.292   .     D
C167   H203    1.081   .     S
C168   C169    1.402   1_655 S
C169   C32     1.400   1_565 D
C169   C168    1.402   1_455 S
C169   H204    1.083   .     S
