data_149
_audit_creation_date              2023-09-08
_audit_creation_method            'Materials Studio'
_symmetry_space_group_name_H-M    'P1'
_symmetry_Int_Tables_number       1
_symmetry_cell_setting            triclinic
loop_
_symmetry_equiv_pos_as_xyz
  x,y,z
_cell_length_a                    43.1500
_cell_length_b                    43.1500
_cell_length_c                    3.6500
_cell_angle_alpha                 90.0000
_cell_angle_beta                  90.0000
_cell_angle_gamma                 120.0000
loop_
_atom_site_label
_atom_site_type_symbol
_atom_site_fract_x
_atom_site_fract_y
_atom_site_fract_z
_atom_site_U_iso_or_equiv
_atom_site_adp_type
_atom_site_occupancy
C1     C     0.72294   0.18505   0.15574   0.00000  Uiso   1.00
N2     N     0.75336   0.19036   0.02924   0.00000  Uiso   1.00
C3     C     0.78638   0.22384   0.01755   0.00000  Uiso   1.00
C4     C     0.81776   0.22325  -0.06373   0.00000  Uiso   1.00
C5     C     0.85073   0.25495  -0.07763   0.00000  Uiso   1.00
C6     C     0.82122   0.28864   0.06418   0.00000  Uiso   1.00
C7     C     0.78828   0.25698   0.07774   0.00000  Uiso   1.00
C8     C     0.96019   0.52050   0.12638   0.00000  Uiso   1.00
C9     C     0.93427   0.48863  -0.04267   0.00000  Uiso   1.00
C10    C     0.93826   0.45864  -0.07239   0.00000  Uiso   1.00
C11    C     0.96885   0.45916   0.06405   0.00000  Uiso   1.00
C12    C     0.99479   0.49029   0.23934   0.00000  Uiso   1.00
C13    C     0.99025   0.52003   0.27336   0.00000  Uiso   1.00
C14    C     0.97402   0.42789   0.00814   0.00000  Uiso   1.00
C15    C     0.94447   0.39304   0.00683   0.00000  Uiso   1.00
C16    C     0.94858   0.36357  -0.07639   0.00000  Uiso   1.00
C17    C     0.98273   0.36898  -0.15107   0.00000  Uiso   1.00
C18    C     0.01301   0.40342  -0.13502   0.00000  Uiso   1.00
C19    C     0.00825   0.43272  -0.05799   0.00000  Uiso   1.00
C20    C     0.04952   0.40860  -0.18817   0.00000  Uiso   1.00
C21    C     0.91747   0.32700  -0.08609   0.00000  Uiso   1.00
C22    C     0.05740   0.38229  -0.06915   0.00000  Uiso   1.00
C23    C     0.09189   0.38756  -0.10242   0.00000  Uiso   1.00
C24    C     0.11953   0.41953  -0.25051   0.00000  Uiso   1.00
C25    C     0.11183   0.44571  -0.37320   0.00000  Uiso   1.00
C26    C     0.07715   0.44026  -0.34453   0.00000  Uiso   1.00
N27    N     0.88561   0.32161  -0.01734   0.00000  Uiso   1.00
C28    C     0.85267   0.28804  -0.01189   0.00000  Uiso   1.00
N29    N     0.16387   0.40231  -0.14864   0.00000  Uiso   1.00
C30    C     0.15648   0.42616  -0.27025   0.00000  Uiso   1.00
N31    N     0.44737   0.40374   0.14218   0.00000  Uiso   1.00
C32    C     0.41150   0.40018   0.14706   0.00000  Uiso   1.00
C33    C     0.45106   0.37142   0.14251   0.00000  Uiso   1.00
C34    C     0.40491   0.42632  -0.00926   0.00000  Uiso   1.00
C35    C     0.37095   0.42282  -0.00773   0.00000  Uiso   1.00
C36    C     0.34179   0.39234   0.14198   0.00000  Uiso   1.00
C37    C     0.34749   0.36612   0.29850   0.00000  Uiso   1.00
C38    C     0.38170   0.37032   0.30620   0.00000  Uiso   1.00
C39    C     0.42400   0.33821   0.00358   0.00000  Uiso   1.00
C40    C     0.42715   0.30757   0.00909   0.00000  Uiso   1.00
C41    C     0.45801   0.30896   0.14806   0.00000  Uiso   1.00
C42    C     0.48545   0.34143   0.28148   0.00000  Uiso   1.00
C43    C     0.48193   0.37187   0.28026   0.00000  Uiso   1.00
C44    C     0.30535   0.38709   0.13302   0.00000  Uiso   1.00
N45    N     0.29907   0.41049  -0.02206   0.00000  Uiso   1.00
C46    C     0.26466   0.40779  -0.05743   0.00000  Uiso   1.00
C47    C     0.26339   0.43875  -0.14338   0.00000  Uiso   1.00
C48    C     0.23060   0.43762  -0.17840   0.00000  Uiso   1.00
C49    C     0.19837   0.40507  -0.13217   0.00000  Uiso   1.00
C50    C     0.19967   0.37407  -0.05160   0.00000  Uiso   1.00
C51    C     0.23240   0.37518  -0.01711   0.00000  Uiso   1.00
H52    H     0.72049   0.20661   0.27594   0.00000  Uiso   1.00
H53    H     0.81665   0.19799  -0.11466   0.00000  Uiso   1.00
H54    H     0.87418   0.25305  -0.13911   0.00000  Uiso   1.00
H55    H     0.82228   0.31391   0.11313   0.00000  Uiso   1.00
H56    H     0.76470   0.25890   0.13159   0.00000  Uiso   1.00
H57    H     0.91040   0.48618  -0.15331   0.00000  Uiso   1.00
H58    H     0.91783   0.43553  -0.21720   0.00000  Uiso   1.00
H59    H     0.01848   0.49165   0.35655   0.00000  Uiso   1.00
H60    H     0.01118   0.54283   0.40747   0.00000  Uiso   1.00
H61    H     0.91816   0.38882   0.07157   0.00000  Uiso   1.00
H62    H     0.98558   0.34619  -0.22301   0.00000  Uiso   1.00
H63    H     0.03123   0.45939  -0.05022   0.00000  Uiso   1.00
H64    H     0.92190   0.30510  -0.15097   0.00000  Uiso   1.00
H65    H     0.03728   0.35803   0.06227   0.00000  Uiso   1.00
H66    H     0.09704   0.36692  -0.00287   0.00000  Uiso   1.00
H67    H     0.13265   0.47040  -0.49198   0.00000  Uiso   1.00
H68    H     0.07204   0.46075  -0.44869   0.00000  Uiso   1.00
H69    H     0.17704   0.45111  -0.38585   0.00000  Uiso   1.00
H70    H     0.42571   0.45000  -0.13192   0.00000  Uiso   1.00
H71    H     0.36749   0.44372  -0.13103   0.00000  Uiso   1.00
H72    H     0.32542   0.34231   0.41799   0.00000  Uiso   1.00
H73    H     0.38402   0.34927   0.42958   0.00000  Uiso   1.00
H74    H     0.39953   0.33481  -0.10284   0.00000  Uiso   1.00
H75    H     0.40535   0.28281  -0.09762   0.00000  Uiso   1.00
H76    H     0.50977   0.34334   0.38832   0.00000  Uiso   1.00
H77    H     0.50446   0.39575   0.37752   0.00000  Uiso   1.00
H78    H     0.28409   0.36345   0.26242   0.00000  Uiso   1.00
H79    H     0.28800   0.46396  -0.17842   0.00000  Uiso   1.00
H80    H     0.23085   0.46231  -0.23475   0.00000  Uiso   1.00
H81    H     0.17508   0.34886  -0.01532   0.00000  Uiso   1.00
H82    H     0.23207   0.35041   0.03720   0.00000  Uiso   1.00
C83    C     0.81495   0.53789   0.15574   0.00000  Uiso   1.00
N84    N     0.80964   0.56300   0.02924   0.00000  Uiso   1.00
C85    C     0.77616   0.56254   0.01755   0.00000  Uiso   1.00
C86    C     0.77675   0.59451  -0.06373   0.00000  Uiso   1.00
C87    C     0.74505   0.59578  -0.07763   0.00000  Uiso   1.00
C88    C     0.71136   0.53258   0.06418   0.00000  Uiso   1.00
C89    C     0.74302   0.53130   0.07774   0.00000  Uiso   1.00
C90    C     0.47950   0.43969   0.12638   0.00000  Uiso   1.00
C91    C     0.51137   0.44564  -0.04267   0.00000  Uiso   1.00
C92    C     0.54136   0.47962  -0.07239   0.00000  Uiso   1.00
C93    C     0.54084   0.50969   0.06405   0.00000  Uiso   1.00
C94    C     0.50971   0.50450   0.23934   0.00000  Uiso   1.00
C95    C     0.47997   0.47022   0.27336   0.00000  Uiso   1.00
C96    C     0.57211   0.54613   0.00814   0.00000  Uiso   1.00
C97    C     0.60696   0.55143   0.00683   0.00000  Uiso   1.00
C98    C     0.63643   0.58501  -0.07639   0.00000  Uiso   1.00
C99    C     0.63102   0.61375  -0.15107   0.00000  Uiso   1.00
C100   C     0.59658   0.60959  -0.13502   0.00000  Uiso   1.00
C101   C     0.56728   0.57553  -0.05799   0.00000  Uiso   1.00
C102   C     0.59140   0.64092  -0.18817   0.00000  Uiso   1.00
C103   C     0.67300   0.59047  -0.08609   0.00000  Uiso   1.00
C104   C     0.61771   0.67511  -0.06915   0.00000  Uiso   1.00
C105   C     0.61244   0.70433  -0.10242   0.00000  Uiso   1.00
C106   C     0.58047   0.70000  -0.25051   0.00000  Uiso   1.00
C107   C     0.55429   0.66612  -0.37320   0.00000  Uiso   1.00
C108   C     0.55974   0.63689  -0.34453   0.00000  Uiso   1.00
N109   N     0.67839   0.56400  -0.01734   0.00000  Uiso   1.00
C110   C     0.71196   0.56463  -0.01189   0.00000  Uiso   1.00
N111   N     0.59769   0.76156  -0.14864   0.00000  Uiso   1.00
C112   C     0.57384   0.73032  -0.27025   0.00000  Uiso   1.00
N113   N     0.59626   0.04363   0.14218   0.00000  Uiso   1.00
C114   C     0.59982   0.01132   0.14706   0.00000  Uiso   1.00
C115   C     0.62858   0.07964   0.14251   0.00000  Uiso   1.00
C116   C     0.57368   0.97859  -0.00926   0.00000  Uiso   1.00
C117   C     0.57718   0.94813  -0.00773   0.00000  Uiso   1.00
C118   C     0.60766   0.94945   0.14198   0.00000  Uiso   1.00
C119   C     0.63388   0.98137   0.29850   0.00000  Uiso   1.00
C120   C     0.62968   0.01138   0.30620   0.00000  Uiso   1.00
C121   C     0.66179   0.08579   0.00358   0.00000  Uiso   1.00
C122   C     0.69243   0.11958   0.00909   0.00000  Uiso   1.00
C123   C     0.69104   0.14905   0.14806   0.00000  Uiso   1.00
C124   C     0.65857   0.14402   0.28148   0.00000  Uiso   1.00
C125   C     0.62813   0.11006   0.28026   0.00000  Uiso   1.00
C126   C     0.61291   0.91826   0.13302   0.00000  Uiso   1.00
N127   N     0.58951   0.88858  -0.02206   0.00000  Uiso   1.00
C128   C     0.59221   0.85687  -0.05743   0.00000  Uiso   1.00
C129   C     0.56125   0.82464  -0.14338   0.00000  Uiso   1.00
C130   C     0.56238   0.79298  -0.17840   0.00000  Uiso   1.00
C131   C     0.59493   0.79330  -0.13217   0.00000  Uiso   1.00
C132   C     0.62593   0.82560  -0.05160   0.00000  Uiso   1.00
C133   C     0.62482   0.85722  -0.01711   0.00000  Uiso   1.00
H134   H     0.79339   0.51388   0.27594   0.00000  Uiso   1.00
H135   H     0.80201   0.61866  -0.11466   0.00000  Uiso   1.00
H136   H     0.74695   0.62113  -0.13911   0.00000  Uiso   1.00
H137   H     0.68609   0.50837   0.11313   0.00000  Uiso   1.00
H138   H     0.74110   0.50580   0.13159   0.00000  Uiso   1.00
H139   H     0.51382   0.42422  -0.15331   0.00000  Uiso   1.00
H140   H     0.56447   0.48230  -0.21720   0.00000  Uiso   1.00
H141   H     0.50835   0.52683   0.35655   0.00000  Uiso   1.00
H142   H     0.45717   0.46835   0.40747   0.00000  Uiso   1.00
H143   H     0.61118   0.52934   0.07157   0.00000  Uiso   1.00
H144   H     0.65381   0.63939  -0.22301   0.00000  Uiso   1.00
H145   H     0.54061   0.57184  -0.05022   0.00000  Uiso   1.00
H146   H     0.69490   0.61680  -0.15097   0.00000  Uiso   1.00
H147   H     0.64197   0.67925   0.06227   0.00000  Uiso   1.00
H148   H     0.63308   0.73012  -0.00287   0.00000  Uiso   1.00
H149   H     0.52960   0.66225  -0.49198   0.00000  Uiso   1.00
H150   H     0.53925   0.61129  -0.44869   0.00000  Uiso   1.00
H151   H     0.54889   0.72593  -0.38585   0.00000  Uiso   1.00
H152   H     0.55000   0.97571  -0.13192   0.00000  Uiso   1.00
H153   H     0.55628   0.92377  -0.13103   0.00000  Uiso   1.00
H154   H     0.65769   0.98311   0.41799   0.00000  Uiso   1.00
H155   H     0.65073   0.03475   0.42958   0.00000  Uiso   1.00
H156   H     0.66519   0.06472  -0.10284   0.00000  Uiso   1.00
H157   H     0.71719   0.12254  -0.09762   0.00000  Uiso   1.00
H158   H     0.65666   0.16643   0.38832   0.00000  Uiso   1.00
H159   H     0.60425   0.10871   0.37752   0.00000  Uiso   1.00
H160   H     0.63655   0.92064   0.26242   0.00000  Uiso   1.00
H161   H     0.53604   0.82404  -0.17842   0.00000  Uiso   1.00
H162   H     0.53769   0.76854  -0.23475   0.00000  Uiso   1.00
H163   H     0.65114   0.82622  -0.01532   0.00000  Uiso   1.00
H164   H     0.64959   0.88166   0.03720   0.00000  Uiso   1.00
C165   C     0.46211   0.27706   0.15574   0.00000  Uiso   1.00
N166   N     0.43700   0.24664   0.02924   0.00000  Uiso   1.00
C167   C     0.43746   0.21362   0.01755   0.00000  Uiso   1.00
C168   C     0.40549   0.18224  -0.06373   0.00000  Uiso   1.00
C169   C     0.40422   0.14927  -0.07763   0.00000  Uiso   1.00
C170   C     0.46742   0.17878   0.06418   0.00000  Uiso   1.00
C171   C     0.46870   0.21172   0.07774   0.00000  Uiso   1.00
C172   C     0.56031   0.03981   0.12638   0.00000  Uiso   1.00
C173   C     0.55436   0.06573  -0.04267   0.00000  Uiso   1.00
C174   C     0.52038   0.06174  -0.07239   0.00000  Uiso   1.00
C175   C     0.49031   0.03115   0.06405   0.00000  Uiso   1.00
C176   C     0.49550   0.00521   0.23934   0.00000  Uiso   1.00
C177   C     0.52978   0.00975   0.27336   0.00000  Uiso   1.00
C178   C     0.45387   0.02598   0.00814   0.00000  Uiso   1.00
C179   C     0.44857   0.05553   0.00683   0.00000  Uiso   1.00
C180   C     0.41499   0.05142  -0.07639   0.00000  Uiso   1.00
C181   C     0.38625   0.01727  -0.15107   0.00000  Uiso   1.00
C182   C     0.39041   0.98699  -0.13502   0.00000  Uiso   1.00
C183   C     0.42447   0.99175  -0.05799   0.00000  Uiso   1.00
C184   C     0.35908   0.95048  -0.18817   0.00000  Uiso   1.00
C185   C     0.40953   0.08253  -0.08609   0.00000  Uiso   1.00
C186   C     0.32489   0.94260  -0.06915   0.00000  Uiso   1.00
C187   C     0.29567   0.90811  -0.10242   0.00000  Uiso   1.00
C188   C     0.30000   0.88047  -0.25051   0.00000  Uiso   1.00
C189   C     0.33388   0.88817  -0.37320   0.00000  Uiso   1.00
C190   C     0.36311   0.92285  -0.34453   0.00000  Uiso   1.00
N191   N     0.43600   0.11439  -0.01734   0.00000  Uiso   1.00
C192   C     0.43537   0.14733  -0.01189   0.00000  Uiso   1.00
N193   N     0.23844   0.83613  -0.14864   0.00000  Uiso   1.00
C194   C     0.26968   0.84352  -0.27025   0.00000  Uiso   1.00
N195   N     0.95637   0.55263   0.14218   0.00000  Uiso   1.00
C196   C     0.98868   0.58850   0.14706   0.00000  Uiso   1.00
C197   C     0.92036   0.54894   0.14251   0.00000  Uiso   1.00
C198   C     0.02141   0.59509  -0.00926   0.00000  Uiso   1.00
C199   C     0.05187   0.62905  -0.00773   0.00000  Uiso   1.00
C200   C     0.05055   0.65821   0.14198   0.00000  Uiso   1.00
C201   C     0.01863   0.65251   0.29850   0.00000  Uiso   1.00
C202   C     0.98862   0.61830   0.30620   0.00000  Uiso   1.00
C203   C     0.91421   0.57600   0.00358   0.00000  Uiso   1.00
C204   C     0.88042   0.57285   0.00909   0.00000  Uiso   1.00
C205   C     0.85095   0.54199   0.14806   0.00000  Uiso   1.00
C206   C     0.85598   0.51455   0.28148   0.00000  Uiso   1.00
C207   C     0.88994   0.51807   0.28026   0.00000  Uiso   1.00
C208   C     0.08174   0.69465   0.13302   0.00000  Uiso   1.00
N209   N     0.11142   0.70093  -0.02206   0.00000  Uiso   1.00
C210   C     0.14313   0.73534  -0.05743   0.00000  Uiso   1.00
C211   C     0.17536   0.73661  -0.14338   0.00000  Uiso   1.00
C212   C     0.20702   0.76940  -0.17840   0.00000  Uiso   1.00
C213   C     0.20670   0.80163  -0.13217   0.00000  Uiso   1.00
C214   C     0.17440   0.80033  -0.05160   0.00000  Uiso   1.00
C215   C     0.14278   0.76760  -0.01711   0.00000  Uiso   1.00
H216   H     0.48612   0.27951   0.27594   0.00000  Uiso   1.00
H217   H     0.38134   0.18335  -0.11466   0.00000  Uiso   1.00
H218   H     0.37887   0.12582  -0.13911   0.00000  Uiso   1.00
H219   H     0.49163   0.17772   0.11313   0.00000  Uiso   1.00
H220   H     0.49420   0.23530   0.13159   0.00000  Uiso   1.00
H221   H     0.57578   0.08960  -0.15331   0.00000  Uiso   1.00
H222   H     0.51770   0.08217  -0.21720   0.00000  Uiso   1.00
H223   H     0.47317   0.98152   0.35655   0.00000  Uiso   1.00
H224   H     0.53165   0.98882   0.40747   0.00000  Uiso   1.00
H225   H     0.47066   0.08184   0.07157   0.00000  Uiso   1.00
H226   H     0.36061   0.01442  -0.22301   0.00000  Uiso   1.00
H227   H     0.42816   0.96877  -0.05022   0.00000  Uiso   1.00
H228   H     0.38320   0.07810  -0.15097   0.00000  Uiso   1.00
H229   H     0.32075   0.96272   0.06227   0.00000  Uiso   1.00
H230   H     0.26988   0.90296  -0.00287   0.00000  Uiso   1.00
H231   H     0.33775   0.86735  -0.49198   0.00000  Uiso   1.00
H232   H     0.38871   0.92796  -0.44869   0.00000  Uiso   1.00
H233   H     0.27407   0.82296  -0.38585   0.00000  Uiso   1.00
H234   H     0.02429   0.57429  -0.13192   0.00000  Uiso   1.00
H235   H     0.07623   0.63251  -0.13103   0.00000  Uiso   1.00
H236   H     0.01689   0.67458   0.41799   0.00000  Uiso   1.00
H237   H     0.96525   0.61598   0.42958   0.00000  Uiso   1.00
H238   H     0.93528   0.60047  -0.10284   0.00000  Uiso   1.00
H239   H     0.87746   0.59465  -0.09762   0.00000  Uiso   1.00
H240   H     0.83357   0.49023   0.38832   0.00000  Uiso   1.00
H241   H     0.89129   0.49554   0.37752   0.00000  Uiso   1.00
H242   H     0.07936   0.71591   0.26242   0.00000  Uiso   1.00
H243   H     0.17596   0.71200  -0.17842   0.00000  Uiso   1.00
H244   H     0.23146   0.76915  -0.23475   0.00000  Uiso   1.00
H245   H     0.17378   0.82492  -0.01532   0.00000  Uiso   1.00
H246   H     0.11834   0.76793   0.03720   0.00000  Uiso   1.00
loop_
_geom_bond_atom_site_label_1
_geom_bond_atom_site_label_2
_geom_bond_distance
_geom_bond_site_symmetry_2
_ccdc_geom_bond_type
C1     N2      1.299   .     D
C1     H52     1.081   .     S
C1     C123    1.473   .     S
N2     C3      1.435   .     S
C3     C4      1.399   .     D
C3     C7      1.408   .     S
C4     C5      1.397   .     S
C4     H53     1.083   .     S
C5     C28     1.408   .     D
C5     H54     1.079   .     S
C6     C7      1.395   .     D
C6     C28     1.398   .     S
C6     H55     1.083   .     S
C7     H56     1.079   .     S
C8     C9      1.409   .     D
C8     C13     1.413   .     S
C8     N195    1.477   .     S
C9     C10     1.392   .     S
C9     H57     1.061   .     S
C10    C11     1.400   .     D
C10    H58     1.083   .     S
C11    C12     1.401   .     S
C11    C14     1.488   .     S
C12    C13     1.397   .     D
C12    H59     1.082   1_655 S
C13    H60     1.065   1_655 S
C14    C15     1.403   .     S
C14    C19     1.406   1_655 D
C15    C16     1.402   .     D
C15    H61     1.082   .     S
C16    C17     1.399   .     S
C16    C21     1.475   .     S
C17    C18     1.406   1_655 D
C17    H62     1.083   .     S
C18    C17     1.406   1_455 D
C18    C19     1.407   .     S
C18    C20     1.489   .     S
C19    C14     1.406   1_455 D
C19    H63     1.080   .     S
C20    C22     1.407   .     D
C20    C26     1.409   .     S
C21    N27     1.299   .     D
C21    H64     1.080   .     S
C22    C23     1.394   .     S
C22    H65     1.082   .     S
C23    C24     1.404   .     D
C23    H66     1.083   .     S
C24    C25     1.401   .     S
C24    C30     1.474   .     S
C25    C26     1.398   .     D
C25    H67     1.083   .     S
C26    H68     1.082   .     S
N27    C28     1.435   .     S
N29    C30     1.298   .     D
N29    C49     1.434   .     S
C30    H69     1.081   .     S
N31    C32     1.477   .     S
N31    C33     1.481   .     S
N31    C90     1.477   .     S
C32    C34     1.414   .     D
C32    C38     1.412   .     S
C33    C39     1.414   .     D
C33    C43     1.415   .     S
C34    C35     1.396   .     S
C34    H70     1.064   .     S
C35    C36     1.399   .     D
C35    H71     1.083   .     S
C36    C37     1.395   .     S
C36    C44     1.473   .     S
C37    C38     1.395   .     D
C37    H72     1.084   .     S
C38    H73     1.062   .     S
C39    C40     1.395   .     S
C39    H74     1.064   .     S
C40    C41     1.398   .     D
C40    H75     1.083   .     S
C41    C42     1.394   .     S
C41    C165    1.473   .     S
C42    C43     1.396   .     D
C42    H76     1.083   .     S
C43    H77     1.064   .     S
C44    N45     1.299   .     D
C44    H78     1.081   .     S
N45    C46     1.436   .     S
C46    C47     1.400   .     D
C46    C51     1.407   .     S
C47    C48     1.397   .     S
C47    H79     1.083   .     S
C48    C49     1.408   .     D
C48    H80     1.080   .     S
C49    C50     1.398   .     S
C50    C51     1.395   .     D
C50    H81     1.083   .     S
C51    H82     1.080   .     S
H59    C12     1.082   1_455 S
H60    C13     1.065   1_455 S
C83    N84     1.299   .     D
C83    H134    1.081   .     S
C83    C205    1.473   .     S
N84    C85     1.435   .     S
C85    C86     1.399   .     S
C85    C89     1.408   .     D
C86    C87     1.397   .     D
C86    H135    1.083   .     S
C87    C110    1.408   .     S
C87    H136    1.079   .     S
C88    C89     1.395   .     S
C88    C110    1.398   .     D
C88    H137    1.083   .     S
C89    H138    1.079   .     S
C90    C91     1.409   .     D
C90    C95     1.413   .     S
C91    C92     1.392   .     S
C91    H139    1.061   .     S
C92    C93     1.400   .     D
C92    H140    1.083   .     S
C93    C94     1.401   .     S
C93    C96     1.488   .     S
C94    C95     1.397   .     D
C94    H141    1.082   .     S
C95    H142    1.065   .     S
C96    C97     1.403   .     D
C96    C101    1.406   .     S
C97    C98     1.402   .     S
C97    H143    1.082   .     S
C98    C99     1.399   .     D
C98    C103    1.475   .     S
C99    C100    1.406   .     S
C99    H144    1.083   .     S
C100   C101    1.407   .     D
C100   C102    1.489   .     S
C101   H145    1.080   .     S
C102   C104    1.407   .     D
C102   C108    1.409   .     S
C103   N109    1.299   .     D
C103   H146    1.080   .     S
C104   C105    1.394   .     S
C104   H147    1.082   .     S
C105   C106    1.404   .     D
C105   H148    1.083   .     S
C106   C107    1.401   .     S
C106   C112    1.474   .     S
C107   C108    1.398   .     D
C107   H149    1.083   .     S
C108   H150    1.082   .     S
N109   C110    1.435   .     S
N111   C112    1.298   .     D
N111   C131    1.434   .     S
C112   H151    1.081   .     S
N113   C114    1.477   .     S
N113   C115    1.481   .     S
N113   C172    1.477   .     S
C114   C116    1.414   1_545 D
C114   C120    1.412   .     S
C115   C121    1.414   .     D
C115   C125    1.415   .     S
C116   C114    1.414   1_565 D
C116   C117    1.396   .     S
C116   H152    1.064   .     S
C117   C118    1.399   .     D
C117   H153    1.083   .     S
C118   C119    1.395   .     S
C118   C126    1.473   .     S
C119   C120    1.395   1_565 D
C119   H154    1.084   .     S
C120   C119    1.395   1_545 D
C120   H155    1.062   .     S
C121   C122    1.395   .     S
C121   H156    1.064   .     S
C122   C123    1.398   .     D
C122   H157    1.083   .     S
C123   C124    1.394   .     S
C124   C125    1.396   .     D
C124   H158    1.083   .     S
C125   H159    1.064   .     S
C126   N127    1.299   .     D
C126   H160    1.081   .     S
N127   C128    1.436   .     S
C128   C129    1.400   .     D
C128   C133    1.407   .     S
C129   C130    1.397   .     S
C129   H161    1.083   .     S
C130   C131    1.408   .     D
C130   H162    1.080   .     S
C131   C132    1.398   .     S
C132   C133    1.395   .     D
C132   H163    1.083   .     S
C133   H164    1.080   .     S
C165   N166    1.299   .     D
C165   H216    1.081   .     S
N166   C167    1.435   .     S
C167   C168    1.399   .     D
C167   C171    1.408   .     S
C168   C169    1.397   .     S
C168   H217    1.083   .     S
C169   C192    1.408   .     D
C169   H218    1.079   .     S
C170   C171    1.395   .     D
C170   C192    1.398   .     S
C170   H219    1.083   .     S
C171   H220    1.079   .     S
C172   C173    1.409   .     S
C172   C177    1.413   .     D
C173   C174    1.392   .     D
C173   H221    1.061   .     S
C174   C175    1.400   .     S
C174   H222    1.083   .     S
C175   C176    1.401   .     D
C175   C178    1.488   .     S
C176   C177    1.397   .     S
C176   H223    1.082   1_545 S
C177   H224    1.065   1_545 S
C178   C179    1.403   .     S
C178   C183    1.406   1_545 D
C179   C180    1.402   .     D
C179   H225    1.082   .     S
C180   C181    1.399   .     S
C180   C185    1.475   .     S
C181   C182    1.406   1_545 D
C181   H226    1.083   .     S
C182   C181    1.406   1_565 D
C182   C183    1.407   .     S
C182   C184    1.489   .     S
C183   C178    1.406   1_565 D
C183   H227    1.080   .     S
C184   C186    1.407   .     D
C184   C190    1.409   .     S
C185   N191    1.299   .     D
C185   H228    1.080   .     S
C186   C187    1.394   .     S
C186   H229    1.082   .     S
C187   C188    1.404   .     D
C187   H230    1.083   .     S
C188   C189    1.401   .     S
C188   C194    1.474   .     S
C189   C190    1.398   .     D
C189   H231    1.083   .     S
C190   H232    1.082   .     S
N191   C192    1.435   .     S
N193   C194    1.298   .     D
N193   C213    1.434   .     S
C194   H233    1.081   .     S
N195   C196    1.477   .     S
N195   C197    1.481   .     S
C196   C198    1.414   1_655 D
C196   C202    1.412   .     S
C197   C203    1.414   .     D
C197   C207    1.415   .     S
C198   C196    1.414   1_455 D
C198   C199    1.396   .     S
C198   H234    1.064   .     S
C199   C200    1.399   .     D
C199   H235    1.083   .     S
C200   C201    1.395   .     S
C200   C208    1.473   .     S
C201   C202    1.395   1_455 D
C201   H236    1.084   .     S
C202   C201    1.395   1_655 D
C202   H237    1.062   .     S
C203   C204    1.395   .     S
C203   H238    1.064   .     S
C204   C205    1.398   .     D
C204   H239    1.083   .     S
C205   C206    1.394   .     S
C206   C207    1.396   .     D
C206   H240    1.083   .     S
C207   H241    1.064   .     S
C208   N209    1.299   .     D
C208   H242    1.081   .     S
N209   C210    1.436   .     S
C210   C211    1.400   .     D
C210   C215    1.407   .     S
C211   C212    1.397   .     S
C211   H243    1.083   .     S
C212   C213    1.408   .     D
C212   H244    1.080   .     S
C213   C214    1.398   .     S
C214   C215    1.395   .     D
C214   H245    1.083   .     S
C215   H246    1.080   .     S
H223   C176    1.082   1_565 S
H224   C177    1.065   1_565 S
