data_15
_audit_creation_date              2023-09-08
_audit_creation_method            'Materials Studio'
_symmetry_space_group_name_H-M    'P1'
_symmetry_Int_Tables_number       1
_symmetry_cell_setting            triclinic
loop_
_symmetry_equiv_pos_as_xyz
  x,y,z
_cell_length_a                    23.7733
_cell_length_b                    23.7733
_cell_length_c                    13.4608
_cell_angle_alpha                 90.0000
_cell_angle_beta                  90.0000
_cell_angle_gamma                 90.0000
loop_
_atom_site_label
_atom_site_type_symbol
_atom_site_fract_x
_atom_site_fract_y
_atom_site_fract_z
_atom_site_U_iso_or_equiv
_atom_site_adp_type
_atom_site_occupancy
C1     C     0.44999   0.72186   0.60444   0.00000  Uiso   1.00
C2     C     0.49368   0.71470   0.53114   0.00000  Uiso   1.00
N3     N     0.48480   0.67849   0.43836   0.00000  Uiso   1.00
C4     C     0.54419   0.74429   0.55533   0.00000  Uiso   1.00
C5     C     0.51953   0.66587   0.36154   0.00000  Uiso   1.00
C6     C     0.50962   0.62733   0.26505   0.00000  Uiso   1.00
C7     C     0.55479   0.61762   0.19602   0.00000  Uiso   1.00
C8     C     0.55083   0.58163   0.10850   0.00000  Uiso   1.00
C9     C     0.50060   0.55273   0.07987   0.00000  Uiso   1.00
C10    C     0.45502   0.56281   0.14905   0.00000  Uiso   1.00
C11    C     0.45900   0.59882   0.23726   0.00000  Uiso   1.00
H12    H     0.40814   0.70056   0.59376   0.00000  Uiso   1.00
H13    H     0.58152   0.74192   0.50358   0.00000  Uiso   1.00
H14    H     0.56335   0.68376   0.35959   0.00000  Uiso   1.00
H15    H     0.59669   0.63859   0.20811   0.00000  Uiso   1.00
H16    H     0.58863   0.57526   0.05894   0.00000  Uiso   1.00
H17    H     0.41297   0.54224   0.13652   0.00000  Uiso   1.00
H18    H     0.42000   0.60371   0.28432   0.00000  Uiso   1.00
C19    C     0.94999   0.22186   0.10444   0.00000  Uiso   1.00
C20    C     0.99368   0.21470   0.03114   0.00000  Uiso   1.00
N21    N     0.98480   0.17849   0.93836   0.00000  Uiso   1.00
C22    C     0.04419   0.24429   0.05533   0.00000  Uiso   1.00
C23    C     0.01953   0.16587   0.86154   0.00000  Uiso   1.00
C24    C     0.00962   0.12733   0.76505   0.00000  Uiso   1.00
C25    C     0.05479   0.11762   0.69602   0.00000  Uiso   1.00
C26    C     0.05083   0.08163   0.60850   0.00000  Uiso   1.00
C27    C     0.00060   0.05273   0.57987   0.00000  Uiso   1.00
C28    C     0.95502   0.06281   0.64905   0.00000  Uiso   1.00
C29    C     0.95900   0.09882   0.73726   0.00000  Uiso   1.00
H30    H     0.90814   0.20056   0.09376   0.00000  Uiso   1.00
H31    H     0.08152   0.24192   0.00358   0.00000  Uiso   1.00
H32    H     0.06335   0.18376   0.85959   0.00000  Uiso   1.00
H33    H     0.09669   0.13859   0.70811   0.00000  Uiso   1.00
H34    H     0.08863   0.07526   0.55894   0.00000  Uiso   1.00
H35    H     0.91297   0.04224   0.63652   0.00000  Uiso   1.00
H36    H     0.92000   0.10371   0.78432   0.00000  Uiso   1.00
C37    C     0.05001   0.77814   0.10444   0.00000  Uiso   1.00
C38    C     0.00632   0.78530   0.03114   0.00000  Uiso   1.00
N39    N     0.01520   0.82151   0.93836   0.00000  Uiso   1.00
C40    C     0.95581   0.75571   0.05533   0.00000  Uiso   1.00
C41    C     0.98047   0.83413   0.86154   0.00000  Uiso   1.00
C42    C     0.99038   0.87267   0.76505   0.00000  Uiso   1.00
C43    C     0.94521   0.88238   0.69602   0.00000  Uiso   1.00
C44    C     0.94917   0.91837   0.60850   0.00000  Uiso   1.00
C45    C     0.99940   0.94727   0.57987   0.00000  Uiso   1.00
C46    C     0.04498   0.93719   0.64905   0.00000  Uiso   1.00
C47    C     0.04100   0.90118   0.73726   0.00000  Uiso   1.00
H48    H     0.09186   0.79944   0.09376   0.00000  Uiso   1.00
H49    H     0.91848   0.75808   0.00358   0.00000  Uiso   1.00
H50    H     0.93665   0.81624   0.85959   0.00000  Uiso   1.00
H51    H     0.90331   0.86141   0.70811   0.00000  Uiso   1.00
H52    H     0.91137   0.92474   0.55894   0.00000  Uiso   1.00
H53    H     0.08703   0.95776   0.63652   0.00000  Uiso   1.00
H54    H     0.08000   0.89629   0.78432   0.00000  Uiso   1.00
C55    C     0.55001   0.27814   0.60444   0.00000  Uiso   1.00
C56    C     0.50632   0.28530   0.53114   0.00000  Uiso   1.00
N57    N     0.51520   0.32151   0.43836   0.00000  Uiso   1.00
C58    C     0.45581   0.25571   0.55533   0.00000  Uiso   1.00
C59    C     0.48047   0.33413   0.36154   0.00000  Uiso   1.00
C60    C     0.49038   0.37267   0.26505   0.00000  Uiso   1.00
C61    C     0.44521   0.38238   0.19602   0.00000  Uiso   1.00
C62    C     0.44917   0.41837   0.10850   0.00000  Uiso   1.00
C63    C     0.49940   0.44727   0.07987   0.00000  Uiso   1.00
C64    C     0.54498   0.43719   0.14905   0.00000  Uiso   1.00
C65    C     0.54100   0.40118   0.23726   0.00000  Uiso   1.00
H66    H     0.59186   0.29944   0.59376   0.00000  Uiso   1.00
H67    H     0.41848   0.25808   0.50358   0.00000  Uiso   1.00
H68    H     0.43665   0.31624   0.35959   0.00000  Uiso   1.00
H69    H     0.40331   0.36141   0.20811   0.00000  Uiso   1.00
H70    H     0.41137   0.42474   0.05894   0.00000  Uiso   1.00
H71    H     0.58703   0.45776   0.13652   0.00000  Uiso   1.00
H72    H     0.58000   0.39629   0.28432   0.00000  Uiso   1.00
C73    C     0.27814   0.94999   0.85444   0.00000  Uiso   1.00
C74    C     0.28530   0.99368   0.78114   0.00000  Uiso   1.00
N75    N     0.32151   0.98480   0.68836   0.00000  Uiso   1.00
C76    C     0.25571   0.04419   0.80533   0.00000  Uiso   1.00
C77    C     0.33413   0.01953   0.61154   0.00000  Uiso   1.00
C78    C     0.37267   0.00962   0.51505   0.00000  Uiso   1.00
C79    C     0.38238   0.05479   0.44602   0.00000  Uiso   1.00
C80    C     0.41837   0.05083   0.35850   0.00000  Uiso   1.00
C81    C     0.44727   0.00060   0.32987   0.00000  Uiso   1.00
C82    C     0.43719   0.95502   0.39905   0.00000  Uiso   1.00
C83    C     0.40118   0.95900   0.48726   0.00000  Uiso   1.00
H84    H     0.29944   0.90814   0.84376   0.00000  Uiso   1.00
H85    H     0.25808   0.08152   0.75358   0.00000  Uiso   1.00
H86    H     0.31624   0.06335   0.60959   0.00000  Uiso   1.00
H87    H     0.36141   0.09669   0.45811   0.00000  Uiso   1.00
H88    H     0.42474   0.08863   0.30894   0.00000  Uiso   1.00
H89    H     0.45776   0.91297   0.38652   0.00000  Uiso   1.00
H90    H     0.39629   0.92000   0.53432   0.00000  Uiso   1.00
C91    C     0.77814   0.44999   0.35444   0.00000  Uiso   1.00
C92    C     0.78530   0.49368   0.28114   0.00000  Uiso   1.00
N93    N     0.82151   0.48480   0.18836   0.00000  Uiso   1.00
C94    C     0.75571   0.54419   0.30533   0.00000  Uiso   1.00
C95    C     0.83413   0.51953   0.11154   0.00000  Uiso   1.00
C96    C     0.87267   0.50962   0.01505   0.00000  Uiso   1.00
C97    C     0.88238   0.55479   0.94602   0.00000  Uiso   1.00
C98    C     0.91837   0.55083   0.85850   0.00000  Uiso   1.00
C99    C     0.94727   0.50060   0.82987   0.00000  Uiso   1.00
C100   C     0.93719   0.45502   0.89905   0.00000  Uiso   1.00
C101   C     0.90118   0.45900   0.98726   0.00000  Uiso   1.00
H102   H     0.79944   0.40814   0.34376   0.00000  Uiso   1.00
H103   H     0.75808   0.58152   0.25358   0.00000  Uiso   1.00
H104   H     0.81624   0.56335   0.10959   0.00000  Uiso   1.00
H105   H     0.86141   0.59669   0.95811   0.00000  Uiso   1.00
H106   H     0.92474   0.58863   0.80894   0.00000  Uiso   1.00
H107   H     0.95776   0.41297   0.88652   0.00000  Uiso   1.00
H108   H     0.89629   0.42000   0.03432   0.00000  Uiso   1.00
C109   C     0.22186   0.55001   0.35444   0.00000  Uiso   1.00
C110   C     0.21470   0.50632   0.28114   0.00000  Uiso   1.00
N111   N     0.17849   0.51520   0.18836   0.00000  Uiso   1.00
C112   C     0.24429   0.45581   0.30533   0.00000  Uiso   1.00
C113   C     0.16587   0.48047   0.11154   0.00000  Uiso   1.00
C114   C     0.12733   0.49038   0.01505   0.00000  Uiso   1.00
C115   C     0.11762   0.44521   0.94602   0.00000  Uiso   1.00
C116   C     0.08163   0.44917   0.85850   0.00000  Uiso   1.00
C117   C     0.05273   0.49940   0.82987   0.00000  Uiso   1.00
C118   C     0.06281   0.54498   0.89905   0.00000  Uiso   1.00
C119   C     0.09882   0.54100   0.98726   0.00000  Uiso   1.00
H120   H     0.20056   0.59186   0.34376   0.00000  Uiso   1.00
H121   H     0.24192   0.41848   0.25358   0.00000  Uiso   1.00
H122   H     0.18376   0.43665   0.10959   0.00000  Uiso   1.00
H123   H     0.13859   0.40331   0.95811   0.00000  Uiso   1.00
H124   H     0.07526   0.41137   0.80894   0.00000  Uiso   1.00
H125   H     0.04224   0.58703   0.88652   0.00000  Uiso   1.00
H126   H     0.10371   0.58000   0.03432   0.00000  Uiso   1.00
C127   C     0.72186   0.05001   0.85444   0.00000  Uiso   1.00
C128   C     0.71470   0.00632   0.78114   0.00000  Uiso   1.00
N129   N     0.67849   0.01520   0.68836   0.00000  Uiso   1.00
C130   C     0.74429   0.95581   0.80533   0.00000  Uiso   1.00
C131   C     0.66587   0.98047   0.61154   0.00000  Uiso   1.00
C132   C     0.62733   0.99038   0.51505   0.00000  Uiso   1.00
C133   C     0.61762   0.94521   0.44602   0.00000  Uiso   1.00
C134   C     0.58163   0.94917   0.35850   0.00000  Uiso   1.00
C135   C     0.55273   0.99940   0.32987   0.00000  Uiso   1.00
C136   C     0.56281   0.04498   0.39905   0.00000  Uiso   1.00
C137   C     0.59882   0.04100   0.48726   0.00000  Uiso   1.00
H138   H     0.70056   0.09186   0.84376   0.00000  Uiso   1.00
H139   H     0.74192   0.91848   0.75358   0.00000  Uiso   1.00
H140   H     0.68376   0.93665   0.60959   0.00000  Uiso   1.00
H141   H     0.63859   0.90331   0.45811   0.00000  Uiso   1.00
H142   H     0.57526   0.91137   0.30894   0.00000  Uiso   1.00
H143   H     0.54224   0.08703   0.38652   0.00000  Uiso   1.00
H144   H     0.60371   0.08000   0.53432   0.00000  Uiso   1.00
C145   C     0.55001   0.77814   0.64556   0.00000  Uiso   1.00
C146   C     0.50632   0.78530   0.71886   0.00000  Uiso   1.00
N147   N     0.51520   0.82151   0.81164   0.00000  Uiso   1.00
C148   C     0.45581   0.75571   0.69467   0.00000  Uiso   1.00
C149   C     0.48047   0.83413   0.88846   0.00000  Uiso   1.00
C150   C     0.49038   0.87267   0.98495   0.00000  Uiso   1.00
C151   C     0.44521   0.88238   0.05398   0.00000  Uiso   1.00
C152   C     0.44917   0.91837   0.14150   0.00000  Uiso   1.00
C153   C     0.49940   0.94727   0.17013   0.00000  Uiso   1.00
C154   C     0.54498   0.93719   0.10095   0.00000  Uiso   1.00
C155   C     0.54100   0.90118   0.01274   0.00000  Uiso   1.00
H156   H     0.59186   0.79944   0.65624   0.00000  Uiso   1.00
H157   H     0.41848   0.75808   0.74642   0.00000  Uiso   1.00
H158   H     0.43665   0.81624   0.89041   0.00000  Uiso   1.00
H159   H     0.40331   0.86141   0.04189   0.00000  Uiso   1.00
H160   H     0.41137   0.92474   0.19106   0.00000  Uiso   1.00
H161   H     0.58703   0.95776   0.11348   0.00000  Uiso   1.00
H162   H     0.58000   0.89629   0.96568   0.00000  Uiso   1.00
C163   C     0.05001   0.27814   0.14556   0.00000  Uiso   1.00
C164   C     0.00632   0.28530   0.21886   0.00000  Uiso   1.00
N165   N     0.01520   0.32151   0.31164   0.00000  Uiso   1.00
C166   C     0.95581   0.25571   0.19467   0.00000  Uiso   1.00
C167   C     0.98047   0.33413   0.38846   0.00000  Uiso   1.00
C168   C     0.99038   0.37267   0.48495   0.00000  Uiso   1.00
C169   C     0.94521   0.38238   0.55398   0.00000  Uiso   1.00
C170   C     0.94917   0.41837   0.64150   0.00000  Uiso   1.00
C171   C     0.99940   0.44727   0.67013   0.00000  Uiso   1.00
C172   C     0.04498   0.43719   0.60095   0.00000  Uiso   1.00
C173   C     0.04100   0.40118   0.51274   0.00000  Uiso   1.00
H174   H     0.09186   0.29944   0.15624   0.00000  Uiso   1.00
H175   H     0.91848   0.25808   0.24642   0.00000  Uiso   1.00
H176   H     0.93665   0.31624   0.39041   0.00000  Uiso   1.00
H177   H     0.90331   0.36141   0.54189   0.00000  Uiso   1.00
H178   H     0.91137   0.42474   0.69106   0.00000  Uiso   1.00
H179   H     0.08703   0.45776   0.61348   0.00000  Uiso   1.00
H180   H     0.08000   0.39629   0.46568   0.00000  Uiso   1.00
C181   C     0.94999   0.72186   0.14556   0.00000  Uiso   1.00
C182   C     0.99368   0.71470   0.21886   0.00000  Uiso   1.00
N183   N     0.98480   0.67849   0.31164   0.00000  Uiso   1.00
C184   C     0.04419   0.74429   0.19467   0.00000  Uiso   1.00
C185   C     0.01953   0.66587   0.38846   0.00000  Uiso   1.00
C186   C     0.00962   0.62733   0.48495   0.00000  Uiso   1.00
C187   C     0.05479   0.61762   0.55398   0.00000  Uiso   1.00
C188   C     0.05083   0.58163   0.64150   0.00000  Uiso   1.00
C189   C     0.00060   0.55273   0.67013   0.00000  Uiso   1.00
C190   C     0.95502   0.56281   0.60095   0.00000  Uiso   1.00
C191   C     0.95900   0.59882   0.51274   0.00000  Uiso   1.00
H192   H     0.90814   0.70056   0.15624   0.00000  Uiso   1.00
H193   H     0.08152   0.74192   0.24642   0.00000  Uiso   1.00
H194   H     0.06335   0.68376   0.39041   0.00000  Uiso   1.00
H195   H     0.09669   0.63859   0.54189   0.00000  Uiso   1.00
H196   H     0.08863   0.57526   0.69106   0.00000  Uiso   1.00
H197   H     0.91297   0.54224   0.61348   0.00000  Uiso   1.00
H198   H     0.92000   0.60371   0.46568   0.00000  Uiso   1.00
C199   C     0.44999   0.22186   0.64556   0.00000  Uiso   1.00
C200   C     0.49368   0.21470   0.71886   0.00000  Uiso   1.00
N201   N     0.48480   0.17849   0.81164   0.00000  Uiso   1.00
C202   C     0.54419   0.24429   0.69467   0.00000  Uiso   1.00
C203   C     0.51953   0.16587   0.88846   0.00000  Uiso   1.00
C204   C     0.50962   0.12733   0.98495   0.00000  Uiso   1.00
C205   C     0.55479   0.11762   0.05398   0.00000  Uiso   1.00
C206   C     0.55083   0.08163   0.14150   0.00000  Uiso   1.00
C207   C     0.50060   0.05273   0.17013   0.00000  Uiso   1.00
C208   C     0.45502   0.06281   0.10095   0.00000  Uiso   1.00
C209   C     0.45900   0.09882   0.01274   0.00000  Uiso   1.00
H210   H     0.40814   0.20056   0.65624   0.00000  Uiso   1.00
H211   H     0.58152   0.24192   0.74642   0.00000  Uiso   1.00
H212   H     0.56335   0.18376   0.89041   0.00000  Uiso   1.00
H213   H     0.59669   0.13859   0.04189   0.00000  Uiso   1.00
H214   H     0.58863   0.07526   0.19106   0.00000  Uiso   1.00
H215   H     0.41297   0.04224   0.11348   0.00000  Uiso   1.00
H216   H     0.42000   0.10371   0.96568   0.00000  Uiso   1.00
C217   C     0.72186   0.55001   0.39556   0.00000  Uiso   1.00
C218   C     0.71470   0.50632   0.46886   0.00000  Uiso   1.00
N219   N     0.67849   0.51520   0.56164   0.00000  Uiso   1.00
C220   C     0.74429   0.45581   0.44467   0.00000  Uiso   1.00
C221   C     0.66587   0.48047   0.63846   0.00000  Uiso   1.00
C222   C     0.62733   0.49038   0.73495   0.00000  Uiso   1.00
C223   C     0.61762   0.44521   0.80398   0.00000  Uiso   1.00
C224   C     0.58163   0.44917   0.89150   0.00000  Uiso   1.00
C225   C     0.55273   0.49940   0.92013   0.00000  Uiso   1.00
C226   C     0.56281   0.54498   0.85095   0.00000  Uiso   1.00
C227   C     0.59882   0.54100   0.76274   0.00000  Uiso   1.00
H228   H     0.70056   0.59186   0.40624   0.00000  Uiso   1.00
H229   H     0.74192   0.41848   0.49642   0.00000  Uiso   1.00
H230   H     0.68376   0.43665   0.64041   0.00000  Uiso   1.00
H231   H     0.63859   0.40331   0.79189   0.00000  Uiso   1.00
H232   H     0.57526   0.41137   0.94106   0.00000  Uiso   1.00
H233   H     0.54224   0.58703   0.86348   0.00000  Uiso   1.00
H234   H     0.60371   0.58000   0.71568   0.00000  Uiso   1.00
C235   C     0.22186   0.05001   0.89556   0.00000  Uiso   1.00
C236   C     0.21470   0.00632   0.96886   0.00000  Uiso   1.00
N237   N     0.17849   0.01520   0.06164   0.00000  Uiso   1.00
C238   C     0.24429   0.95581   0.94467   0.00000  Uiso   1.00
C239   C     0.16587   0.98047   0.13846   0.00000  Uiso   1.00
C240   C     0.12733   0.99038   0.23495   0.00000  Uiso   1.00
C241   C     0.11762   0.94521   0.30398   0.00000  Uiso   1.00
C242   C     0.08163   0.94917   0.39150   0.00000  Uiso   1.00
C243   C     0.05273   0.99940   0.42013   0.00000  Uiso   1.00
C244   C     0.06281   0.04498   0.35095   0.00000  Uiso   1.00
C245   C     0.09882   0.04100   0.26274   0.00000  Uiso   1.00
H246   H     0.20056   0.09186   0.90624   0.00000  Uiso   1.00
H247   H     0.24192   0.91848   0.99642   0.00000  Uiso   1.00
H248   H     0.18376   0.93665   0.14041   0.00000  Uiso   1.00
H249   H     0.13859   0.90331   0.29189   0.00000  Uiso   1.00
H250   H     0.07526   0.91137   0.44106   0.00000  Uiso   1.00
H251   H     0.04224   0.08703   0.36348   0.00000  Uiso   1.00
H252   H     0.10371   0.08000   0.21568   0.00000  Uiso   1.00
C253   C     0.77814   0.94999   0.89556   0.00000  Uiso   1.00
C254   C     0.78530   0.99368   0.96886   0.00000  Uiso   1.00
N255   N     0.82151   0.98480   0.06164   0.00000  Uiso   1.00
C256   C     0.75571   0.04419   0.94467   0.00000  Uiso   1.00
C257   C     0.83413   0.01953   0.13846   0.00000  Uiso   1.00
C258   C     0.87267   0.00962   0.23495   0.00000  Uiso   1.00
C259   C     0.88238   0.05479   0.30398   0.00000  Uiso   1.00
C260   C     0.91837   0.05083   0.39150   0.00000  Uiso   1.00
C261   C     0.94727   0.00060   0.42013   0.00000  Uiso   1.00
C262   C     0.93719   0.95502   0.35095   0.00000  Uiso   1.00
C263   C     0.90118   0.95900   0.26274   0.00000  Uiso   1.00
H264   H     0.79944   0.90814   0.90624   0.00000  Uiso   1.00
H265   H     0.75808   0.08152   0.99642   0.00000  Uiso   1.00
H266   H     0.81624   0.06335   0.14041   0.00000  Uiso   1.00
H267   H     0.86141   0.09669   0.29189   0.00000  Uiso   1.00
H268   H     0.92474   0.08863   0.44106   0.00000  Uiso   1.00
H269   H     0.95776   0.91297   0.36348   0.00000  Uiso   1.00
H270   H     0.89629   0.92000   0.21568   0.00000  Uiso   1.00
C271   C     0.27814   0.44999   0.39556   0.00000  Uiso   1.00
C272   C     0.28530   0.49368   0.46886   0.00000  Uiso   1.00
N273   N     0.32151   0.48480   0.56164   0.00000  Uiso   1.00
C274   C     0.25571   0.54419   0.44467   0.00000  Uiso   1.00
C275   C     0.33413   0.51953   0.63846   0.00000  Uiso   1.00
C276   C     0.37267   0.50962   0.73495   0.00000  Uiso   1.00
C277   C     0.38238   0.55479   0.80398   0.00000  Uiso   1.00
C278   C     0.41837   0.55083   0.89150   0.00000  Uiso   1.00
C279   C     0.44727   0.50060   0.92013   0.00000  Uiso   1.00
C280   C     0.43719   0.45502   0.85095   0.00000  Uiso   1.00
C281   C     0.40118   0.45900   0.76274   0.00000  Uiso   1.00
H282   H     0.29944   0.40814   0.40624   0.00000  Uiso   1.00
H283   H     0.25808   0.58152   0.49642   0.00000  Uiso   1.00
H284   H     0.31624   0.56335   0.64041   0.00000  Uiso   1.00
H285   H     0.36141   0.59669   0.79189   0.00000  Uiso   1.00
H286   H     0.42474   0.58863   0.94106   0.00000  Uiso   1.00
H287   H     0.45776   0.41297   0.86348   0.00000  Uiso   1.00
H288   H     0.39629   0.42000   0.71568   0.00000  Uiso   1.00
C289   C     0.00000   0.50000   0.75000   0.00000  Uiso   1.00
C290   C     0.50000   0.00000   0.25000   0.00000  Uiso   1.00
C291   C     0.50000   0.50000   0.00000   0.00000  Uiso   1.00
C292   C     0.00000   0.00000   0.50000   0.00000  Uiso   1.00
loop_
_geom_bond_atom_site_label_1
_geom_bond_atom_site_label_2
_geom_bond_distance
_geom_bond_site_symmetry_2
_ccdc_geom_bond_type
C1     C2      1.443   .     D
C1     H12     1.126   .     S
C1     C148    1.464   .     S
C2     N3      1.531   .     S
C2     C4      1.429   .     S
N3     C5      1.357   .     D
C4     H13     1.130   .     S
C4     C145    1.464   .     D
C5     C6      1.607   .     S
C5     H14     1.126   .     S
C6     C7      1.439   .     S
C6     C11     1.431   .     D
C7     C8      1.459   .     D
C7     H15     1.126   .     S
C8     C9      1.431   .     S
C8     H16     1.129   .     S
C9     C10     1.449   .     D
C9     C291    1.652   .     S
C10    C11     1.467   .     S
C10    H17     1.126   .     S
C11    H18     1.129   .     S
C19    C20     1.443   .     S
C19    H30     1.126   .     S
C19    C166    1.464   .     D
C20    N21     1.531   1_554 S
C20    C22     1.429   1_655 D
N21    C20     1.531   1_556 S
N21    C23     1.357   1_655 D
C22    C20     1.429   1_455 D
C22    H31     1.130   .     S
C22    C163    1.464   .     S
C23    N21     1.357   1_455 D
C23    C24     1.607   .     S
C23    H32     1.126   .     S
C24    C25     1.439   .     D
C24    C29     1.431   1_455 S
C25    C26     1.459   .     S
C25    H33     1.126   .     S
C26    C27     1.431   .     D
C26    H34     1.129   .     S
C27    C28     1.449   1_455 S
C27    C292    1.652   .     S
C28    C27     1.449   1_655 S
C28    C29     1.467   .     D
C28    H35     1.126   .     S
C29    C24     1.431   1_655 S
C29    H36     1.129   .     S
C37    C38     1.443   .     S
C37    H48     1.126   .     S
C37    C184    1.464   .     D
C38    N39     1.531   1_554 S
C38    C40     1.429   1_455 D
N39    C38     1.531   1_556 S
N39    C41     1.357   1_455 D
C40    C38     1.429   1_655 D
C40    H49     1.130   .     S
C40    C181    1.464   .     S
C41    N39     1.357   1_655 D
C41    C42     1.607   .     S
C41    H50     1.126   .     S
C42    C43     1.439   .     D
C42    C47     1.431   1_655 S
C43    C44     1.459   .     S
C43    H51     1.126   .     S
C44    C45     1.431   .     D
C44    H52     1.129   .     S
C45    C46     1.449   1_655 S
C45    C292    1.652   1_665 S
C46    C45     1.449   1_455 S
C46    C47     1.467   .     D
C46    H53     1.126   .     S
C47    C42     1.431   1_455 S
C47    H54     1.129   .     S
C55    C56     1.443   .     D
C55    H66     1.126   .     S
C55    C202    1.464   .     S
C56    N57     1.531   .     S
C56    C58     1.429   .     S
N57    C59     1.357   .     D
C58    H67     1.130   .     S
C58    C199    1.464   .     D
C59    C60     1.607   .     S
C59    H68     1.126   .     S
C60    C61     1.439   .     S
C60    C65     1.431   .     D
C61    C62     1.459   .     D
C61    H69     1.126   .     S
C62    C63     1.431   .     S
C62    H70     1.129   .     S
C63    C64     1.449   .     D
C63    C291    1.652   .     S
C64    C65     1.467   .     S
C64    H71     1.126   .     S
C65    H72     1.129   .     S
C73    C74     1.443   .     S
C73    H84     1.126   .     S
C73    C238    1.464   .     D
C74    N75     1.531   .     S
C74    C76     1.429   1_565 D
N75    C77     1.357   1_565 D
C76    C74     1.429   1_545 D
C76    H85     1.130   .     S
C76    C235    1.464   .     S
C77    N75     1.357   1_545 D
C77    C78     1.607   .     S
C77    H86     1.126   .     S
C78    C79     1.439   .     D
C78    C83     1.431   1_545 S
C79    C80     1.459   .     S
C79    H87     1.126   .     S
C80    C81     1.431   .     D
C80    H88     1.129   .     S
C81    C82     1.449   1_545 S
C81    C290    1.652   .     S
C82    C81     1.449   1_565 S
C82    C83     1.467   .     D
C82    H89     1.126   .     S
C83    C78     1.431   1_565 S
C83    H90     1.129   .     S
C91    C92     1.443   .     S
C91    H102    1.126   .     S
C91    C220    1.464   .     D
C92    N93     1.531   .     S
C92    C94     1.429   .     D
N93    C95     1.357   .     D
C94    H103    1.130   .     S
C94    C217    1.464   .     S
C95    C96     1.607   .     S
C95    H104    1.126   .     S
C96    C97     1.439   1_554 D
C96    C101    1.431   1_554 S
C97    C96     1.439   1_556 D
C97    C98     1.459   .     S
C97    H105    1.126   .     S
C98    C99     1.431   .     D
C98    H106    1.129   .     S
C99    C100    1.449   .     S
C99    C289    1.652   1_655 S
C100   C101    1.467   .     D
C100   H107    1.126   .     S
C101   C96     1.431   1_556 S
C101   H108    1.129   1_556 S
H108   C101    1.129   1_554 S
C109   C110    1.443   .     S
C109   H120    1.126   .     S
C109   C274    1.464   .     D
C110   N111    1.531   .     S
C110   C112    1.429   .     D
N111   C113    1.357   .     D
C112   H121    1.130   .     S
C112   C271    1.464   .     S
C113   C114    1.607   .     S
C113   H122    1.126   .     S
C114   C115    1.439   1_554 D
C114   C119    1.431   1_554 S
C115   C114    1.439   1_556 D
C115   C116    1.459   .     S
C115   H123    1.126   .     S
C116   C117    1.431   .     D
C116   H124    1.129   .     S
C117   C118    1.449   .     S
C117   C289    1.652   .     S
C118   C119    1.467   .     D
C118   H125    1.126   .     S
C119   C114    1.431   1_556 S
C119   H126    1.129   1_556 S
H126   C119    1.129   1_554 S
C127   C128    1.443   .     S
C127   H138    1.126   .     S
C127   C256    1.464   .     D
C128   N129    1.531   .     S
C128   C130    1.429   1_545 D
N129   C131    1.357   1_545 D
C130   C128    1.429   1_565 D
C130   H139    1.130   .     S
C130   C253    1.464   .     S
C131   N129    1.357   1_565 D
C131   C132    1.607   .     S
C131   H140    1.126   .     S
C132   C133    1.439   .     D
C132   C137    1.431   1_565 S
C133   C134    1.459   .     S
C133   H141    1.126   .     S
C134   C135    1.431   .     D
C134   H142    1.129   .     S
C135   C136    1.449   1_565 S
C135   C290    1.652   1_565 S
C136   C135    1.449   1_545 S
C136   C137    1.467   .     D
C136   H143    1.126   .     S
C137   C132    1.431   1_545 S
C137   H144    1.129   .     S
C145   C146    1.443   .     S
C145   H156    1.126   .     S
C146   N147    1.531   .     S
C146   C148    1.429   .     D
N147   C149    1.357   .     D
C148   H157    1.130   .     S
C149   C150    1.607   .     S
C149   H158    1.126   .     S
C150   C151    1.439   1_556 S
C150   C155    1.431   1_556 D
C151   C150    1.439   1_554 S
C151   C152    1.459   .     D
C151   H159    1.126   .     S
C152   C153    1.431   .     S
C152   H160    1.129   .     S
C153   C154    1.449   .     D
C153   C290    1.652   1_565 S
C154   C155    1.467   .     S
C154   H161    1.126   .     S
C155   C150    1.431   1_554 D
C155   H162    1.129   1_554 S
H162   C155    1.129   1_556 S
C163   C164    1.443   .     D
C163   H174    1.126   .     S
C164   N165    1.531   .     S
C164   C166    1.429   1_455 S
N165   C167    1.357   1_455 D
C166   C164    1.429   1_655 S
C166   H175    1.130   .     S
C167   N165    1.357   1_655 D
C167   C168    1.607   .     S
C167   H176    1.126   .     S
C168   C169    1.439   .     S
C168   C173    1.431   1_655 D
C169   C170    1.459   .     D
C169   H177    1.126   .     S
C170   C171    1.431   .     S
C170   H178    1.129   .     S
C171   C172    1.449   1_655 D
C171   C289    1.652   1_655 S
C172   C171    1.449   1_455 D
C172   C173    1.467   .     S
C172   H179    1.126   .     S
C173   C168    1.431   1_455 D
C173   H180    1.129   .     S
C181   C182    1.443   .     D
C181   H192    1.126   .     S
C182   N183    1.531   .     S
C182   C184    1.429   1_655 S
N183   C185    1.357   1_655 D
C184   C182    1.429   1_455 S
C184   H193    1.130   .     S
C185   N183    1.357   1_455 D
C185   C186    1.607   .     S
C185   H194    1.126   .     S
C186   C187    1.439   .     S
C186   C191    1.431   1_455 D
C187   C188    1.459   .     D
C187   H195    1.126   .     S
C188   C189    1.431   .     S
C188   H196    1.129   .     S
C189   C190    1.449   1_455 D
C189   C289    1.652   .     S
C190   C189    1.449   1_655 D
C190   C191    1.467   .     S
C190   H197    1.126   .     S
C191   C186    1.431   1_655 D
C191   H198    1.129   .     S
C199   C200    1.443   .     S
C199   H210    1.126   .     S
C200   N201    1.531   .     S
C200   C202    1.429   .     D
N201   C203    1.357   .     D
C202   H211    1.130   .     S
C203   C204    1.607   .     S
C203   H212    1.126   .     S
C204   C205    1.439   1_556 S
C204   C209    1.431   1_556 D
C205   C204    1.439   1_554 S
C205   C206    1.459   .     D
C205   H213    1.126   .     S
C206   C207    1.431   .     S
C206   H214    1.129   .     S
C207   C208    1.449   .     D
C207   C290    1.652   .     S
C208   C209    1.467   .     S
C208   H215    1.126   .     S
C209   C204    1.431   1_554 D
C209   H216    1.129   1_554 S
H216   C209    1.129   1_556 S
C217   C218    1.443   .     D
C217   H228    1.126   .     S
C218   N219    1.531   .     S
C218   C220    1.429   .     S
N219   C221    1.357   .     D
C220   H229    1.130   .     S
C221   C222    1.607   .     S
C221   H230    1.126   .     S
C222   C223    1.439   .     S
C222   C227    1.431   .     D
C223   C224    1.459   .     D
C223   H231    1.126   .     S
C224   C225    1.431   .     S
C224   H232    1.129   .     S
C225   C226    1.449   .     D
C225   C291    1.652   1_556 S
C226   C227    1.467   .     S
C226   H233    1.126   .     S
C227   H234    1.129   .     S
C235   C236    1.443   .     D
C235   H246    1.126   .     S
C236   N237    1.531   1_556 S
C236   C238    1.429   1_545 S
N237   C236    1.531   1_554 S
N237   C239    1.357   1_545 D
C238   C236    1.429   1_565 S
C238   H247    1.130   .     S
C239   N237    1.357   1_565 D
C239   C240    1.607   .     S
C239   H248    1.126   .     S
C240   C241    1.439   .     S
C240   C245    1.431   1_565 D
C241   C242    1.459   .     D
C241   H249    1.126   .     S
C242   C243    1.431   .     S
C242   H250    1.129   .     S
C243   C244    1.449   1_565 D
C243   C292    1.652   1_565 S
C244   C243    1.449   1_545 D
C244   C245    1.467   .     S
C244   H251    1.126   .     S
C245   C240    1.431   1_545 D
C245   H252    1.129   .     S
C253   C254    1.443   .     D
C253   H264    1.126   .     S
C254   N255    1.531   1_556 S
C254   C256    1.429   1_565 S
N255   C254    1.531   1_554 S
N255   C257    1.357   1_565 D
C256   C254    1.429   1_545 S
C256   H265    1.130   .     S
C257   N255    1.357   1_545 D
C257   C258    1.607   .     S
C257   H266    1.126   .     S
C258   C259    1.439   .     S
C258   C263    1.431   1_545 D
C259   C260    1.459   .     D
C259   H267    1.126   .     S
C260   C261    1.431   .     S
C260   H268    1.129   .     S
C261   C262    1.449   1_545 D
C261   C292    1.652   1_655 S
C262   C261    1.449   1_565 D
C262   C263    1.467   .     S
C262   H269    1.126   .     S
C263   C258    1.431   1_565 D
C263   H270    1.129   .     S
C271   C272    1.443   .     D
C271   H282    1.126   .     S
C272   N273    1.531   .     S
C272   C274    1.429   .     S
N273   C275    1.357   .     D
C274   H283    1.130   .     S
C275   C276    1.607   .     S
C275   H284    1.126   .     S
C276   C277    1.439   .     S
C276   C281    1.431   .     D
C277   C278    1.459   .     D
C277   H285    1.126   .     S
C278   C279    1.431   .     S
C278   H286    1.129   .     S
C279   C280    1.449   .     D
C279   C291    1.652   1_556 S
C280   C281    1.467   .     S
C280   H287    1.126   .     S
C281   H288    1.129   .     S
C289   C171    1.652   1_455 S
C289   C99     1.652   1_455 S
C290   C153    1.652   1_545 S
C290   C135    1.652   1_545 S
C291   C279    1.652   1_554 S
C291   C225    1.652   1_554 S
C292   C261    1.652   1_455 S
C292   C243    1.652   1_545 S
C292   C45     1.652   1_445 S
