data_150
_audit_creation_date              2023-09-08
_audit_creation_method            'Materials Studio'
_symmetry_space_group_name_H-M    'P1'
_symmetry_Int_Tables_number       1
_symmetry_cell_setting            triclinic
loop_
_symmetry_equiv_pos_as_xyz
  x,y,z
_cell_length_a                    37.6880
_cell_length_b                    37.6880
_cell_length_c                    3.6847
_cell_angle_alpha                 90.0000
_cell_angle_beta                  90.0000
_cell_angle_gamma                 120.0000
loop_
_atom_site_label
_atom_site_type_symbol
_atom_site_fract_x
_atom_site_fract_y
_atom_site_fract_z
_atom_site_U_iso_or_equiv
_atom_site_adp_type
_atom_site_occupancy
C1     C     0.29005   0.64287   0.78590   0.00000  Uiso   1.00
C2     C     0.31410   0.62396   0.78557   0.00000  Uiso   1.00
C3     C     0.24439   0.61766   0.79247   0.00000  Uiso   1.00
C4     C     0.36790   0.58752   0.64384   0.00000  Uiso   1.00
C5     C     0.39168   0.56859   0.65606   0.00000  Uiso   1.00
C6     C     0.43098   0.58827   0.81412   0.00000  Uiso   1.00
C7     C     0.44683   0.62763   0.95717   0.00000  Uiso   1.00
C8     C     0.42389   0.64728   0.95595   0.00000  Uiso   1.00
N9     N     0.45620   0.56964   0.82534   0.00000  Uiso   1.00
C10    C     0.44276   0.53051   0.81338   0.00000  Uiso   1.00
C11    C     0.47142   0.51445   0.81728   0.00000  Uiso   1.00
C12    C     0.45618   0.47199   0.80975   0.00000  Uiso   1.00
C13    C     0.48369   0.45709   0.81707   0.00000  Uiso   1.00
O14    O     0.41352   0.44552   0.81064   0.00000  Uiso   1.00
C15    C     0.37203   0.37211   0.84039   0.00000  Uiso   1.00
O16    O     0.34532   0.33838   0.61807   0.00000  Uiso   1.00
C17    C     0.34823   0.30320   0.67512   0.00000  Uiso   1.00
C18    C     0.31207   0.26623   0.74116   0.00000  Uiso   1.00
C19    C     0.31283   0.22986   0.79059   0.00000  Uiso   1.00
C20    C     0.34980   0.22987   0.76928   0.00000  Uiso   1.00
C21    C     0.38606   0.26624   0.69597   0.00000  Uiso   1.00
C22    C     0.38558   0.30320   0.64619   0.00000  Uiso   1.00
N23    N     0.42108   0.33809   0.56331   0.00000  Uiso   1.00
C24    C     0.45725   0.33858   0.53174   0.00000  Uiso   1.00
C25    C     0.45884   0.30267   0.58243   0.00000  Uiso   1.00
C26    C     0.42297   0.26632   0.66460   0.00000  Uiso   1.00
C27    C     0.61976   0.58778   0.65667   0.00000  Uiso   1.00
H28    H     0.29876   0.58912   0.78502   0.00000  Uiso   1.00
H29    H     0.33632   0.57115   0.51196   0.00000  Uiso   1.00
H30    H     0.37935   0.53664   0.53675   0.00000  Uiso   1.00
H31    H     0.47901   0.64415   1.07727   0.00000  Uiso   1.00
H32    H     0.43702   0.67910   1.08038   0.00000  Uiso   1.00
H33    H     0.40842   0.50798   0.79965   0.00000  Uiso   1.00
H34    H     0.47159   0.42267   0.82296   0.00000  Uiso   1.00
H35    H     0.40220   0.37238   0.87739   0.00000  Uiso   1.00
H36    H     0.35716   0.36917   1.11649   0.00000  Uiso   1.00
H37    H     0.28175   0.26603   0.75441   0.00000  Uiso   1.00
H38    H     0.28319   0.20007   0.84850   0.00000  Uiso   1.00
H39    H     0.35034   0.20018   0.81175   0.00000  Uiso   1.00
H40    H     0.48645   0.36838   0.46362   0.00000  Uiso   1.00
H41    H     0.48927   0.30326   0.55653   0.00000  Uiso   1.00
H42    H     0.42389   0.23681   0.70585   0.00000  Uiso   1.00
H43    H     0.64793   0.58423   0.68770   0.00000  Uiso   1.00
H44    H     0.61334   0.58890   0.35580   0.00000  Uiso   1.00
C45    C     0.35713   0.64718   0.78590   0.00000  Uiso   1.00
C46    C     0.37604   0.69014   0.78557   0.00000  Uiso   1.00
C47    C     0.38234   0.62673   0.79247   0.00000  Uiso   1.00
C48    C     0.41248   0.78038   0.64384   0.00000  Uiso   1.00
C49    C     0.43141   0.82309   0.65606   0.00000  Uiso   1.00
C50    C     0.41173   0.84271   0.81412   0.00000  Uiso   1.00
C51    C     0.37237   0.81920   0.95717   0.00000  Uiso   1.00
C52    C     0.35272   0.77661   0.95595   0.00000  Uiso   1.00
N53    N     0.43036   0.88656   0.82534   0.00000  Uiso   1.00
C54    C     0.46949   0.91225   0.81338   0.00000  Uiso   1.00
C55    C     0.48555   0.95697   0.81728   0.00000  Uiso   1.00
C56    C     0.52801   0.98419   0.80975   0.00000  Uiso   1.00
O57    O     0.55448   0.96800   0.81064   0.00000  Uiso   1.00
C58    C     0.62789   0.99992   0.84039   0.00000  Uiso   1.00
H59    H     0.41088   0.70964   0.78502   0.00000  Uiso   1.00
H60    H     0.42885   0.76517   0.51196   0.00000  Uiso   1.00
H61    H     0.46336   0.84271   0.53675   0.00000  Uiso   1.00
H62    H     0.35585   0.83486   1.07727   0.00000  Uiso   1.00
H63    H     0.32090   0.75792   1.08038   0.00000  Uiso   1.00
H64    H     0.49202   0.90044   0.79965   0.00000  Uiso   1.00
H65    H     0.63083   0.98799   1.11649   0.00000  Uiso   1.00
C66    C     0.35282   0.70995   0.78590   0.00000  Uiso   1.00
C67    C     0.30986   0.68590   0.78557   0.00000  Uiso   1.00
C68    C     0.37327   0.75561   0.79247   0.00000  Uiso   1.00
C69    C     0.21962   0.63210   0.64384   0.00000  Uiso   1.00
C70    C     0.17691   0.60832   0.65606   0.00000  Uiso   1.00
C71    C     0.15729   0.56902   0.81412   0.00000  Uiso   1.00
C72    C     0.18080   0.55317   0.95717   0.00000  Uiso   1.00
C73    C     0.22339   0.57611   0.95595   0.00000  Uiso   1.00
N74    N     0.11344   0.54380   0.82534   0.00000  Uiso   1.00
C75    C     0.08775   0.55724   0.81338   0.00000  Uiso   1.00
C76    C     0.04303   0.52858   0.81728   0.00000  Uiso   1.00
C77    C     0.01581   0.54382   0.80975   0.00000  Uiso   1.00
O78    O     0.03200   0.58648   0.81064   0.00000  Uiso   1.00
C79    C     0.00008   0.62797   0.84039   0.00000  Uiso   1.00
H80    H     0.29036   0.70124   0.78502   0.00000  Uiso   1.00
H81    H     0.23483   0.66368   0.51196   0.00000  Uiso   1.00
H82    H     0.15729   0.62065   0.53675   0.00000  Uiso   1.00
H83    H     0.16514   0.52099   1.07727   0.00000  Uiso   1.00
H84    H     0.24208   0.56298   1.08038   0.00000  Uiso   1.00
H85    H     0.09956   0.59158   0.79965   0.00000  Uiso   1.00
H86    H     0.01201   0.64284   1.11649   0.00000  Uiso   1.00
C87    C     0.70995   0.35713   0.78590   0.00000  Uiso   1.00
C88    C     0.68590   0.37604   0.78557   0.00000  Uiso   1.00
C89    C     0.75561   0.38234   0.79247   0.00000  Uiso   1.00
C90    C     0.63210   0.41248   0.64384   0.00000  Uiso   1.00
C91    C     0.60832   0.43141   0.65606   0.00000  Uiso   1.00
C92    C     0.56902   0.41173   0.81412   0.00000  Uiso   1.00
C93    C     0.55317   0.37237   0.95717   0.00000  Uiso   1.00
C94    C     0.57611   0.35272   0.95595   0.00000  Uiso   1.00
N95    N     0.54380   0.43036   0.82534   0.00000  Uiso   1.00
C96    C     0.55724   0.46949   0.81338   0.00000  Uiso   1.00
C97    C     0.52858   0.48555   0.81728   0.00000  Uiso   1.00
C98    C     0.54382   0.52801   0.80975   0.00000  Uiso   1.00
C99    C     0.51631   0.54291   0.81707   0.00000  Uiso   1.00
O100   O     0.58648   0.55448   0.81064   0.00000  Uiso   1.00
C101   C     0.62797   0.62789   0.84039   0.00000  Uiso   1.00
O102   O     0.65468   0.66162   0.61807   0.00000  Uiso   1.00
C103   C     0.65177   0.69680   0.67512   0.00000  Uiso   1.00
C104   C     0.68793   0.73377   0.74116   0.00000  Uiso   1.00
C105   C     0.68717   0.77014   0.79059   0.00000  Uiso   1.00
C106   C     0.65020   0.77013   0.76928   0.00000  Uiso   1.00
C107   C     0.61394   0.73376   0.69597   0.00000  Uiso   1.00
C108   C     0.61442   0.69680   0.64619   0.00000  Uiso   1.00
N109   N     0.57892   0.66191   0.56331   0.00000  Uiso   1.00
C110   C     0.54275   0.66142   0.53174   0.00000  Uiso   1.00
C111   C     0.54116   0.69733   0.58243   0.00000  Uiso   1.00
C112   C     0.57703   0.73368   0.66460   0.00000  Uiso   1.00
C113   C     0.38024   0.41222   0.65667   0.00000  Uiso   1.00
H114   H     0.70124   0.41088   0.78502   0.00000  Uiso   1.00
H115   H     0.66368   0.42885   0.51196   0.00000  Uiso   1.00
H116   H     0.62065   0.46336   0.53675   0.00000  Uiso   1.00
H117   H     0.52099   0.35585   1.07727   0.00000  Uiso   1.00
H118   H     0.56298   0.32090   1.08038   0.00000  Uiso   1.00
H119   H     0.59158   0.49202   0.79965   0.00000  Uiso   1.00
H120   H     0.52841   0.57733   0.82296   0.00000  Uiso   1.00
H121   H     0.59780   0.62762   0.87739   0.00000  Uiso   1.00
H122   H     0.64284   0.63083   1.11649   0.00000  Uiso   1.00
H123   H     0.71825   0.73397   0.75441   0.00000  Uiso   1.00
H124   H     0.71681   0.79993   0.84850   0.00000  Uiso   1.00
H125   H     0.64966   0.79982   0.81175   0.00000  Uiso   1.00
H126   H     0.51355   0.63162   0.46362   0.00000  Uiso   1.00
H127   H     0.51073   0.69674   0.55653   0.00000  Uiso   1.00
H128   H     0.57611   0.76319   0.70585   0.00000  Uiso   1.00
H129   H     0.35207   0.41577   0.68770   0.00000  Uiso   1.00
H130   H     0.38666   0.41110   0.35580   0.00000  Uiso   1.00
C131   C     0.64287   0.35282   0.78590   0.00000  Uiso   1.00
C132   C     0.62396   0.30986   0.78557   0.00000  Uiso   1.00
C133   C     0.61766   0.37327   0.79247   0.00000  Uiso   1.00
C134   C     0.58752   0.21962   0.64384   0.00000  Uiso   1.00
C135   C     0.56859   0.17691   0.65606   0.00000  Uiso   1.00
C136   C     0.58827   0.15729   0.81412   0.00000  Uiso   1.00
C137   C     0.62763   0.18080   0.95717   0.00000  Uiso   1.00
C138   C     0.64728   0.22339   0.95595   0.00000  Uiso   1.00
N139   N     0.56964   0.11344   0.82534   0.00000  Uiso   1.00
C140   C     0.53051   0.08775   0.81338   0.00000  Uiso   1.00
C141   C     0.51445   0.04303   0.81728   0.00000  Uiso   1.00
C142   C     0.47199   0.01581   0.80975   0.00000  Uiso   1.00
O143   O     0.44552   0.03200   0.81064   0.00000  Uiso   1.00
C144   C     0.37211   0.00008   0.84039   0.00000  Uiso   1.00
H145   H     0.58912   0.29036   0.78502   0.00000  Uiso   1.00
H146   H     0.57115   0.23483   0.51196   0.00000  Uiso   1.00
H147   H     0.53664   0.15729   0.53675   0.00000  Uiso   1.00
H148   H     0.64415   0.16514   1.07727   0.00000  Uiso   1.00
H149   H     0.67910   0.24208   1.08038   0.00000  Uiso   1.00
H150   H     0.50798   0.09956   0.79965   0.00000  Uiso   1.00
H151   H     0.36917   0.01201   1.11649   0.00000  Uiso   1.00
C152   C     0.64718   0.29005   0.78590   0.00000  Uiso   1.00
C153   C     0.69014   0.31410   0.78557   0.00000  Uiso   1.00
C154   C     0.62673   0.24439   0.79247   0.00000  Uiso   1.00
C155   C     0.78038   0.36790   0.64384   0.00000  Uiso   1.00
C156   C     0.82309   0.39168   0.65606   0.00000  Uiso   1.00
C157   C     0.84271   0.43098   0.81412   0.00000  Uiso   1.00
C158   C     0.81920   0.44683   0.95717   0.00000  Uiso   1.00
C159   C     0.77661   0.42389   0.95595   0.00000  Uiso   1.00
N160   N     0.88656   0.45620   0.82534   0.00000  Uiso   1.00
C161   C     0.91225   0.44276   0.81338   0.00000  Uiso   1.00
C162   C     0.95697   0.47142   0.81728   0.00000  Uiso   1.00
C163   C     0.98419   0.45618   0.80975   0.00000  Uiso   1.00
O164   O     0.96800   0.41352   0.81064   0.00000  Uiso   1.00
C165   C     0.99992   0.37203   0.84039   0.00000  Uiso   1.00
H166   H     0.70964   0.29876   0.78502   0.00000  Uiso   1.00
H167   H     0.76517   0.33632   0.51196   0.00000  Uiso   1.00
H168   H     0.84271   0.37935   0.53675   0.00000  Uiso   1.00
H169   H     0.83486   0.47901   1.07727   0.00000  Uiso   1.00
H170   H     0.75792   0.43702   1.08038   0.00000  Uiso   1.00
H171   H     0.90044   0.40842   0.79965   0.00000  Uiso   1.00
H172   H     0.98799   0.35716   1.11649   0.00000  Uiso   1.00
C173   C     0.54291   0.02660   0.81707   0.00000  Uiso   1.00
O174   O     0.66162   0.00694   0.61807   0.00000  Uiso   1.00
C175   C     0.69680   0.04503   0.67512   0.00000  Uiso   1.00
C176   C     0.73377   0.04584   0.74116   0.00000  Uiso   1.00
C177   C     0.77014   0.08297   0.79059   0.00000  Uiso   1.00
C178   C     0.77013   0.11993   0.76928   0.00000  Uiso   1.00
C179   C     0.73376   0.11982   0.69597   0.00000  Uiso   1.00
C180   C     0.69680   0.08238   0.64619   0.00000  Uiso   1.00
N181   N     0.66191   0.08299   0.56331   0.00000  Uiso   1.00
C182   C     0.66142   0.11867   0.53174   0.00000  Uiso   1.00
C183   C     0.69733   0.15617   0.58243   0.00000  Uiso   1.00
C184   C     0.73368   0.15665   0.66460   0.00000  Uiso   1.00
C185   C     0.41222   0.03198   0.65667   0.00000  Uiso   1.00
H186   H     0.57733   0.04892   0.82296   0.00000  Uiso   1.00
H187   H     0.62762   0.02982   0.87739   0.00000  Uiso   1.00
H188   H     0.73397   0.01572   0.75441   0.00000  Uiso   1.00
H189   H     0.79993   0.08312   0.84850   0.00000  Uiso   1.00
H190   H     0.79982   0.15016   0.81175   0.00000  Uiso   1.00
H191   H     0.63162   0.11807   0.46362   0.00000  Uiso   1.00
H192   H     0.69674   0.18601   0.55653   0.00000  Uiso   1.00
H193   H     0.76319   0.18708   0.70585   0.00000  Uiso   1.00
H194   H     0.41577   0.06370   0.68770   0.00000  Uiso   1.00
H195   H     0.41110   0.02444   0.35580   0.00000  Uiso   1.00
C196   C     0.97340   0.51631   0.81707   0.00000  Uiso   1.00
O197   O     0.99306   0.65468   0.61807   0.00000  Uiso   1.00
C198   C     0.95497   0.65177   0.67512   0.00000  Uiso   1.00
C199   C     0.95416   0.68793   0.74116   0.00000  Uiso   1.00
C200   C     0.91703   0.68717   0.79059   0.00000  Uiso   1.00
C201   C     0.88007   0.65020   0.76928   0.00000  Uiso   1.00
C202   C     0.88018   0.61394   0.69597   0.00000  Uiso   1.00
C203   C     0.91762   0.61442   0.64619   0.00000  Uiso   1.00
N204   N     0.91701   0.57892   0.56331   0.00000  Uiso   1.00
C205   C     0.88133   0.54275   0.53174   0.00000  Uiso   1.00
C206   C     0.84383   0.54116   0.58243   0.00000  Uiso   1.00
C207   C     0.84335   0.57703   0.66460   0.00000  Uiso   1.00
C208   C     0.96802   0.38024   0.65667   0.00000  Uiso   1.00
H209   H     0.95108   0.52841   0.82296   0.00000  Uiso   1.00
H210   H     0.97018   0.59780   0.87739   0.00000  Uiso   1.00
H211   H     0.98428   0.71825   0.75441   0.00000  Uiso   1.00
H212   H     0.91688   0.71681   0.84850   0.00000  Uiso   1.00
H213   H     0.84984   0.64966   0.81175   0.00000  Uiso   1.00
H214   H     0.88193   0.51355   0.46362   0.00000  Uiso   1.00
H215   H     0.81399   0.51073   0.55653   0.00000  Uiso   1.00
H216   H     0.81292   0.57611   0.70585   0.00000  Uiso   1.00
H217   H     0.93630   0.35207   0.68770   0.00000  Uiso   1.00
H218   H     0.97556   0.38666   0.35580   0.00000  Uiso   1.00
C219   C     0.45709   0.97340   0.81707   0.00000  Uiso   1.00
O220   O     0.33838   0.99306   0.61807   0.00000  Uiso   1.00
C221   C     0.30320   0.95497   0.67512   0.00000  Uiso   1.00
C222   C     0.26623   0.95416   0.74116   0.00000  Uiso   1.00
C223   C     0.22986   0.91703   0.79059   0.00000  Uiso   1.00
C224   C     0.22987   0.88007   0.76928   0.00000  Uiso   1.00
C225   C     0.26624   0.88018   0.69597   0.00000  Uiso   1.00
C226   C     0.30320   0.91762   0.64619   0.00000  Uiso   1.00
N227   N     0.33809   0.91701   0.56331   0.00000  Uiso   1.00
C228   C     0.33858   0.88133   0.53174   0.00000  Uiso   1.00
C229   C     0.30267   0.84383   0.58243   0.00000  Uiso   1.00
C230   C     0.26632   0.84335   0.66460   0.00000  Uiso   1.00
C231   C     0.58778   0.96802   0.65667   0.00000  Uiso   1.00
H232   H     0.42267   0.95108   0.82296   0.00000  Uiso   1.00
H233   H     0.37238   0.97018   0.87739   0.00000  Uiso   1.00
H234   H     0.26603   0.98428   0.75441   0.00000  Uiso   1.00
H235   H     0.20007   0.91688   0.84850   0.00000  Uiso   1.00
H236   H     0.20018   0.84984   0.81175   0.00000  Uiso   1.00
H237   H     0.36838   0.88193   0.46362   0.00000  Uiso   1.00
H238   H     0.30326   0.81399   0.55653   0.00000  Uiso   1.00
H239   H     0.23681   0.81292   0.70585   0.00000  Uiso   1.00
H240   H     0.58423   0.93630   0.68770   0.00000  Uiso   1.00
H241   H     0.58890   0.97556   0.35580   0.00000  Uiso   1.00
C242   C     0.02660   0.48369   0.81707   0.00000  Uiso   1.00
O243   O     0.00694   0.34532   0.61807   0.00000  Uiso   1.00
C244   C     0.04503   0.34823   0.67512   0.00000  Uiso   1.00
C245   C     0.04584   0.31207   0.74116   0.00000  Uiso   1.00
C246   C     0.08297   0.31283   0.79059   0.00000  Uiso   1.00
C247   C     0.11993   0.34980   0.76928   0.00000  Uiso   1.00
C248   C     0.11982   0.38606   0.69597   0.00000  Uiso   1.00
C249   C     0.08238   0.38558   0.64619   0.00000  Uiso   1.00
N250   N     0.08299   0.42108   0.56331   0.00000  Uiso   1.00
C251   C     0.11867   0.45725   0.53174   0.00000  Uiso   1.00
C252   C     0.15617   0.45884   0.58243   0.00000  Uiso   1.00
C253   C     0.15665   0.42297   0.66460   0.00000  Uiso   1.00
C254   C     0.03198   0.61976   0.65667   0.00000  Uiso   1.00
H255   H     0.04892   0.47159   0.82296   0.00000  Uiso   1.00
H256   H     0.02982   0.40220   0.87739   0.00000  Uiso   1.00
H257   H     0.01572   0.28175   0.75441   0.00000  Uiso   1.00
H258   H     0.08312   0.28319   0.84850   0.00000  Uiso   1.00
H259   H     0.15016   0.35034   0.81175   0.00000  Uiso   1.00
H260   H     0.11807   0.48645   0.46362   0.00000  Uiso   1.00
H261   H     0.18601   0.48927   0.55653   0.00000  Uiso   1.00
H262   H     0.18708   0.42389   0.70585   0.00000  Uiso   1.00
H263   H     0.06370   0.64793   0.68770   0.00000  Uiso   1.00
H264   H     0.02444   0.61334   0.35580   0.00000  Uiso   1.00
loop_
_geom_bond_atom_site_label_1
_geom_bond_atom_site_label_2
_geom_bond_distance
_geom_bond_site_symmetry_2
_ccdc_geom_bond_type
C1     C2      1.406   .     D
C1     C3      1.493   .     S
C1     C67     1.406   .     S
C2     H28     1.140   .     S
C2     C45     1.406   .     S
C3     C69     1.406   .     D
C3     C73     1.484   .     S
C4     C5      1.398   .     D
C4     H29     1.140   .     S
C4     C47     1.406   .     S
C5     C6      1.409   .     S
C5     H30     1.140   .     S
C6     C7      1.396   .     D
C6     N9      1.437   .     S
C7     C8      1.391   .     S
C7     H31     1.140   .     S
C8     H32     1.140   .     S
C8     C47     1.484   .     D
N9     C10     1.299   .     D
C10    C11     1.479   .     S
C10    H33     1.140   .     S
C11    C12     1.404   .     D
C11    C99     1.483   .     S
C12    C13     1.405   .     S
C12    O14     1.406   .     S
C13    H34     1.140   .     S
C13    C97     1.483   .     D
O14    C113    1.377   .     S
C15    O16     1.422   .     S
C15    H35     1.140   .     S
C15    H36     1.140   .     S
C15    C113    1.540   .     S
O16    C17     1.400   .     S
C17    C18     1.400   .     D
C17    C22     1.412   .     S
C18    C19     1.397   .     S
C18    H37     1.140   .     S
C19    C20     1.395   .     D
C19    H38     1.140   .     S
C20    C21     1.395   .     S
C20    H39     1.140   .     S
C21    C22     1.414   .     D
C21    C26     1.394   .     S
C22    N23     1.361   .     S
N23    C24     1.359   .     D
C24    C25     1.397   .     S
C24    H40     1.140   .     S
C25    C26     1.394   .     D
C25    H41     1.140   .     S
C26    H42     1.140   .     S
C27    H43     1.140   .     S
C27    H44     1.140   .     S
C27    O100    1.377   .     S
C27    C101    1.540   .     S
C45    C46     1.406   .     D
C45    C47     1.493   .     S
C46    H59     1.140   .     S
C46    C66     1.406   .     S
C48    C49     1.398   .     D
C48    H60     1.140   .     S
C48    C68     1.406   .     S
C49    C50     1.409   .     S
C49    H61     1.140   .     S
C50    C51     1.396   .     D
C50    N53     1.437   .     S
C51    C52     1.391   .     S
C51    H62     1.140   .     S
C52    H63     1.140   .     S
C52    C68     1.484   .     D
N53    C54     1.299   .     D
C54    C55     1.479   .     S
C54    H64     1.140   .     S
C55    C56     1.404   .     D
C55    C219    1.483   .     S
C56    O57     1.406   .     S
C56    C173    1.405   1_565 S
O57    C231    1.377   .     S
C58    H65     1.140   .     S
C58    O174    1.422   1_565 S
C58    H187    1.140   1_565 S
C58    C231    1.540   .     S
C66    C67     1.406   .     D
C66    C68     1.493   .     S
C67    H80     1.140   .     S
C69    C70     1.398   .     S
C69    H81     1.140   .     S
C70    C71     1.409   .     D
C70    H82     1.140   .     S
C71    C72     1.396   .     S
C71    N74     1.437   .     S
C72    C73     1.391   .     D
C72    H83     1.140   .     S
C73    H84     1.140   .     S
N74    C75     1.299   .     D
C75    C76     1.479   .     S
C75    H85     1.140   .     S
C76    C77     1.404   .     S
C76    C242    1.483   .     D
C77    O78     1.406   .     S
C77    C196    1.405   1_455 D
O78    C254    1.377   .     S
C79    H86     1.140   .     S
C79    O197    1.422   1_455 S
C79    H210    1.140   1_455 S
C79    C254    1.540   .     S
C87    C88     1.406   .     D
C87    C89     1.493   .     S
C87    C153    1.406   .     S
C88    H114    1.140   .     S
C88    C131    1.406   .     S
C89    C155    1.406   .     D
C89    C159    1.484   .     S
C90    C91     1.398   .     D
C90    H115    1.140   .     S
C90    C133    1.406   .     S
C91    C92     1.409   .     S
C91    H116    1.140   .     S
C92    C93     1.396   .     D
C92    N95     1.437   .     S
C93    C94     1.391   .     S
C93    H117    1.140   .     S
C94    H118    1.140   .     S
C94    C133    1.484   .     D
N95    C96     1.299   .     D
C96    C97     1.479   .     S
C96    H119    1.140   .     S
C97    C98     1.404   .     S
C98    C99     1.405   .     D
C98    O100    1.406   .     S
C99    H120    1.140   .     S
C101   O102    1.422   .     S
C101   H121    1.140   .     S
C101   H122    1.140   .     S
O102   C103    1.400   .     S
C103   C104    1.400   .     S
C103   C108    1.412   .     D
C104   C105    1.397   .     D
C104   H123    1.140   .     S
C105   C106    1.395   .     S
C105   H124    1.140   .     S
C106   C107    1.395   .     D
C106   H125    1.140   .     S
C107   C108    1.414   .     S
C107   C112    1.394   .     S
C108   N109    1.361   .     S
N109   C110    1.359   .     D
C110   C111    1.397   .     S
C110   H126    1.140   .     S
C111   C112    1.394   .     D
C111   H127    1.140   .     S
C112   H128    1.140   .     S
C113   H129    1.140   .     S
C113   H130    1.140   .     S
C131   C132    1.406   .     D
C131   C133    1.493   .     S
C132   H145    1.140   .     S
C132   C152    1.406   .     S
C134   C135    1.398   .     S
C134   H146    1.140   .     S
C134   C154    1.406   .     D
C135   C136    1.409   .     D
C135   H147    1.140   .     S
C136   C137    1.396   .     S
C136   N139    1.437   .     S
C137   C138    1.391   .     D
C137   H148    1.140   .     S
C138   H149    1.140   .     S
C138   C154    1.484   .     S
N139   C140    1.299   .     D
C140   C141    1.479   .     S
C140   H150    1.140   .     S
C141   C142    1.404   .     S
C141   C173    1.483   .     D
C142   O143    1.406   .     S
C142   C219    1.405   1_545 D
O143   C185    1.377   .     S
C144   H151    1.140   .     S
C144   C185    1.540   .     S
C144   O220    1.422   1_545 S
C144   H233    1.140   1_545 S
C152   C153    1.406   .     D
C152   C154    1.493   .     S
C153   H166    1.140   .     S
C155   C156    1.398   .     S
C155   H167    1.140   .     S
C156   C157    1.409   .     D
C156   H168    1.140   .     S
C157   C158    1.396   .     S
C157   N160    1.437   .     S
C158   C159    1.391   .     D
C158   H169    1.140   .     S
C159   H170    1.140   .     S
N160   C161    1.299   .     D
C161   C162    1.479   .     S
C161   H171    1.140   .     S
C162   C163    1.404   .     D
C162   C196    1.483   .     S
C163   O164    1.406   .     S
C163   C242    1.405   1_655 S
O164   C208    1.377   .     S
C165   H172    1.140   .     S
C165   C208    1.540   .     S
C165   O243    1.422   1_655 S
C165   H256    1.140   1_655 S
C173   C56     1.405   1_545 S
C173   H186    1.140   .     S
O174   C58     1.422   1_545 S
O174   C175    1.400   .     S
C175   C176    1.400   .     S
C175   C180    1.412   .     D
C176   C177    1.397   .     D
C176   H188    1.140   .     S
C177   C178    1.395   .     S
C177   H189    1.140   .     S
C178   C179    1.395   .     D
C178   H190    1.140   .     S
C179   C180    1.414   .     S
C179   C184    1.394   .     S
C180   N181    1.361   .     S
N181   C182    1.359   .     D
C182   C183    1.397   .     S
C182   H191    1.140   .     S
C183   C184    1.394   .     D
C183   H192    1.140   .     S
C184   H193    1.140   .     S
C185   H194    1.140   .     S
C185   H195    1.140   .     S
H187   C58     1.140   1_545 S
C196   C77     1.405   1_655 D
C196   H209    1.140   .     S
O197   C79     1.422   1_655 S
O197   C198    1.400   .     S
C198   C199    1.400   .     D
C198   C203    1.412   .     S
C199   C200    1.397   .     S
C199   H211    1.140   .     S
C200   C201    1.395   .     D
C200   H212    1.140   .     S
C201   C202    1.395   .     S
C201   H213    1.140   .     S
C202   C203    1.414   .     D
C202   C207    1.394   .     S
C203   N204    1.361   .     S
N204   C205    1.359   .     D
C205   C206    1.397   .     S
C205   H214    1.140   .     S
C206   C207    1.394   .     D
C206   H215    1.140   .     S
C207   H216    1.140   .     S
C208   H217    1.140   .     S
C208   H218    1.140   .     S
H210   C79     1.140   1_655 S
C219   C142    1.405   1_565 D
C219   H232    1.140   .     S
O220   C144    1.422   1_565 S
O220   C221    1.400   .     S
C221   C222    1.400   .     D
C221   C226    1.412   .     S
C222   C223    1.397   .     S
C222   H234    1.140   .     S
C223   C224    1.395   .     D
C223   H235    1.140   .     S
C224   C225    1.395   .     S
C224   H236    1.140   .     S
C225   C226    1.414   .     D
C225   C230    1.394   .     S
C226   N227    1.361   .     S
N227   C228    1.359   .     D
C228   C229    1.397   .     S
C228   H237    1.140   .     S
C229   C230    1.394   .     D
C229   H238    1.140   .     S
C230   H239    1.140   .     S
C231   H240    1.140   .     S
C231   H241    1.140   .     S
H233   C144    1.140   1_565 S
C242   C163    1.405   1_455 S
C242   H255    1.140   .     S
O243   C165    1.422   1_455 S
O243   C244    1.400   .     S
C244   C245    1.400   .     S
C244   C249    1.412   .     D
C245   C246    1.397   .     D
C245   H257    1.140   .     S
C246   C247    1.395   .     S
C246   H258    1.140   .     S
C247   C248    1.395   .     D
C247   H259    1.140   .     S
C248   C249    1.414   .     S
C248   C253    1.394   .     S
C249   N250    1.361   .     S
N250   C251    1.359   .     D
C251   C252    1.397   .     S
C251   H260    1.140   .     S
C252   C253    1.394   .     D
C252   H261    1.140   .     S
C253   H262    1.140   .     S
C254   H263    1.140   .     S
C254   H264    1.140   .     S
H256   C165    1.140   1_455 S
