data_151
_audit_creation_date              2023-09-08
_audit_creation_method            'Materials Studio'
_symmetry_space_group_name_H-M    'P1'
_symmetry_Int_Tables_number       1
_symmetry_cell_setting            triclinic
loop_
_symmetry_equiv_pos_as_xyz
  x,y,z
_cell_length_a                    15.6400
_cell_length_b                    15.6400
_cell_length_c                    3.4000
_cell_angle_alpha                 90.0000
_cell_angle_beta                  90.0000
_cell_angle_gamma                 120.0000
loop_
_atom_site_label
_atom_site_type_symbol
_atom_site_fract_x
_atom_site_fract_y
_atom_site_fract_z
_atom_site_U_iso_or_equiv
_atom_site_adp_type
_atom_site_occupancy
N1     N     0.04989   0.53720   0.50000   0.00000  Uiso   1.00
N2     N     0.46280   0.51269   0.50000   0.00000  Uiso   1.00
N3     N     0.48731   0.95011   0.50000   0.00000  Uiso   1.00
N4     N     0.95011   0.46280   0.50000   0.00000  Uiso   1.00
N5     N     0.53720   0.48731   0.50000   0.00000  Uiso   1.00
N6     N     0.51269   0.04989   0.50000   0.00000  Uiso   1.00
C7     C     0.12715   0.52092   0.50000   0.00000  Uiso   1.00
C8     C     0.47908   0.60623   0.50000   0.00000  Uiso   1.00
C9     C     0.39377   0.87285   0.50000   0.00000  Uiso   1.00
C10    C     0.87285   0.47908   0.50000   0.00000  Uiso   1.00
C11    C     0.52092   0.39377   0.50000   0.00000  Uiso   1.00
C12    C     0.60623   0.12715   0.50000   0.00000  Uiso   1.00
H13    H     0.10988   0.44391   0.50000   0.00000  Uiso   1.00
H14    H     0.55609   0.66597   0.50000   0.00000  Uiso   1.00
H15    H     0.33403   0.89012   0.50000   0.00000  Uiso   1.00
H16    H     0.89012   0.55609   0.50000   0.00000  Uiso   1.00
H17    H     0.44391   0.33403   0.50000   0.00000  Uiso   1.00
H18    H     0.66597   0.10988   0.50000   0.00000  Uiso   1.00
H19    H     0.06967   0.61141   0.50000   0.00000  Uiso   1.00
H20    H     0.38859   0.45826   0.50000   0.00000  Uiso   1.00
H21    H     0.54174   0.93033   0.50000   0.00000  Uiso   1.00
H22    H     0.93033   0.38859   0.50000   0.00000  Uiso   1.00
H23    H     0.61141   0.54174   0.50000   0.00000  Uiso   1.00
H24    H     0.45826   0.06967   0.50000   0.00000  Uiso   1.00
C25    C     0.30099   0.55970   0.50000   0.00000  Uiso   1.00
C26    C     0.44030   0.74129   0.50000   0.00000  Uiso   1.00
C27    C     0.25871   0.69901   0.50000   0.00000  Uiso   1.00
C28    C     0.69901   0.44030   0.50000   0.00000  Uiso   1.00
C29    C     0.55970   0.25871   0.50000   0.00000  Uiso   1.00
C30    C     0.74129   0.30099   0.50000   0.00000  Uiso   1.00
C31    C     0.22770   0.59362   0.50000   0.00000  Uiso   1.00
C32    C     0.40638   0.63408   0.50000   0.00000  Uiso   1.00
C33    C     0.36592   0.77230   0.50000   0.00000  Uiso   1.00
C34    C     0.77230   0.40638   0.50000   0.00000  Uiso   1.00
C35    C     0.59362   0.36592   0.50000   0.00000  Uiso   1.00
C36    C     0.63408   0.22770   0.50000   0.00000  Uiso   1.00
O37    O     0.27475   0.46914   0.50000   0.00000  Uiso   1.00
O38    O     0.53086   0.80561   0.50000   0.00000  Uiso   1.00
O39    O     0.19439   0.72525   0.50000   0.00000  Uiso   1.00
O40    O     0.72525   0.53086   0.50000   0.00000  Uiso   1.00
O41    O     0.46914   0.19439   0.50000   0.00000  Uiso   1.00
O42    O     0.80561   0.27475   0.50000   0.00000  Uiso   1.00
loop_
_geom_bond_atom_site_label_1
_geom_bond_atom_site_label_2
_geom_bond_distance
_geom_bond_site_symmetry_2
_ccdc_geom_bond_type
N1     N4      1.405   1_455 S
N1     C7      1.354   .     S
N1     H19     1.041   .     S
N2     N5      1.405   .     S
N2     C8      1.354   .     S
N2     H20     1.041   .     S
N3     N6      1.405   1_565 S
N3     C9      1.354   .     S
N3     H21     1.041   .     S
N4     N1      1.405   1_655 S
N4     C10     1.354   .     S
N4     H22     1.041   .     S
N5     C11     1.354   .     S
N5     H23     1.041   .     S
N6     N3      1.405   1_545 S
N6     C12     1.354   .     S
N6     H24     1.041   .     S
C7     H13     1.095   .     S
C7     C31     1.406   .     D
C8     H14     1.095   .     S
C8     C32     1.406   .     D
C9     H15     1.095   .     S
C9     C33     1.406   .     D
C10    H16     1.095   .     S
C10    C34     1.406   .     D
C11    H17     1.095   .     S
C11    C35     1.406   .     D
C12    H18     1.095   .     S
C12    C36     1.406   .     D
C25    C31     1.484   .     S
C25    C32     1.467   .     S
C25    O37     1.262   .     D
C26    C32     1.484   .     S
C26    C33     1.467   .     S
C26    O38     1.262   .     D
C27    C31     1.467   .     S
C27    C33     1.484   .     S
C27    O39     1.262   .     D
C28    C34     1.484   .     S
C28    C35     1.467   .     S
C28    O40     1.262   .     D
C29    C35     1.484   .     S
C29    C36     1.467   .     S
C29    O41     1.262   .     D
C30    C34     1.467   .     S
C30    C36     1.484   .     S
C30    O42     1.262   .     D
