data_152
_audit_creation_date              2023-09-08
_audit_creation_method            'Materials Studio'
_symmetry_space_group_name_H-M    'P1'
_symmetry_Int_Tables_number       1
_symmetry_cell_setting            triclinic
loop_
_symmetry_equiv_pos_as_xyz
  x,y,z
_cell_length_a                    27.3729
_cell_length_b                    27.3729
_cell_length_c                    5.6941
_cell_angle_alpha                 90.0000
_cell_angle_beta                  90.0000
_cell_angle_gamma                 120.0000
loop_
_atom_site_label
_atom_site_type_symbol
_atom_site_fract_x
_atom_site_fract_y
_atom_site_fract_z
_atom_site_U_iso_or_equiv
_atom_site_adp_type
_atom_site_occupancy
N1     N     0.52612   0.50624   0.27344   0.00000  Uiso   1.00
N2     N     0.49376   0.01988   0.27344   0.00000  Uiso   1.00
N3     N     0.98012   0.47388   0.27344   0.00000  Uiso   1.00
N4     N     0.47388   0.49376   0.27344   0.00000  Uiso   1.00
N5     N     0.50624   0.98012   0.27344   0.00000  Uiso   1.00
N6     N     0.01988   0.52612   0.27344   0.00000  Uiso   1.00
C7     C     0.54194   0.46685   0.27315   0.00000  Uiso   1.00
C8     C     0.53315   0.07509   0.27315   0.00000  Uiso   1.00
C9     C     0.92491   0.45806   0.27315   0.00000  Uiso   1.00
C10    C     0.45806   0.53315   0.27315   0.00000  Uiso   1.00
C11    C     0.46685   0.92491   0.27315   0.00000  Uiso   1.00
C12    C     0.07509   0.54194   0.27315   0.00000  Uiso   1.00
H13    H     0.51099   0.42640   0.31071   0.00000  Uiso   1.00
H14    H     0.57360   0.08459   0.31071   0.00000  Uiso   1.00
H15    H     0.91541   0.48901   0.31071   0.00000  Uiso   1.00
H16    H     0.48901   0.57360   0.31071   0.00000  Uiso   1.00
H17    H     0.42640   0.91541   0.31071   0.00000  Uiso   1.00
H18    H     0.08459   0.51099   0.31071   0.00000  Uiso   1.00
C19    C     0.47047   0.15754  -0.01011   0.00000  Uiso   1.00
C20    C     0.84246   0.31293  -0.01011   0.00000  Uiso   1.00
C21    C     0.68707   0.52953  -0.01011   0.00000  Uiso   1.00
C22    C     0.52953   0.84246  -0.01011   0.00000  Uiso   1.00
C23    C     0.15754   0.68707  -0.01011   0.00000  Uiso   1.00
C24    C     0.31293   0.47047  -0.01011   0.00000  Uiso   1.00
C25    C     0.52041   0.21119  -0.00071   0.00000  Uiso   1.00
C26    C     0.78881   0.30922  -0.00071   0.00000  Uiso   1.00
C27    C     0.69078   0.47959  -0.00071   0.00000  Uiso   1.00
C28    C     0.47959   0.78881  -0.00071   0.00000  Uiso   1.00
C29    C     0.21119   0.69078  -0.00071   0.00000  Uiso   1.00
C30    C     0.30922   0.52041  -0.00071   0.00000  Uiso   1.00
H31    H     0.52137   0.24392  -0.08865   0.00000  Uiso   1.00
H32    H     0.75608   0.27744  -0.08865   0.00000  Uiso   1.00
H33    H     0.72256   0.47863  -0.08865   0.00000  Uiso   1.00
H34    H     0.47863   0.75608  -0.08865   0.00000  Uiso   1.00
H35    H     0.24392   0.72256  -0.08865   0.00000  Uiso   1.00
H36    H     0.27744   0.52137  -0.08865   0.00000  Uiso   1.00
C37    C     0.59581   0.47633   0.20427   0.00000  Uiso   1.00
C38    C     0.52367   0.11948   0.20427   0.00000  Uiso   1.00
C39    C     0.88052   0.40419   0.20427   0.00000  Uiso   1.00
C40    C     0.40419   0.52367   0.20427   0.00000  Uiso   1.00
C41    C     0.47633   0.88052   0.20427   0.00000  Uiso   1.00
C42    C     0.11948   0.59581   0.20427   0.00000  Uiso   1.00
C43    C     0.60581   0.43060   0.22803   0.00000  Uiso   1.00
C44    C     0.56940   0.17521   0.22803   0.00000  Uiso   1.00
C45    C     0.82479   0.39419   0.22803   0.00000  Uiso   1.00
C46    C     0.39419   0.56940   0.22803   0.00000  Uiso   1.00
C47    C     0.43060   0.82479   0.22803   0.00000  Uiso   1.00
C48    C     0.17521   0.60581   0.22803   0.00000  Uiso   1.00
H49    H     0.57771   0.39614   0.32291   0.00000  Uiso   1.00
H50    H     0.60386   0.18157   0.32291   0.00000  Uiso   1.00
H51    H     0.81843   0.42229   0.32291   0.00000  Uiso   1.00
H52    H     0.42229   0.60386   0.32291   0.00000  Uiso   1.00
H53    H     0.39614   0.81843   0.32291   0.00000  Uiso   1.00
H54    H     0.18157   0.57771   0.32291   0.00000  Uiso   1.00
C55    C     0.65949   0.38199   0.13264   0.00000  Uiso   1.00
C56    C     0.61801   0.27750   0.13264   0.00000  Uiso   1.00
C57    C     0.72250   0.34051   0.13264   0.00000  Uiso   1.00
C58    C     0.34052   0.61801   0.13264   0.00000  Uiso   1.00
C59    C     0.38199   0.72250   0.13264   0.00000  Uiso   1.00
C60    C     0.27750   0.65949   0.13264   0.00000  Uiso   1.00
C61    C     0.63866   0.52686   0.09805   0.00000  Uiso   1.00
C62    C     0.47314   0.11180   0.09805   0.00000  Uiso   1.00
C63    C     0.88820   0.36134   0.09805   0.00000  Uiso   1.00
C64    C     0.36134   0.47314   0.09805   0.00000  Uiso   1.00
C65    C     0.52686   0.88820   0.09805   0.00000  Uiso   1.00
C66    C     0.11180   0.63866   0.09805   0.00000  Uiso   1.00
C67    C     0.65236   0.43022   0.12264   0.00000  Uiso   1.00
C68    C     0.56978   0.22214   0.12264   0.00000  Uiso   1.00
C69    C     0.77786   0.34764   0.12264   0.00000  Uiso   1.00
C70    C     0.34764   0.56978   0.12264   0.00000  Uiso   1.00
C71    C     0.43022   0.77786   0.12264   0.00000  Uiso   1.00
C72    C     0.22214   0.65236   0.12264   0.00000  Uiso   1.00
C73    C     0.71372   0.38732   0.13456   0.00000  Uiso   1.00
C74    C     0.61268   0.32639   0.13456   0.00000  Uiso   1.00
C75    C     0.67361   0.28628   0.13456   0.00000  Uiso   1.00
C76    C     0.28628   0.61268   0.13456   0.00000  Uiso   1.00
C77    C     0.38733   0.67361   0.13456   0.00000  Uiso   1.00
C78    C     0.32639   0.71372   0.13456   0.00000  Uiso   1.00
H79    H     0.57313   0.32124   0.13495   0.00000  Uiso   1.00
H80    H     0.67876   0.25189   0.13495   0.00000  Uiso   1.00
H81    H     0.74811   0.42687   0.13495   0.00000  Uiso   1.00
H82    H     0.42687   0.67876   0.13495   0.00000  Uiso   1.00
H83    H     0.32124   0.74811   0.13495   0.00000  Uiso   1.00
H84    H     0.25189   0.57313   0.13495   0.00000  Uiso   1.00
O85    O     0.63334   0.57362   0.09986   0.00000  Uiso   1.00
O86    O     0.42638   0.05972   0.09986   0.00000  Uiso   1.00
O87    O     0.94028   0.36666   0.09986   0.00000  Uiso   1.00
O88    O     0.36666   0.42638   0.09986   0.00000  Uiso   1.00
O89    O     0.57362   0.94028   0.09986   0.00000  Uiso   1.00
O90    O     0.05972   0.63334   0.09986   0.00000  Uiso   1.00
H91    H     0.59928   0.57102   0.16651   0.00000  Uiso   1.00
H92    H     0.42898   0.02826   0.16651   0.00000  Uiso   1.00
H93    H     0.97174   0.40072   0.16651   0.00000  Uiso   1.00
H94    H     0.40072   0.42898   0.16651   0.00000  Uiso   1.00
H95    H     0.57102   0.97174   0.16651   0.00000  Uiso   1.00
H96    H     0.02826   0.59928   0.16651   0.00000  Uiso   1.00
C97    C     0.76227   0.63251   0.04586   0.00000  Uiso   1.00
C98    C     0.58311   0.85058  -0.13272   0.00000  Uiso   1.00
C99    C     0.78159   0.57844  -0.25232   0.00000  Uiso   1.00
C100   C     0.29328   0.39837  -0.33384   0.00000  Uiso   1.00
H101   H     0.76530   0.54610  -0.38905   0.00000  Uiso   1.00
H102   H     0.80441   0.56783  -0.12363   0.00000  Uiso   1.00
H103   H     0.81240   0.61801  -0.33528   0.00000  Uiso   1.00
H104   H     0.78083   0.62066   0.18877   0.00000  Uiso   1.00
H105   H     0.73249   0.64352   0.12163   0.00000  Uiso   1.00
H106   H     0.79566   0.67064  -0.03678   0.00000  Uiso   1.00
H107   H     0.68602   0.56783  -0.46193   0.00000  Uiso   1.00
H108   H     0.73870   0.63929  -0.42379   0.00000  Uiso   1.00
H109   H     0.67522   0.61148  -0.26914   0.00000  Uiso   1.00
C110   C     0.36749   0.12976   0.04586   0.00000  Uiso   1.00
C111   C     0.14943   0.73253  -0.13272   0.00000  Uiso   1.00
C112   C     0.42157   0.20316  -0.25232   0.00000  Uiso   1.00
C113   C     0.60163   0.89491  -0.33384   0.00000  Uiso   1.00
H114   H     0.45390   0.21921  -0.38905   0.00000  Uiso   1.00
H115   H     0.43217   0.23658  -0.12363   0.00000  Uiso   1.00
H116   H     0.38199   0.19439  -0.33528   0.00000  Uiso   1.00
H117   H     0.37935   0.16017   0.18877   0.00000  Uiso   1.00
H118   H     0.35648   0.08897   0.12163   0.00000  Uiso   1.00
H119   H     0.32936   0.12501  -0.03678   0.00000  Uiso   1.00
H120   H     0.43217   0.11819  -0.46193   0.00000  Uiso   1.00
H121   H     0.36071   0.09941  -0.42379   0.00000  Uiso   1.00
H122   H     0.38852   0.06374  -0.26914   0.00000  Uiso   1.00
C123   C     0.87024   0.23773   0.04586   0.00000  Uiso   1.00
C124   C     0.26747   0.41689  -0.13272   0.00000  Uiso   1.00
C125   C     0.79684   0.21841  -0.25232   0.00000  Uiso   1.00
C126   C     0.10509   0.70672  -0.33384   0.00000  Uiso   1.00
H127   H     0.78079   0.23470  -0.38905   0.00000  Uiso   1.00
H128   H     0.76342   0.19559  -0.12363   0.00000  Uiso   1.00
H129   H     0.80561   0.18760  -0.33528   0.00000  Uiso   1.00
H130   H     0.83983   0.21917   0.18877   0.00000  Uiso   1.00
H131   H     0.91103   0.26751   0.12163   0.00000  Uiso   1.00
H132   H     0.87499   0.20434  -0.03678   0.00000  Uiso   1.00
H133   H     0.88181   0.31398  -0.46193   0.00000  Uiso   1.00
H134   H     0.90059   0.26130  -0.42379   0.00000  Uiso   1.00
H135   H     0.93626   0.32478  -0.26914   0.00000  Uiso   1.00
C136   C     0.23773   0.36749   0.04586   0.00000  Uiso   1.00
C137   C     0.41689   0.14942  -0.13272   0.00000  Uiso   1.00
C138   C     0.21841   0.42157  -0.25232   0.00000  Uiso   1.00
C139   C     0.70672   0.60163  -0.33384   0.00000  Uiso   1.00
H140   H     0.23470   0.45390  -0.38905   0.00000  Uiso   1.00
H141   H     0.19559   0.43217  -0.12363   0.00000  Uiso   1.00
H142   H     0.18760   0.38199  -0.33528   0.00000  Uiso   1.00
H143   H     0.21917   0.37935   0.18877   0.00000  Uiso   1.00
H144   H     0.26751   0.35648   0.12163   0.00000  Uiso   1.00
H145   H     0.20434   0.32936  -0.03678   0.00000  Uiso   1.00
H146   H     0.31399   0.43217  -0.46193   0.00000  Uiso   1.00
H147   H     0.26130   0.36071  -0.42379   0.00000  Uiso   1.00
H148   H     0.32479   0.38852  -0.26914   0.00000  Uiso   1.00
C149   C     0.63252   0.87024   0.04586   0.00000  Uiso   1.00
C150   C     0.85058   0.26747  -0.13272   0.00000  Uiso   1.00
C151   C     0.57844   0.79684  -0.25232   0.00000  Uiso   1.00
C152   C     0.39837   0.10509  -0.33384   0.00000  Uiso   1.00
H153   H     0.54610   0.78079  -0.38905   0.00000  Uiso   1.00
H154   H     0.56783   0.76342  -0.12363   0.00000  Uiso   1.00
H155   H     0.61801   0.80561  -0.33528   0.00000  Uiso   1.00
H156   H     0.62066   0.83983   0.18877   0.00000  Uiso   1.00
H157   H     0.64352   0.91103   0.12163   0.00000  Uiso   1.00
H158   H     0.67064   0.87499  -0.03678   0.00000  Uiso   1.00
H159   H     0.56783   0.88181  -0.46193   0.00000  Uiso   1.00
H160   H     0.63929   0.90059  -0.42379   0.00000  Uiso   1.00
H161   H     0.61148   0.93626  -0.26914   0.00000  Uiso   1.00
C162   C     0.12976   0.76227   0.04586   0.00000  Uiso   1.00
C163   C     0.73253   0.58311  -0.13272   0.00000  Uiso   1.00
C164   C     0.20316   0.78159  -0.25232   0.00000  Uiso   1.00
C165   C     0.89491   0.29328  -0.33384   0.00000  Uiso   1.00
H166   H     0.21921   0.76530  -0.38905   0.00000  Uiso   1.00
H167   H     0.23658   0.80441  -0.12363   0.00000  Uiso   1.00
H168   H     0.19439   0.81239  -0.33528   0.00000  Uiso   1.00
H169   H     0.16017   0.78083   0.18877   0.00000  Uiso   1.00
H170   H     0.08897   0.73249   0.12163   0.00000  Uiso   1.00
H171   H     0.12501   0.79566  -0.03678   0.00000  Uiso   1.00
H172   H     0.11819   0.68602  -0.46193   0.00000  Uiso   1.00
H173   H     0.09941   0.73870  -0.42379   0.00000  Uiso   1.00
H174   H     0.06374   0.67522  -0.26914   0.00000  Uiso   1.00
loop_
_geom_bond_atom_site_label_1
_geom_bond_atom_site_label_2
_geom_bond_distance
_geom_bond_site_symmetry_2
_ccdc_geom_bond_type
N1     N4      1.293   .     S
N1     C7      1.348   .     D
N2     N5      1.293   1_545 S
N2     C8      1.348   .     D
N3     N6      1.293   1_655 S
N3     C9      1.348   .     D
N4     C10     1.348   .     D
N5     N2      1.293   1_565 S
N5     C11     1.348   .     D
N6     N3      1.293   1_455 S
N6     C12     1.348   .     D
C7     H13     1.026   .     S
C7     C37     1.419   .     S
C8     H14     1.026   .     S
C8     C38     1.419   .     S
C9     H15     1.026   .     S
C9     C39     1.419   .     S
C10    H16     1.026   .     S
C10    C40     1.419   .     S
C11    H17     1.026   .     S
C11    C41     1.419   .     S
C12    H18     1.026   .     S
C12    C42     1.419   .     S
C19    C25     1.422   .     S
C19    C62     1.430   .     D
C19    C137    1.537   .     S
C20    C26     1.422   .     D
C20    C63     1.430   .     S
C20    C150    1.537   .     S
C21    C27     1.422   .     D
C21    C61     1.430   .     S
C21    C163    1.537   .     S
C22    C28     1.422   .     D
C22    C65     1.430   .     S
C22    C98     1.537   .     S
C23    C29     1.422   .     S
C23    C66     1.430   .     D
C23    C111    1.537   .     S
C24    C30     1.422   .     S
C24    C64     1.430   .     D
C24    C124    1.537   .     S
C25    H31     1.015   .     S
C25    C68     1.416   .     D
C26    H32     1.015   .     S
C26    C69     1.416   .     S
C27    H33     1.015   .     S
C27    C67     1.416   .     S
C28    H34     1.015   .     S
C28    C71     1.416   .     S
C29    H35     1.015   .     S
C29    C72     1.416   .     D
C30    H36     1.015   .     S
C30    C70     1.416   .     D
C37    C43     1.415   .     S
C37    C61     1.426   .     D
C38    C44     1.415   .     D
C38    C62     1.426   .     S
C39    C45     1.415   .     S
C39    C63     1.426   .     D
C40    C46     1.415   .     D
C40    C64     1.426   .     S
C41    C47     1.415   .     S
C41    C65     1.426   .     D
C42    C48     1.415   .     D
C42    C66     1.426   .     S
C43    H49     1.024   .     S
C43    C67     1.413   .     D
C44    H50     1.024   .     S
C44    C68     1.413   .     S
C45    H51     1.024   .     S
C45    C69     1.413   .     D
C46    H52     1.024   .     S
C46    C70     1.413   .     S
C47    H53     1.024   .     S
C47    C71     1.413   .     D
C48    H54     1.024   .     S
C48    C72     1.413   .     S
C55    C67     1.429   .     S
C55    C73     1.417   .     S
C55    C74     1.417   .     D
C56    C68     1.429   .     S
C56    C74     1.417   .     S
C56    C75     1.417   .     D
C57    C69     1.429   .     S
C57    C73     1.417   .     D
C57    C75     1.417   .     S
C58    C70     1.429   .     S
C58    C76     1.417   .     S
C58    C77     1.417   .     D
C59    C71     1.429   .     S
C59    C77     1.417   .     S
C59    C78     1.417   .     D
C60    C72     1.429   .     S
C60    C76     1.417   .     D
C60    C78     1.417   .     S
C61    O85     1.359   .     S
C62    O86     1.359   .     S
C63    O87     1.359   .     S
C64    O88     1.359   .     S
C65    O89     1.359   .     S
C66    O90     1.359   .     S
C73    H81     1.019   .     S
C74    H79     1.019   .     S
C75    H80     1.019   .     S
C76    H84     1.019   .     S
C77    H82     1.019   .     S
C78    H83     1.019   .     S
O85    H91     0.976   .     S
O86    H92     0.976   .     S
O87    H93     0.976   .     S
O88    H94     0.976   .     S
O89    H95     0.976   .     S
O90    H96     0.976   .     S
C97    H104    1.091   .     S
C97    H105    1.090   .     S
C97    H106    1.092   .     S
C97    C163    1.557   .     S
C98    C113    1.558   .     S
C98    C149    1.557   .     S
C98    C151    1.567   .     S
C99    H101    1.093   .     S
C99    H102    1.092   .     S
C99    H103    1.093   .     S
C99    C163    1.567   .     S
C100   C124    1.558   .     S
C100   H146    1.088   .     S
C100   H147    1.090   .     S
C100   H148    1.088   .     S
H107   C139    1.088   .     S
H108   C139    1.090   .     S
H109   C139    1.088   .     S
C110   H117    1.091   .     S
C110   H118    1.090   .     S
C110   H119    1.092   .     S
C110   C137    1.557   .     S
C111   C126    1.558   .     S
C111   C162    1.557   .     S
C111   C164    1.567   .     S
C112   H114    1.093   .     S
C112   H115    1.092   .     S
C112   H116    1.093   .     S
C112   C137    1.567   .     S
C113   H159    1.088   .     S
C113   H160    1.090   .     S
C113   H161    1.088   .     S
H120   C152    1.088   .     S
H121   C152    1.090   .     S
H122   C152    1.088   .     S
C123   H130    1.091   .     S
C123   H131    1.090   .     S
C123   H132    1.092   .     S
C123   C150    1.557   .     S
C124   C136    1.557   .     S
C124   C138    1.567   .     S
C125   H127    1.093   .     S
C125   H128    1.092   .     S
C125   H129    1.093   .     S
C125   C150    1.567   .     S
C126   H172    1.088   .     S
C126   H173    1.090   .     S
C126   H174    1.088   .     S
H133   C165    1.088   .     S
H134   C165    1.090   .     S
H135   C165    1.088   .     S
C136   H143    1.091   .     S
C136   H144    1.090   .     S
C136   H145    1.092   .     S
C137   C152    1.558   .     S
C138   H140    1.093   .     S
C138   H141    1.092   .     S
C138   H142    1.093   .     S
C139   C163    1.558   .     S
C149   H156    1.091   .     S
C149   H157    1.090   .     S
C149   H158    1.092   .     S
C150   C165    1.558   .     S
C151   H153    1.093   .     S
C151   H154    1.092   .     S
C151   H155    1.093   .     S
C162   H169    1.091   .     S
C162   H170    1.090   .     S
C162   H171    1.092   .     S
C164   H166    1.093   .     S
C164   H167    1.092   .     S
C164   H168    1.093   .     S
