data_153
_audit_creation_date              2023-09-08
_audit_creation_method            'Materials Studio'
_symmetry_space_group_name_H-M    'P1'
_symmetry_Int_Tables_number       1
_symmetry_cell_setting            triclinic
loop_
_symmetry_equiv_pos_as_xyz
  x,y,z
_cell_length_a                    31.1540
_cell_length_b                    31.1540
_cell_length_c                    3.4000
_cell_angle_alpha                 90.0000
_cell_angle_beta                  90.0000
_cell_angle_gamma                 120.0000
loop_
_atom_site_label
_atom_site_type_symbol
_atom_site_fract_x
_atom_site_fract_y
_atom_site_fract_z
_atom_site_U_iso_or_equiv
_atom_site_adp_type
_atom_site_occupancy
C1     C     0.68241   0.38498  -0.05283   0.00000  Uiso   1.00
C2     C     0.61502   0.29742  -0.05283   0.00000  Uiso   1.00
C3     C     0.70258   0.31759  -0.05283   0.00000  Uiso   1.00
C4     C     0.31759   0.61502   0.05283   0.00000  Uiso   1.00
C5     C     0.38499   0.70258   0.05283   0.00000  Uiso   1.00
C6     C     0.29742   0.68241   0.05283   0.00000  Uiso   1.00
C7     C     0.62829   0.35008  -0.04815   0.00000  Uiso   1.00
C8     C     0.64992   0.27821  -0.04815   0.00000  Uiso   1.00
C9     C     0.72179   0.37171  -0.04815   0.00000  Uiso   1.00
C10    C     0.37171   0.64992   0.04815   0.00000  Uiso   1.00
C11    C     0.35008   0.72179   0.04815   0.00000  Uiso   1.00
C12    C     0.27821   0.62829   0.04815   0.00000  Uiso   1.00
C13    C     0.59286   0.36384  -0.04673   0.00000  Uiso   1.00
C14    C     0.63616   0.22902  -0.04673   0.00000  Uiso   1.00
C15    C     0.77099   0.40715  -0.04673   0.00000  Uiso   1.00
C16    C     0.40715   0.63616   0.04673   0.00000  Uiso   1.00
C17    C     0.36384   0.77099   0.04673   0.00000  Uiso   1.00
C18    C     0.22902   0.59285   0.04673   0.00000  Uiso   1.00
N19    N     0.60335   0.41219  -0.04655   0.00000  Uiso   1.00
N20    N     0.58781   0.19117  -0.04655   0.00000  Uiso   1.00
N21    N     0.80883   0.39665  -0.04655   0.00000  Uiso   1.00
N22    N     0.39665   0.58781   0.04655   0.00000  Uiso   1.00
N23    N     0.41219   0.80883   0.04655   0.00000  Uiso   1.00
N24    N     0.19117   0.60335   0.04655   0.00000  Uiso   1.00
N25    N     0.56791   0.42889  -0.03849   0.00000  Uiso   1.00
N26    N     0.57112   0.13903  -0.03849   0.00000  Uiso   1.00
N27    N     0.86097   0.43209  -0.03849   0.00000  Uiso   1.00
N28    N     0.43209   0.57112   0.03849   0.00000  Uiso   1.00
N29    N     0.42889   0.86097   0.03849   0.00000  Uiso   1.00
N30    N     0.13903   0.56791   0.03849   0.00000  Uiso   1.00
C31    C     0.45168   0.46235   0.01191   0.00000  Uiso   1.00
C32    C     0.53765   0.98933   0.01191   0.00000  Uiso   1.00
C33    C     0.01067   0.54832   0.01191   0.00000  Uiso   1.00
C34    C     0.54832   0.53765  -0.01191   0.00000  Uiso   1.00
C35    C     0.46235   0.01067  -0.01191   0.00000  Uiso   1.00
C36    C     0.98933   0.45168  -0.01191   0.00000  Uiso   1.00
C37    C     0.48892   0.45033  -0.00398   0.00000  Uiso   1.00
C38    C     0.54967   0.03859  -0.00398   0.00000  Uiso   1.00
C39    C     0.96141   0.51108  -0.00398   0.00000  Uiso   1.00
C40    C     0.51108   0.54967   0.00398   0.00000  Uiso   1.00
C41    C     0.45033   0.96141   0.00398   0.00000  Uiso   1.00
C42    C     0.03859   0.48892   0.00398   0.00000  Uiso   1.00
C43    C     0.53818   0.48878  -0.01874   0.00000  Uiso   1.00
C44    C     0.51122   0.04940  -0.01874   0.00000  Uiso   1.00
C45    C     0.95060   0.46182  -0.01874   0.00000  Uiso   1.00
C46    C     0.46182   0.51122   0.01874   0.00000  Uiso   1.00
C47    C     0.48878   0.95060   0.01874   0.00000  Uiso   1.00
C48    C     0.04940   0.53818   0.01874   0.00000  Uiso   1.00
C49    C     0.58028   0.47793  -0.03870   0.00000  Uiso   1.00
C50    C     0.52207   0.10235  -0.03870   0.00000  Uiso   1.00
C51    C     0.89765   0.41972  -0.03870   0.00000  Uiso   1.00
C52    C     0.41972   0.52207   0.03870   0.00000  Uiso   1.00
C53    C     0.47793   0.89765   0.03870   0.00000  Uiso   1.00
C54    C     0.10235   0.58028   0.03870   0.00000  Uiso   1.00
O55    O     0.69629   0.42911  -0.05946   0.00000  Uiso   1.00
O56    O     0.57089   0.26719  -0.05946   0.00000  Uiso   1.00
O57    O     0.73281   0.30371  -0.05946   0.00000  Uiso   1.00
O58    O     0.30371   0.57089   0.05946   0.00000  Uiso   1.00
O59    O     0.42911   0.73281   0.05946   0.00000  Uiso   1.00
O60    O     0.26719   0.69629   0.05946   0.00000  Uiso   1.00
H61    H     0.44669   0.66344   0.04531   0.00000  Uiso   1.00
H62    H     0.33656   0.78325   0.04531   0.00000  Uiso   1.00
H63    H     0.21675   0.55331   0.04531   0.00000  Uiso   1.00
H64    H     0.55331   0.33656  -0.04531   0.00000  Uiso   1.00
H65    H     0.66344   0.21675  -0.04531   0.00000  Uiso   1.00
H66    H     0.78325   0.44669  -0.04531   0.00000  Uiso   1.00
O67    O     0.37651   0.48934   0.05462   0.00000  Uiso   1.00
O68    O     0.51066   0.88717   0.05462   0.00000  Uiso   1.00
O69    O     0.11283   0.62349   0.05462   0.00000  Uiso   1.00
O70    O     0.62349   0.51066  -0.05462   0.00000  Uiso   1.00
O71    O     0.48934   0.11283  -0.05462   0.00000  Uiso   1.00
O72    O     0.88717   0.37651  -0.05462   0.00000  Uiso   1.00
H73    H     0.63943   0.43996  -0.05044   0.00000  Uiso   1.00
H74    H     0.56004   0.19947  -0.05044   0.00000  Uiso   1.00
H75    H     0.80054   0.36057  -0.05044   0.00000  Uiso   1.00
H76    H     0.36057   0.56004   0.05044   0.00000  Uiso   1.00
H77    H     0.43996   0.80053   0.05044   0.00000  Uiso   1.00
H78    H     0.19947   0.63943   0.05044   0.00000  Uiso   1.00
H79    H     0.40227   0.87041   0.02931   0.00000  Uiso   1.00
O80    O     0.40112   0.92350   0.01592   0.00000  Uiso   1.00
C81    C     0.36612   0.92880  -0.22040   0.00000  Uiso   1.00
H82    H     0.56805   0.98101   0.01316   0.00000  Uiso   1.00
H83    H     0.65995   0.06613   0.03515   0.00000  Uiso   1.00
H84    H     0.61612   0.03981   0.42666   0.00000  Uiso   1.00
H85    H     0.65510   0.10480   0.40119   0.00000  Uiso   1.00
H86    H     0.12959   0.53187   0.02931   0.00000  Uiso   1.00
O87    O     0.07650   0.47762   0.01592   0.00000  Uiso   1.00
C88    C     0.07120   0.43732  -0.22040   0.00000  Uiso   1.00
H89    H     0.01899   0.58704   0.01316   0.00000  Uiso   1.00
H90    H     0.93387   0.59382   0.03515   0.00000  Uiso   1.00
H91    H     0.96019   0.57631   0.42666   0.00000  Uiso   1.00
H92    H     0.89520   0.55030   0.40119   0.00000  Uiso   1.00
H93    H     0.46813   0.59772   0.02931   0.00000  Uiso   1.00
O94    O     0.52238   0.59888   0.01592   0.00000  Uiso   1.00
C95    C     0.56268   0.63388  -0.22040   0.00000  Uiso   1.00
H96    H     0.41296   0.43195   0.01316   0.00000  Uiso   1.00
H97    H     0.40618   0.34005   0.03515   0.00000  Uiso   1.00
H98    H     0.42369   0.38388   0.42666   0.00000  Uiso   1.00
H99    H     0.44970   0.34490   0.40119   0.00000  Uiso   1.00
H100   H     0.59773   0.12959  -0.02931   0.00000  Uiso   1.00
O101   O     0.59888   0.07650  -0.01592   0.00000  Uiso   1.00
C102   C     0.63388   0.07120   0.22040   0.00000  Uiso   1.00
H103   H     0.43195   0.01899  -0.01316   0.00000  Uiso   1.00
H104   H     0.34005   0.93387  -0.03515   0.00000  Uiso   1.00
H105   H     0.38388   0.96019  -0.42666   0.00000  Uiso   1.00
H106   H     0.34490   0.89520  -0.40119   0.00000  Uiso   1.00
H107   H     0.87041   0.46813  -0.02931   0.00000  Uiso   1.00
O108   O     0.92350   0.52238  -0.01592   0.00000  Uiso   1.00
C109   C     0.92880   0.56268   0.22040   0.00000  Uiso   1.00
H110   H     0.98101   0.41296  -0.01316   0.00000  Uiso   1.00
H111   H     0.06613   0.40618  -0.03515   0.00000  Uiso   1.00
H112   H     0.03981   0.42369  -0.42666   0.00000  Uiso   1.00
H113   H     0.10480   0.44970  -0.40119   0.00000  Uiso   1.00
H114   H     0.53187   0.40228  -0.02931   0.00000  Uiso   1.00
O115   O     0.47762   0.40112  -0.01592   0.00000  Uiso   1.00
C116   C     0.43732   0.36612   0.22040   0.00000  Uiso   1.00
H117   H     0.58704   0.56805  -0.01316   0.00000  Uiso   1.00
H118   H     0.59382   0.65995  -0.03515   0.00000  Uiso   1.00
H119   H     0.57631   0.61612  -0.42666   0.00000  Uiso   1.00
H120   H     0.55030   0.65510  -0.40119   0.00000  Uiso   1.00
loop_
_geom_bond_atom_site_label_1
_geom_bond_atom_site_label_2
_geom_bond_distance
_geom_bond_site_symmetry_2
_ccdc_geom_bond_type
C1     C7      1.480   .     S
C1     C9      1.478   .     S
C1     O55     1.218   .     D
C2     C7      1.478   .     S
C2     C8      1.480   .     S
C2     O56     1.218   .     D
C3     C8      1.478   .     S
C3     C9      1.480   .     S
C3     O57     1.218   .     D
C4     C10     1.480   .     S
C4     C12     1.478   .     S
C4     O58     1.218   .     D
C5     C10     1.478   .     S
C5     C11     1.480   .     S
C5     O59     1.218   .     D
C6     C11     1.478   .     S
C6     C12     1.480   .     S
C6     O60     1.218   .     D
C7     C13     1.370   .     D
C8     C14     1.370   .     D
C9     C15     1.370   .     D
C10    C16     1.370   .     D
C11    C17     1.370   .     D
C12    C18     1.370   .     D
C13    N19     1.372   .     S
C13    H64     1.092   .     S
C14    N20     1.372   .     S
C14    H65     1.092   .     S
C15    N21     1.372   .     S
C15    H66     1.092   .     S
C16    N22     1.372   .     S
C16    H61     1.092   .     S
C17    N23     1.372   .     S
C17    H62     1.092   .     S
C18    N24     1.372   .     S
C18    H63     1.092   .     S
N19    N25     1.437   .     S
N19    H73     1.020   .     S
N20    N26     1.437   .     S
N20    H74     1.020   .     S
N21    N27     1.437   .     S
N21    H75     1.020   .     S
N22    N28     1.437   .     S
N22    H76     1.020   .     S
N23    N29     1.437   .     S
N23    H77     1.020   .     S
N24    N30     1.437   .     S
N24    H78     1.020   .     S
N25    C49     1.376   .     S
N25    H114    1.009   .     S
N26    C50     1.376   .     S
N26    H100    1.009   .     S
N27    C51     1.376   .     S
N27    H107    1.009   .     S
N28    C52     1.376   .     S
N28    H93     1.009   .     S
N29    C53     1.376   .     S
N29    H79     1.009   .     S
N30    C54     1.376   .     S
N30    H86     1.009   .     S
C31    C37     1.387   .     D
C31    C46     1.392   .     S
C31    H96     1.100   .     S
C32    C38     1.387   1_565 S
C32    C47     1.392   .     D
C32    H82     1.100   .     S
C33    C39     1.387   1_455 S
C33    C48     1.392   .     D
C33    H89     1.100   .     S
C34    C40     1.387   .     S
C34    C43     1.392   .     D
C34    H117    1.100   .     S
C35    C41     1.387   1_545 D
C35    C44     1.392   .     S
C35    H103    1.100   .     S
C36    C42     1.387   1_655 D
C36    C45     1.392   .     S
C36    H110    1.100   .     S
C37    C43     1.398   .     S
C37    O115    1.391   .     S
C38    C32     1.387   1_545 S
C38    C44     1.398   .     D
C38    O101    1.391   .     S
C39    C33     1.387   1_655 S
C39    C45     1.398   .     D
C39    O108    1.391   .     S
C40    C46     1.398   .     D
C40    O94     1.391   .     S
C41    C35     1.387   1_565 D
C41    C47     1.398   .     S
C41    O80     1.391   .     S
C42    C36     1.387   1_455 D
C42    C48     1.398   .     S
C42    O87     1.391   .     S
C43    C49     1.511   .     S
C44    C50     1.511   .     S
C45    C51     1.511   .     S
C46    C52     1.511   .     S
C47    C53     1.511   .     S
C48    C54     1.511   .     S
C49    O70     1.217   .     D
C50    O71     1.217   .     D
C51    O72     1.217   .     D
C52    O67     1.217   .     D
C53    O68     1.217   .     D
C54    O69     1.217   .     D
O80    C81     1.429   .     S
C81    H104    1.100   .     S
C81    H105    1.101   .     S
C81    H106    1.104   .     S
H83    C102    1.100   .     S
H84    C102    1.101   .     S
H85    C102    1.104   .     S
O87    C88     1.429   .     S
C88    H111    1.100   .     S
C88    H112    1.101   .     S
C88    H113    1.104   .     S
H90    C109    1.100   .     S
H91    C109    1.101   .     S
H92    C109    1.104   .     S
O94    C95     1.429   .     S
C95    H118    1.100   .     S
C95    H119    1.101   .     S
C95    H120    1.104   .     S
H97    C116    1.100   .     S
H98    C116    1.101   .     S
H99    C116    1.104   .     S
O101   C102    1.429   .     S
O108   C109    1.429   .     S
O115   C116    1.429   .     S
