data_154
_audit_creation_date              2023-09-08
_audit_creation_method            'Materials Studio'
_symmetry_space_group_name_H-M    'P1'
_symmetry_Int_Tables_number       1
_symmetry_cell_setting            triclinic
loop_
_symmetry_equiv_pos_as_xyz
  x,y,z
_cell_length_a                    21.6185
_cell_length_b                    22.7637
_cell_length_c                    4.1495
_cell_angle_alpha                 86.0359
_cell_angle_beta                  88.8996
_cell_angle_gamma                 115.2113
loop_
_atom_site_label
_atom_site_type_symbol
_atom_site_fract_x
_atom_site_fract_y
_atom_site_fract_z
_atom_site_U_iso_or_equiv
_atom_site_adp_type
_atom_site_occupancy
C1     C     2.27928   0.52271  -0.21954   0.00000  Uiso   1.00
C2     C     2.32762   0.49819  -0.12254   0.00000  Uiso   1.00
N3     N     2.38869   0.55093  -0.10051   0.00000  Uiso   1.00
C4     C     2.38112   0.60725  -0.15942   0.00000  Uiso   1.00
C5     C     2.31178   0.58914  -0.23938   0.00000  Uiso   1.00
C6     C     2.31495   0.43285  -0.04307   0.00000  Uiso   1.00
C7     C     2.35147   0.34626   0.16320   0.00000  Uiso   1.00
C8     C     2.41193   0.34227   0.17837   0.00000  Uiso   1.00
C9     C     2.46339   0.40492   0.03422   0.00000  Uiso   1.00
N10    N     2.43497   0.44690  -0.04752   0.00000  Uiso   1.00
C11    C     2.36651   0.41151   0.01754   0.00000  Uiso   1.00
C12    C     2.53278   0.41813  -0.02376   0.00000  Uiso   1.00
C13    C     2.58412   0.48088  -0.12084   0.00000  Uiso   1.00
C14    C     2.65319   0.49860  -0.23509   0.00000  Uiso   1.00
C15    C     2.68557   0.56495  -0.29066   0.00000  Uiso   1.00
C16    C     2.63756   0.58989  -0.20594   0.00000  Uiso   1.00
N17    N     2.57667   0.53737  -0.11612   0.00000  Uiso   1.00
C18    C     2.65036   0.65542  -0.19285   0.00000  Uiso   1.00
C19    C     2.50197   0.68337  -0.10451   0.00000  Uiso   1.00
N20    N     2.53022   0.64127  -0.15638   0.00000  Uiso   1.00
C21    C     2.59872   0.67665  -0.13865   0.00000  Uiso   1.00
C22    C     2.61393   0.74191  -0.05358   0.00000  Uiso   1.00
C23    C     2.55360   0.74608  -0.02758   0.00000  Uiso   1.00
C24    C     2.43256   0.67017  -0.13387   0.00000  Uiso   1.00
C25    C     2.24343   0.38439  -0.01425   0.00000  Uiso   1.00
C26    C     2.41249   0.72398  -0.13668   0.00000  Uiso   1.00
C27    C     2.55275   0.36423   0.01728   0.00000  Uiso   1.00
C28    C     2.72183   0.70412  -0.22648   0.00000  Uiso   1.00
C29    C     2.35317   0.71756   0.05529   0.00000  Uiso   1.00
C30    C     2.33430   0.76824   0.05977   0.00000  Uiso   1.00
C31    C     2.37471   0.82867  -0.12811   0.00000  Uiso   1.00
C32    C     2.43447   0.83589  -0.31673   0.00000  Uiso   1.00
C33    C     2.45225   0.78461  -0.32526   0.00000  Uiso   1.00
C34    C     2.74080   0.76392  -0.43188   0.00000  Uiso   1.00
C35    C     2.80751   0.81070  -0.46686   0.00000  Uiso   1.00
C36    C     2.85955   0.79997  -0.29629   0.00000  Uiso   1.00
C37    C     2.84136   0.74027  -0.09395   0.00000  Uiso   1.00
C38    C     2.77429   0.69384  -0.05791   0.00000  Uiso   1.00
C39    C     2.61224   0.37072   0.19048   0.00000  Uiso   1.00
C40    C     2.63095   0.31997   0.23709   0.00000  Uiso   1.00
C41    C     2.59048   0.25942   0.11143   0.00000  Uiso   1.00
C42    C     2.53072   0.25226  -0.05864   0.00000  Uiso   1.00
C43    C     2.51282   0.30349  -0.10829   0.00000  Uiso   1.00
C44    C     2.22397   0.32447  -0.16242   0.00000  Uiso   1.00
C45    C     2.15723   0.27785  -0.13917   0.00000  Uiso   1.00
C46    C     2.10567   0.28899   0.03515   0.00000  Uiso   1.00
C47    C     2.12431   0.34894   0.17948   0.00000  Uiso   1.00
C48    C     2.19148   0.39519   0.15792   0.00000  Uiso   1.00
N49    N     2.92797   0.84330  -0.31922   0.00000  Uiso   1.00
C50    C     2.94871   0.90249  -0.45240   0.00000  Uiso   1.00
C51    C     3.02023   0.94718  -0.48716   0.00000  Uiso   1.00
C52    C     3.03978   1.01093  -0.64405   0.00000  Uiso   1.00
C53    C     3.10749   1.05615  -0.67677   0.00000  Uiso   1.00
C54    C     3.15627   1.03620  -0.54922   0.00000  Uiso   1.00
C55    C     3.13786   0.97130  -0.40338   0.00000  Uiso   1.00
C56    C     3.06982   0.92739  -0.36857   0.00000  Uiso   1.00
C57    C     3.20066   0.96651  -0.33140   0.00000  Uiso   1.00
C58    C     3.25402   1.02893  -0.42554   0.00000  Uiso   1.00
N59    N     3.22617   1.07051  -0.54646   0.00000  Uiso   1.00
C60    C     3.32259   1.04104  -0.40733   0.00000  Uiso   1.00
C61    C     3.33729   0.98917  -0.30865   0.00000  Uiso   1.00
C62    C     3.28517   0.92595  -0.22860   0.00000  Uiso   1.00
C63    C     3.21674   0.91514  -0.23109   0.00000  Uiso   1.00
C64    C     3.26511   1.13731  -0.68486   0.00000  Uiso   1.00
C65    C     3.23835   1.18342  -0.53883   0.00000  Uiso   1.00
C66    C     3.30245   0.87136  -0.18884   0.00000  Uiso   1.00
N67    N     3.04145   0.24187  -0.01844   0.00000  Uiso   1.00
C68    C     3.02089   0.18312  -0.10319   0.00000  Uiso   1.00
C69    C     2.94957   0.13826  -0.09226   0.00000  Uiso   1.00
C70    C     2.93120   0.07629  -0.21439   0.00000  Uiso   1.00
C71    C     2.86368   0.03136  -0.21584   0.00000  Uiso   1.00
C72    C     2.81415   0.05005  -0.09247   0.00000  Uiso   1.00
C73    C     2.83131   0.11282   0.02461   0.00000  Uiso   1.00
C74    C     2.89924   0.15653   0.02743   0.00000  Uiso   1.00
C75    C     2.76763   0.11661   0.09701   0.00000  Uiso   1.00
C76    C     2.71508   0.05594   0.02527   0.00000  Uiso   1.00
N77    N     2.74416   0.01595  -0.07642   0.00000  Uiso   1.00
C78    C     2.64639   0.04410   0.04365   0.00000  Uiso   1.00
C79    C     2.63099   0.09487   0.11789   0.00000  Uiso   1.00
C80    C     2.68239   0.15644   0.17869   0.00000  Uiso   1.00
C81    C     2.75065   0.16652   0.17934   0.00000  Uiso   1.00
C82    C     2.66543   0.21105   0.19206   0.00000  Uiso   1.00
N83    N     2.60501   0.20583   0.13622   0.00000  Uiso   1.00
C84    C     2.70878  -0.04750  -0.20520   0.00000  Uiso   1.00
C85    C     2.72640  -0.09909  -0.01162   0.00000  Uiso   1.00
N86    N     1.35570   0.88593  -0.05653   0.00000  Uiso   1.00
H87    H     2.22578   0.49272  -0.26539   0.00000  Uiso   1.00
H88    H     2.43517   0.54933  -0.06381   0.00000  Uiso   1.00
H89    H     2.28953   0.62321  -0.30154   0.00000  Uiso   1.00
H90    H     2.30092   0.30832   0.24441   0.00000  Uiso   1.00
H91    H     2.42094   0.30068   0.28018   0.00000  Uiso   1.00
H92    H     2.67536   0.46435  -0.26764   0.00000  Uiso   1.00
H93    H     2.73877   0.59460  -0.38101   0.00000  Uiso   1.00
H94    H     2.53030   0.53912  -0.06994   0.00000  Uiso   1.00
H95    H     2.66449   0.77959  -0.01512   0.00000  Uiso   1.00
H96    H     2.54476   0.78767   0.04195   0.00000  Uiso   1.00
H97    H     2.32313   0.67168   0.21833   0.00000  Uiso   1.00
H98    H     2.28976   0.76246   0.23025   0.00000  Uiso   1.00
H99    H     2.46479   0.88285  -0.47022   0.00000  Uiso   1.00
H100   H     2.49709   0.78996  -0.49061   0.00000  Uiso   1.00
H101   H     2.70100   0.77163  -0.57803   0.00000  Uiso   1.00
H102   H     2.82006   0.85485  -0.64863   0.00000  Uiso   1.00
H103   H     2.88203   0.73273   0.04485   0.00000  Uiso   1.00
H104   H     2.76093   0.64884   0.11659   0.00000  Uiso   1.00
H105   H     2.64261   0.41690   0.30380   0.00000  Uiso   1.00
H106   H     2.67592   0.32638   0.39103   0.00000  Uiso   1.00
H107   H     2.50051   0.20522  -0.16460   0.00000  Uiso   1.00
H108   H     2.46776   0.29791  -0.25850   0.00000  Uiso   1.00
H109   H     2.26337   0.31661  -0.31292   0.00000  Uiso   1.00
H110   H     2.14426   0.23347  -0.27825   0.00000  Uiso   1.00
H111   H     2.08399   0.35692   0.32056   0.00000  Uiso   1.00
H112   H     2.20536   0.44057   0.28725   0.00000  Uiso   1.00
H113   H     2.91299   0.92333  -0.54682   0.00000  Uiso   1.00
H114   H     2.99991   1.02460  -0.74627   0.00000  Uiso   1.00
H115   H     3.12168   1.10551  -0.80226   0.00000  Uiso   1.00
H116   H     3.05253   0.87707  -0.25115   0.00000  Uiso   1.00
H117   H     3.36396   1.08926  -0.48556   0.00000  Uiso   1.00
H118   H     3.39007   0.99463  -0.30599   0.00000  Uiso   1.00
H119   H     3.17623   0.86567  -0.17181   0.00000  Uiso   1.00
H120   H     3.26616   1.14017  -0.98450   0.00000  Uiso   1.00
H121   H     3.31831   1.15094  -0.61099   0.00000  Uiso   1.00
H122   H     3.19454   1.15675  -0.34268   0.00000  Uiso   1.00
H123   H     3.22055   1.20764  -0.75517   0.00000  Uiso   1.00
H124   H     3.27790   1.22186  -0.39691   0.00000  Uiso   1.00
H125   H     3.25841   0.82241  -0.15013   0.00000  Uiso   1.00
H126   H     3.05678   0.16290  -0.19295   0.00000  Uiso   1.00
H127   H     2.97181   0.06417  -0.31920   0.00000  Uiso   1.00
H128   H     2.85012  -0.01615  -0.32101   0.00000  Uiso   1.00
H129   H     2.91585   0.20562   0.11628   0.00000  Uiso   1.00
H130   H     2.60588  -0.00276  -0.01632   0.00000  Uiso   1.00
H131   H     2.57845   0.09009   0.11641   0.00000  Uiso   1.00
H132   H     2.79061   0.21466   0.22570   0.00000  Uiso   1.00
H133   H     2.70919   0.25876   0.22495   0.00000  Uiso   1.00
H134   H     2.72152  -0.04266  -0.49913   0.00000  Uiso   1.00
H135   H     2.65352  -0.06094  -0.17637   0.00000  Uiso   1.00
H136   H     2.73532  -0.12964  -0.20621   0.00000  Uiso   1.00
H137   H     2.68584  -0.13158   0.18950   0.00000  Uiso   1.00
H138   H     2.77401  -0.07638   0.13262   0.00000  Uiso   1.00
loop_
_geom_bond_atom_site_label_1
_geom_bond_atom_site_label_2
_geom_bond_distance
_geom_bond_site_symmetry_2
_ccdc_geom_bond_type
C1     C2      1.431   .     D
C1     C5      1.365   .     S
C1     H87     1.093   .     S
C2     N3      1.365   .     S
C2     C6      1.406   .     S
N3     C4      1.366   .     S
N3     H88     1.035   .     S
C4     C5      1.428   .     D
C4     C24     1.403   .     S
C5     H89     1.093   .     S
C6     C11     1.413   .     D
C6     C25     1.464   .     S
C7     C8      1.351   .     D
C7     C11     1.461   .     S
C7     H90     1.093   .     S
C8     C9      1.461   .     S
C8     H91     1.103   .     S
C9     N10     1.367   .     D
C9     C12     1.411   .     S
N10    C11     1.361   .     S
C12    C13     1.410   .     D
C12    C27     1.465   .     S
C13    C14     1.432   .     S
C13    N17     1.364   .     S
C14    C15     1.367   .     D
C14    H92     1.089   .     S
C15    C16     1.428   .     S
C15    H93     1.098   .     S
C16    N17     1.371   .     S
C16    C18     1.402   .     D
N17    H94     1.035   .     S
C18    C21     1.413   .     S
C18    C28     1.465   .     S
C19    N20     1.364   .     S
C19    C23     1.451   .     S
C19    C24     1.409   .     D
N20    C21     1.358   .     D
C21    C22     1.449   .     S
C22    C23     1.350   .     D
C22    H95     1.088   .     S
C23    H96     1.098   .     S
C24    C26     1.463   .     S
C25    C44     1.433   .     S
C25    C48     1.436   .     D
C26    C29     1.444   .     D
C26    C33     1.439   .     S
C27    C39     1.442   .     D
C27    C43     1.424   .     S
C28    C34     1.449   .     S
C28    C38     1.437   .     D
C29    C30     1.379   .     S
C29    H97     1.130   .     S
C30    C31     1.437   .     D
C30    H98     1.139   .     S
C31    C32     1.439   .     S
C31    N86     1.569   1_655 S
C32    C33     1.378   .     D
C32    H99     1.127   .     S
C33    H100    1.135   .     S
C34    C35     1.377   .     D
C34    H101    1.128   .     S
C35    C36     1.438   .     S
C35    H102    1.144   .     S
C36    C37     1.442   .     D
C36    N49     1.381   .     S
C37    C38     1.381   .     S
C37    H103    1.126   .     S
C38    H104    1.138   .     S
C39    C40     1.381   .     S
C39    H105    1.118   .     S
C40    C41     1.424   .     D
C40    H106    1.136   .     S
C41    C42     1.437   .     S
C41    N83     1.381   .     S
C42    C43     1.381   .     D
C42    H107    1.117   .     S
C43    H108    1.132   .     S
C44    C45     1.376   .     D
C44    H109    1.128   .     S
C45    C46     1.437   .     S
C45    H110    1.130   .     S
C46    C47     1.427   .     D
C46    N67     1.380   1_455 S
C47    C48     1.380   .     S
C47    H111    1.125   .     S
C48    H112    1.124   .     S
N49    C50     1.302   .     D
C50    C51     1.441   .     S
C50    H113    1.128   .     S
C51    C52     1.430   .     S
C51    C56     1.413   .     D
C52    C53     1.382   .     D
C52    H114    1.115   .     S
C53    C54     1.412   .     S
C53    H115    1.117   .     S
C54    C55     1.440   .     D
C54    N59     1.375   .     S
C55    C56     1.379   .     S
C55    C57     1.443   .     S
C56    H116    1.114   .     S
C57    C58     1.418   .     S
C57    C63     1.395   .     D
C58    N59     1.393   .     S
C58    C60     1.392   .     D
N59    C64     1.456   .     S
C60    C61     1.386   .     S
C60    H117    1.102   .     S
C61    C62     1.410   .     D
C61    H118    1.094   .     S
C62    C63     1.393   .     S
C62    C66     1.442   .     S
C63    H119    1.099   .     S
C64    C65     1.548   .     S
C64    H120    1.240   .     S
C64    H121    1.112   .     S
C65    H122    1.158   .     S
C65    H123    1.176   .     S
C65    H124    1.139   .     S
C66    N86     1.209   1_755 D
C66    H125    1.113   .     S
N67    C46     1.380   1_655 S
N67    C68     1.294   .     D
C68    C69     1.439   .     S
C68    H126    1.127   .     S
C69    C70     1.426   .     S
C69    C74     1.413   .     D
C70    C71     1.381   .     D
C70    H127    1.115   .     S
C71    C72     1.410   .     S
C71    H128    1.116   .     S
C72    C73     1.438   .     D
C72    N77     1.373   .     S
C73    C74     1.380   .     S
C73    C75     1.443   .     S
C74    H129    1.111   .     S
C75    C76     1.421   .     D
C75    C81     1.395   .     S
C76    N77     1.390   .     S
C76    C78     1.391   .     S
N77    C84     1.462   .     S
C78    C79     1.384   .     D
C78    H130    1.103   .     S
C79    C80     1.413   .     S
C79    H131    1.094   .     S
C80    C81     1.394   .     D
C80    C82     1.442   .     S
C81    H132    1.101   .     S
C82    N83     1.287   .     D
C82    H133    1.115   .     S
C84    C85     1.559   .     S
C84    H134    1.232   .     S
C84    H135    1.101   .     S
C85    H136    1.166   .     S
C85    H137    1.160   .     S
C85    H138    1.139   .     S
N86    C66     1.209   1_355 D
N86    C31     1.569   1_455 S
