data_155
_audit_creation_date              2023-09-08
_audit_creation_method            'Materials Studio'
_symmetry_space_group_name_H-M    'P1'
_symmetry_Int_Tables_number       1
_symmetry_cell_setting            triclinic
loop_
_symmetry_equiv_pos_as_xyz
  x,y,z
_cell_length_a                    22.0400
_cell_length_b                    22.0400
_cell_length_c                    3.7290
_cell_angle_alpha                 90.0000
_cell_angle_beta                  90.0000
_cell_angle_gamma                 120.0000
loop_
_atom_site_label
_atom_site_type_symbol
_atom_site_fract_x
_atom_site_fract_y
_atom_site_fract_z
_atom_site_U_iso_or_equiv
_atom_site_adp_type
_atom_site_occupancy
C1     C     0.73676   0.38428   0.50000   0.00000  Uiso   1.00
C2     C     0.61572   0.35248   0.50000   0.00000  Uiso   1.00
C3     C     0.64752   0.26324   0.50000   0.00000  Uiso   1.00
C4     C     0.26324   0.61572   0.50000   0.00000  Uiso   1.00
C5     C     0.38428   0.64752   0.50000   0.00000  Uiso   1.00
C6     C     0.35248   0.73676   0.50000   0.00000  Uiso   1.00
C7     C     0.68630   0.40374   0.50000   0.00000  Uiso   1.00
C8     C     0.59626   0.28256   0.50000   0.00000  Uiso   1.00
C9     C     0.71744   0.31370   0.50000   0.00000  Uiso   1.00
C10    C     0.31370   0.59626   0.50000   0.00000  Uiso   1.00
C11    C     0.40374   0.71744   0.50000   0.00000  Uiso   1.00
C12    C     0.28256   0.68630   0.50000   0.00000  Uiso   1.00
C13    C     0.80937   0.43766   0.50000   0.00000  Uiso   1.00
C14    C     0.56234   0.37171   0.50000   0.00000  Uiso   1.00
C15    C     0.62829   0.19063   0.50000   0.00000  Uiso   1.00
C16    C     0.19063   0.56234   0.50000   0.00000  Uiso   1.00
C17    C     0.43766   0.62829   0.50000   0.00000  Uiso   1.00
C18    C     0.37171   0.80937   0.50000   0.00000  Uiso   1.00
N19    N     0.85496   0.41780   0.50000   0.00000  Uiso   1.00
N20    N     0.58220   0.43716   0.50000   0.00000  Uiso   1.00
N21    N     0.56284   0.14504   0.50000   0.00000  Uiso   1.00
N22    N     0.14504   0.58220   0.50000   0.00000  Uiso   1.00
N23    N     0.41780   0.56284   0.50000   0.00000  Uiso   1.00
N24    N     0.43716   0.85496   0.50000   0.00000  Uiso   1.00
C25    C     0.92807   0.46088   0.50000   0.00000  Uiso   1.00
C26    C     0.53912   0.46719   0.50000   0.00000  Uiso   1.00
C27    C     0.53281   0.07193   0.50000   0.00000  Uiso   1.00
C28    C     0.07193   0.53912   0.50000   0.00000  Uiso   1.00
C29    C     0.46088   0.53281   0.50000   0.00000  Uiso   1.00
C30    C     0.46719   0.92807   0.50000   0.00000  Uiso   1.00
C31    C     0.96696   0.42724   0.50000   0.00000  Uiso   1.00
C32    C     0.57276   0.53972   0.50000   0.00000  Uiso   1.00
C33    C     0.46028   0.03304   0.50000   0.00000  Uiso   1.00
C34    C     0.03304   0.57276   0.50000   0.00000  Uiso   1.00
C35    C     0.42724   0.46028   0.50000   0.00000  Uiso   1.00
C36    C     0.53972   0.96696   0.50000   0.00000  Uiso   1.00
C37    C     0.03890   0.46595   0.50000   0.00000  Uiso   1.00
C38    C     0.53405   0.57295   0.50000   0.00000  Uiso   1.00
C39    C     0.42705   0.96110   0.50000   0.00000  Uiso   1.00
C40    C     0.96110   0.53405   0.50000   0.00000  Uiso   1.00
C41    C     0.46595   0.42705   0.50000   0.00000  Uiso   1.00
C42    C     0.57295   0.03890   0.50000   0.00000  Uiso   1.00
H43    H     0.70235   0.45878   0.50000   0.00000  Uiso   1.00
H44    H     0.54122   0.24357   0.50000   0.00000  Uiso   1.00
H45    H     0.75643   0.29765   0.50000   0.00000  Uiso   1.00
H46    H     0.29765   0.54122   0.50000   0.00000  Uiso   1.00
H47    H     0.45878   0.75643   0.50000   0.00000  Uiso   1.00
H48    H     0.24357   0.70235   0.50000   0.00000  Uiso   1.00
H49    H     0.82347   0.49198   0.50000   0.00000  Uiso   1.00
H50    H     0.50802   0.33149   0.50000   0.00000  Uiso   1.00
H51    H     0.66851   0.17653   0.50000   0.00000  Uiso   1.00
H52    H     0.17653   0.50802   0.50000   0.00000  Uiso   1.00
H53    H     0.49198   0.66851   0.50000   0.00000  Uiso   1.00
H54    H     0.33149   0.82347   0.50000   0.00000  Uiso   1.00
H55    H     0.94114   0.37073   0.50000   0.00000  Uiso   1.00
H56    H     0.62927   0.57041   0.50000   0.00000  Uiso   1.00
H57    H     0.42959   0.05886   0.50000   0.00000  Uiso   1.00
H58    H     0.05886   0.62927   0.50000   0.00000  Uiso   1.00
H59    H     0.37073   0.42959   0.50000   0.00000  Uiso   1.00
H60    H     0.57041   0.94114   0.50000   0.00000  Uiso   1.00
H61    H     0.06724   0.43798   0.50000   0.00000  Uiso   1.00
H62    H     0.56202   0.62926   0.50000   0.00000  Uiso   1.00
H63    H     0.37074   0.93276   0.50000   0.00000  Uiso   1.00
H64    H     0.93276   0.56202   0.50000   0.00000  Uiso   1.00
H65    H     0.43798   0.37074   0.50000   0.00000  Uiso   1.00
H66    H     0.62926   0.06724   0.50000   0.00000  Uiso   1.00
loop_
_geom_bond_atom_site_label_1
_geom_bond_atom_site_label_2
_geom_bond_distance
_geom_bond_site_symmetry_2
_ccdc_geom_bond_type
C1     C7      1.378   .     S
C1     C9      1.392   .     D
C1     C13     1.436   .     S
C2     C7      1.392   .     D
C2     C8      1.378   .     S
C2     C14     1.436   .     S
C3     C8      1.392   .     D
C3     C9      1.378   .     S
C3     C15     1.436   .     S
C4     C10     1.378   .     D
C4     C12     1.392   .     S
C4     C16     1.436   .     S
C5     C10     1.392   .     S
C5     C11     1.378   .     D
C5     C17     1.436   .     S
C6     C11     1.392   .     S
C6     C12     1.378   .     D
C6     C18     1.436   .     S
C7     H43     1.081   .     S
C8     H44     1.081   .     S
C9     H45     1.081   .     S
C10    H46     1.081   .     S
C11    H47     1.081   .     S
C12    H48     1.081   .     S
C13    N19     1.281   .     D
C13    H49     1.076   .     S
C14    N20     1.281   .     D
C14    H50     1.076   .     S
C15    N21     1.281   .     D
C15    H51     1.076   .     S
C16    N22     1.281   .     D
C16    H52     1.076   .     S
C17    N23     1.281   .     D
C17    H53     1.076   .     S
C18    N24     1.281   .     D
C18    H54     1.076   .     S
N19    C25     1.403   .     S
N20    C26     1.403   .     S
N21    C27     1.403   .     S
N22    C28     1.403   .     S
N23    C29     1.403   .     S
N24    C30     1.403   .     S
C25    C31     1.386   .     S
C25    C40     1.399   .     D
C26    C32     1.386   .     D
C26    C41     1.399   .     S
C27    C33     1.386   .     S
C27    C42     1.399   .     D
C28    C34     1.386   .     D
C28    C37     1.399   .     S
C29    C35     1.386   .     S
C29    C38     1.399   .     D
C30    C36     1.386   .     D
C30    C39     1.399   .     S
C31    C37     1.374   1_655 D
C31    H55     1.080   .     S
C32    C38     1.374   .     S
C32    H56     1.080   .     S
C33    C39     1.374   1_545 D
C33    H57     1.080   .     S
C34    C40     1.374   1_455 S
C34    H58     1.080   .     S
C35    C41     1.374   .     D
C35    H59     1.080   .     S
C36    C42     1.374   1_565 S
C36    H60     1.080   .     S
C37    C31     1.374   1_455 D
C37    H61     1.075   .     S
C38    H62     1.075   .     S
C39    C33     1.374   1_565 D
C39    H63     1.075   .     S
C40    C34     1.374   1_655 S
C40    H64     1.075   .     S
C41    H65     1.075   .     S
C42    C36     1.374   1_545 S
C42    H66     1.075   .     S
