data_156
_audit_creation_date              2023-09-08
_audit_creation_method            'Materials Studio'
_symmetry_space_group_name_H-M    'P1'
_symmetry_Int_Tables_number       1
_symmetry_cell_setting            triclinic
loop_
_symmetry_equiv_pos_as_xyz
  x,y,z
_cell_length_a                    29.1310
_cell_length_b                    29.1310
_cell_length_c                    3.7030
_cell_angle_alpha                 90.0000
_cell_angle_beta                  90.0000
_cell_angle_gamma                 120.0000
loop_
_atom_site_label
_atom_site_type_symbol
_atom_site_fract_x
_atom_site_fract_y
_atom_site_fract_z
_atom_site_U_iso_or_equiv
_atom_site_adp_type
_atom_site_occupancy
C1     C     0.28258   0.14650   0.54982   0.00000  Uiso   1.00
C2     C     0.29629   0.10696   0.49543   0.00000  Uiso   1.00
C3     C     0.34700   0.12013   0.61474   0.00000  Uiso   1.00
C4     C     0.38562   0.17311   0.70955   0.00000  Uiso   1.00
C5     C     0.37106   0.21207   0.77136   0.00000  Uiso   1.00
C6     C     0.31849   0.19532   0.71878   0.00000  Uiso   1.00
O7     O     0.40949   0.26800   0.77293   0.00000  Uiso   1.00
C8     C     0.40048   0.30950   0.90239   0.00000  Uiso   1.00
C9     C     0.44787   0.36585   0.79601   0.00000  Uiso   1.00
C10    C     0.42953   0.40751   0.80231   0.00000  Uiso   1.00
S11    S     0.48107   0.47429   0.65301   0.00000  Uiso   1.00
C12    C     0.43672   0.49974   0.51523   0.00000  Uiso   1.00
C13    C     0.46882   0.55558   0.35032   0.00000  Uiso   1.00
O14    O     0.26179   0.05772   0.31208   0.00000  Uiso   1.00
C15    C     0.27468   0.01591   0.32481   0.00000  Uiso   1.00
C16    C     0.22538   0.96277   0.22463   0.00000  Uiso   1.00
C17    C     0.23717   0.91724   0.16038   0.00000  Uiso   1.00
S18    S     0.17755   0.85351   0.23756   0.00000  Uiso   1.00
C19    C     0.20747   0.81168   0.19797   0.00000  Uiso   1.00
C20    C     0.16719   0.75527   0.32397   0.00000  Uiso   1.00
C21    C     0.44010   0.18724   0.63322   0.00000  Uiso   1.00
N22    N     0.48127   0.23811   0.63959   0.00000  Uiso   1.00
O23    O     0.44729   0.15379   0.48489   0.00000  Uiso   1.00
N24    N     0.52597   0.25346   0.42527   0.00000  Uiso   1.00
C25    C     0.56272   0.30257   0.40008   0.00000  Uiso   1.00
C26    C     0.61182   0.31673   0.21245   0.00000  Uiso   1.00
C27    C     0.62714   0.27890   0.18264   0.00000  Uiso   1.00
C28    C     0.23047   0.13923   0.47306   0.00000  Uiso   1.00
O29    O     0.22310   0.17578   0.55073   0.00000  Uiso   1.00
N30    N     0.18724   0.09111   0.40267   0.00000  Uiso   1.00
N31    N     0.13907   0.07845   0.56076   0.00000  Uiso   1.00
C32    C     0.10550   0.03003   0.64745   0.00000  Uiso   1.00
C33    C     0.05481   0.01681   0.80567   0.00000  Uiso   1.00
C34    C     0.03920   0.05455   0.83466   0.00000  Uiso   1.00
H35    H     0.35942   0.09098   0.58345   0.00000  Uiso   1.00
H36    H     0.30654   0.22291   0.79477   0.00000  Uiso   1.00
H37    H     0.39702   0.30606   1.19732   0.00000  Uiso   1.00
H38    H     0.36260   0.30556   0.79923   0.00000  Uiso   1.00
H39    H     0.46307   0.36475   0.52321   0.00000  Uiso   1.00
H40    H     0.48466   0.38013   0.96914   0.00000  Uiso   1.00
H41    H     0.41844   0.41031   1.08152   0.00000  Uiso   1.00
H42    H     0.39212   0.39417   0.64888   0.00000  Uiso   1.00
H43    H     0.41033   0.49827   0.73890   0.00000  Uiso   1.00
H44    H     0.40884   0.47358   0.30463   0.00000  Uiso   1.00
H45    H     0.49865   0.55485   0.16613   0.00000  Uiso   1.00
H46    H     0.48933   0.58519   0.56493   0.00000  Uiso   1.00
H47    H     0.44169   0.56520   0.19750   0.00000  Uiso   1.00
H48    H     0.28865   0.01216   0.59514   0.00000  Uiso   1.00
H49    H     0.30844   0.02559   0.14188   0.00000  Uiso   1.00
H50    H     0.20769   0.96878  -0.01965   0.00000  Uiso   1.00
H51    H     0.19343   0.95115   0.42988   0.00000  Uiso   1.00
H52    H     0.26986   0.91982   0.33012   0.00000  Uiso   1.00
H53    H     0.24945   0.91752  -0.12108   0.00000  Uiso   1.00
H54    H     0.24557   0.82840   0.35262   0.00000  Uiso   1.00
H55    H     0.21863   0.81084  -0.08528   0.00000  Uiso   1.00
H56    H     0.18887   0.73705   0.45605   0.00000  Uiso   1.00
H57    H     0.13865   0.72907   0.10945   0.00000  Uiso   1.00
H58    H     0.13970   0.75626   0.53588   0.00000  Uiso   1.00
H59    H     0.48077   0.26544   0.81520   0.00000  Uiso   1.00
H60    H     0.55983   0.33299   0.54578   0.00000  Uiso   1.00
H61    H     0.59765   0.23762   0.21115   0.00000  Uiso   1.00
H62    H     0.19066   0.06136   0.27340   0.00000  Uiso   1.00
H63    H     0.11416   0.99833   0.59811   0.00000  Uiso   1.00
H64    H     0.06755   0.09637   0.82305   0.00000  Uiso   1.00
C65    C     0.85350   0.13608   0.54982   0.00000  Uiso   1.00
C66    C     0.89304   0.18933   0.49543   0.00000  Uiso   1.00
C67    C     0.87987   0.22687   0.61474   0.00000  Uiso   1.00
C68    C     0.82689   0.21251   0.70955   0.00000  Uiso   1.00
C69    C     0.78793   0.15899   0.77136   0.00000  Uiso   1.00
C70    C     0.80468   0.12317   0.71878   0.00000  Uiso   1.00
O71    O     0.73200   0.14149   0.77293   0.00000  Uiso   1.00
C72    C     0.69050   0.09098   0.90239   0.00000  Uiso   1.00
C73    C     0.63415   0.08202   0.79601   0.00000  Uiso   1.00
C74    C     0.59249   0.02202   0.80231   0.00000  Uiso   1.00
S75    S     0.52571   0.00678   0.65301   0.00000  Uiso   1.00
C76    C     0.50026   0.93698   0.51523   0.00000  Uiso   1.00
C77    C     0.44442   0.91324   0.35032   0.00000  Uiso   1.00
O78    O     0.94228   0.20407   0.31208   0.00000  Uiso   1.00
C79    C     0.98409   0.25877   0.32481   0.00000  Uiso   1.00
C80    C     0.03723   0.26261   0.22463   0.00000  Uiso   1.00
C81    C     0.08276   0.31993   0.16038   0.00000  Uiso   1.00
S82    S     0.14649   0.32404   0.23756   0.00000  Uiso   1.00
C83    C     0.18832   0.39579   0.19797   0.00000  Uiso   1.00
C84    C     0.24473   0.41192   0.32397   0.00000  Uiso   1.00
C85    C     0.81276   0.25286   0.63322   0.00000  Uiso   1.00
N86    N     0.76189   0.24316   0.63959   0.00000  Uiso   1.00
O87    O     0.84621   0.29350   0.48489   0.00000  Uiso   1.00
N88    N     0.74654   0.27251   0.42527   0.00000  Uiso   1.00
C89    C     0.69743   0.26015   0.40008   0.00000  Uiso   1.00
C90    C     0.68327   0.29509   0.21245   0.00000  Uiso   1.00
C91    C     0.72110   0.34824   0.18264   0.00000  Uiso   1.00
C92    C     0.86077   0.09124   0.47306   0.00000  Uiso   1.00
O93    O     0.82422   0.04732   0.55073   0.00000  Uiso   1.00
N94    N     0.90889   0.09613   0.40267   0.00000  Uiso   1.00
N95    N     0.92155   0.06062   0.56076   0.00000  Uiso   1.00
C96    C     0.96997   0.07547   0.64745   0.00000  Uiso   1.00
C97    C     0.98319   0.03800   0.80567   0.00000  Uiso   1.00
C98    C     0.94545   0.98465   0.83466   0.00000  Uiso   1.00
H99    H     0.90902   0.26844   0.58345   0.00000  Uiso   1.00
H100   H     0.77709   0.08363   0.79477   0.00000  Uiso   1.00
H101   H     0.69394   0.09096   1.19732   0.00000  Uiso   1.00
H102   H     0.69444   0.05704   0.79923   0.00000  Uiso   1.00
H103   H     0.63525   0.09832   0.52321   0.00000  Uiso   1.00
H104   H     0.61987   0.10453   0.96914   0.00000  Uiso   1.00
H105   H     0.58969   0.00813   1.08152   0.00000  Uiso   1.00
H106   H     0.60583   0.99795   0.64888   0.00000  Uiso   1.00
H107   H     0.50173   0.91206   0.73890   0.00000  Uiso   1.00
H108   H     0.52642   0.93526   0.30463   0.00000  Uiso   1.00
H109   H     0.44515   0.94380   0.16613   0.00000  Uiso   1.00
H110   H     0.41481   0.90414   0.56493   0.00000  Uiso   1.00
H111   H     0.43480   0.87649   0.19750   0.00000  Uiso   1.00
H112   H     0.98784   0.27649   0.59514   0.00000  Uiso   1.00
H113   H     0.97441   0.28285   0.14188   0.00000  Uiso   1.00
H114   H     0.03122   0.23891  -0.01965   0.00000  Uiso   1.00
H115   H     0.04885   0.24228   0.42988   0.00000  Uiso   1.00
H116   H     0.08018   0.35004   0.33012   0.00000  Uiso   1.00
H117   H     0.08248   0.33193  -0.12108   0.00000  Uiso   1.00
H118   H     0.17160   0.41717   0.35262   0.00000  Uiso   1.00
H119   H     0.18916   0.40779  -0.08528   0.00000  Uiso   1.00
H120   H     0.26295   0.45182   0.45605   0.00000  Uiso   1.00
H121   H     0.27093   0.40958   0.10945   0.00000  Uiso   1.00
H122   H     0.24374   0.38344   0.53588   0.00000  Uiso   1.00
H123   H     0.73456   0.21533   0.81520   0.00000  Uiso   1.00
H124   H     0.66701   0.22684   0.54578   0.00000  Uiso   1.00
H125   H     0.76238   0.36003   0.21115   0.00000  Uiso   1.00
H126   H     0.93864   0.12930   0.27340   0.00000  Uiso   1.00
H127   H     0.00167   0.11583   0.59811   0.00000  Uiso   1.00
H128   H     0.90363   0.97118   0.82305   0.00000  Uiso   1.00
C129   C     0.86392   0.71742   0.54982   0.00000  Uiso   1.00
C130   C     0.81067   0.70371   0.49543   0.00000  Uiso   1.00
C131   C     0.77313   0.65300   0.61474   0.00000  Uiso   1.00
C132   C     0.78749   0.61438   0.70955   0.00000  Uiso   1.00
C133   C     0.84101   0.62894   0.77136   0.00000  Uiso   1.00
C134   C     0.87683   0.68151   0.71878   0.00000  Uiso   1.00
O135   O     0.85851   0.59051   0.77293   0.00000  Uiso   1.00
C136   C     0.90902   0.59952   0.90239   0.00000  Uiso   1.00
C137   C     0.91798   0.55213   0.79601   0.00000  Uiso   1.00
C138   C     0.97798   0.57047   0.80231   0.00000  Uiso   1.00
S139   S     0.99322   0.51893   0.65301   0.00000  Uiso   1.00
C140   C     0.06302   0.56328   0.51523   0.00000  Uiso   1.00
C141   C     0.08676   0.53118   0.35032   0.00000  Uiso   1.00
O142   O     0.79593   0.73821   0.31208   0.00000  Uiso   1.00
C143   C     0.74123   0.72532   0.32481   0.00000  Uiso   1.00
C144   C     0.73739   0.77462   0.22463   0.00000  Uiso   1.00
C145   C     0.68007   0.76283   0.16038   0.00000  Uiso   1.00
S146   S     0.67596   0.82245   0.23756   0.00000  Uiso   1.00
C147   C     0.60421   0.79253   0.19797   0.00000  Uiso   1.00
C148   C     0.58808   0.83281   0.32397   0.00000  Uiso   1.00
C149   C     0.74714   0.55990   0.63322   0.00000  Uiso   1.00
N150   N     0.75684   0.51873   0.63959   0.00000  Uiso   1.00
O151   O     0.70650   0.55271   0.48489   0.00000  Uiso   1.00
N152   N     0.72749   0.47403   0.42527   0.00000  Uiso   1.00
C153   C     0.73985   0.43728   0.40008   0.00000  Uiso   1.00
C154   C     0.70491   0.38818   0.21245   0.00000  Uiso   1.00
C155   C     0.65176   0.37286   0.18264   0.00000  Uiso   1.00
C156   C     0.90876   0.76953   0.47306   0.00000  Uiso   1.00
O157   O     0.95268   0.77690   0.55073   0.00000  Uiso   1.00
N158   N     0.90387   0.81276   0.40267   0.00000  Uiso   1.00
N159   N     0.93938   0.86093   0.56076   0.00000  Uiso   1.00
C160   C     0.92453   0.89450   0.64745   0.00000  Uiso   1.00
C161   C     0.96200   0.94519   0.80567   0.00000  Uiso   1.00
C162   C     0.01535   0.96080   0.83466   0.00000  Uiso   1.00
H163   H     0.73156   0.64058   0.58345   0.00000  Uiso   1.00
H164   H     0.91637   0.69346   0.79477   0.00000  Uiso   1.00
H165   H     0.90904   0.60298   1.19732   0.00000  Uiso   1.00
H166   H     0.94296   0.63740   0.79923   0.00000  Uiso   1.00
H167   H     0.90168   0.53693   0.52321   0.00000  Uiso   1.00
H168   H     0.89547   0.51534   0.96914   0.00000  Uiso   1.00
H169   H     0.99187   0.58156   1.08152   0.00000  Uiso   1.00
H170   H     0.00205   0.60788   0.64888   0.00000  Uiso   1.00
H171   H     0.08794   0.58967   0.73890   0.00000  Uiso   1.00
H172   H     0.06474   0.59116   0.30463   0.00000  Uiso   1.00
H173   H     0.05620   0.50135   0.16613   0.00000  Uiso   1.00
H174   H     0.09586   0.51067   0.56493   0.00000  Uiso   1.00
H175   H     0.12351   0.55831   0.19750   0.00000  Uiso   1.00
H176   H     0.72351   0.71135   0.59514   0.00000  Uiso   1.00
H177   H     0.71715   0.69156   0.14188   0.00000  Uiso   1.00
H178   H     0.76109   0.79231  -0.01965   0.00000  Uiso   1.00
H179   H     0.75772   0.80657   0.42988   0.00000  Uiso   1.00
H180   H     0.64996   0.73014   0.33012   0.00000  Uiso   1.00
H181   H     0.66807   0.75055  -0.12108   0.00000  Uiso   1.00
H182   H     0.58283   0.75443   0.35262   0.00000  Uiso   1.00
H183   H     0.59221   0.78137  -0.08528   0.00000  Uiso   1.00
H184   H     0.54818   0.81113   0.45605   0.00000  Uiso   1.00
H185   H     0.59042   0.86135   0.10945   0.00000  Uiso   1.00
H186   H     0.61656   0.86030   0.53588   0.00000  Uiso   1.00
H187   H     0.78467   0.51923   0.81520   0.00000  Uiso   1.00
H188   H     0.77316   0.44017   0.54578   0.00000  Uiso   1.00
H189   H     0.63997   0.40235   0.21115   0.00000  Uiso   1.00
H190   H     0.87070   0.80934   0.27340   0.00000  Uiso   1.00
H191   H     0.88417   0.88584   0.59811   0.00000  Uiso   1.00
H192   H     0.02882   0.93245   0.82305   0.00000  Uiso   1.00
loop_
_geom_bond_atom_site_label_1
_geom_bond_atom_site_label_2
_geom_bond_distance
_geom_bond_site_symmetry_2
_ccdc_geom_bond_type
C1     C2      1.410   .     S
C1     C6      1.421   .     D
C1     C28     1.452   .     S
C2     C3      1.399   .     D
C2     O14     1.445   .     S
C3     C4      1.426   .     S
C3     H35     1.083   .     S
C4     C5      1.415   .     D
C4     C21     1.454   .     S
C5     C6      1.369   .     S
C5     O7      1.444   .     S
C6     H36     1.061   .     S
O7     C8      1.441   .     S
C8     C9      1.578   .     S
C8     H37     1.097   .     S
C8     H38     1.118   .     S
C9     C10     1.552   .     S
C9     H39     1.110   .     S
C9     H40     1.134   .     S
C10    S11     1.850   .     S
C10    H41     1.098   .     S
C10    H42     1.113   .     S
S11    C12     1.854   .     S
C12    C13     1.540   .     S
C12    H43     1.116   .     S
C12    H44     1.109   .     S
C13    H45     1.113   .     S
C13    H46     1.103   .     S
C13    H47     1.116   .     S
O14    C15     1.444   .     S
C15    C16     1.541   1_545 S
C15    H48     1.106   .     S
C15    H49     1.108   .     S
C16    C15     1.541   1_565 S
C16    C17     1.546   .     S
C16    H50     1.098   .     S
C16    H51     1.115   .     S
C17    S18     1.822   .     S
C17    H52     1.112   .     S
C17    H53     1.101   .     S
S18    C19     1.824   .     S
C19    C20     1.538   .     S
C19    H54     1.121   .     S
C19    H55     1.102   .     S
C20    H56     1.120   .     S
C20    H57     1.127   .     S
C20    H58     1.132   .     S
C21    N22     1.363   .     S
C21    O23     1.224   .     D
N22    N24     1.394   .     S
N22    H59     1.034   .     S
N24    C25     1.292   .     D
C25    C26     1.452   .     S
C25    H60     1.076   .     S
C26    C27     1.385   .     D
C26    C155    1.462   .     S
C27    H61     1.078   .     S
C27    C90     1.462   .     S
C28    O29     1.221   .     D
C28    N30     1.361   .     S
N30    N31     1.389   .     S
N30    H62     1.038   .     S
N31    C32     1.292   .     D
C32    C33     1.450   .     S
C32    H63     1.088   1_545 S
C33    C34     1.388   .     S
C33    C162    1.456   1_545 D
C34    H64     1.078   .     S
C34    C97     1.456   1_455 D
H63    C32     1.088   1_565 S
C65    C66     1.410   .     S
C65    C70     1.421   .     D
C65    C92     1.452   .     S
C66    C67     1.399   .     D
C66    O78     1.445   .     S
C67    C68     1.426   .     S
C67    H99     1.083   .     S
C68    C69     1.415   .     D
C68    C85     1.454   .     S
C69    C70     1.369   .     S
C69    O71     1.444   .     S
C70    H100    1.061   .     S
O71    C72     1.441   .     S
C72    C73     1.578   .     S
C72    H101    1.097   .     S
C72    H102    1.118   .     S
C73    C74     1.552   .     S
C73    H103    1.110   .     S
C73    H104    1.134   .     S
C74    S75     1.850   .     S
C74    H105    1.098   .     S
C74    H106    1.113   1_545 S
S75    C76     1.854   1_545 S
C76    S75     1.854   1_565 S
C76    C77     1.540   .     S
C76    H107    1.116   .     S
C76    H108    1.109   .     S
C77    H109    1.113   .     S
C77    H110    1.103   .     S
C77    H111    1.116   .     S
O78    C79     1.444   .     S
C79    C80     1.541   1_655 S
C79    H112    1.106   .     S
C79    H113    1.108   .     S
C80    C79     1.541   1_455 S
C80    C81     1.546   .     S
C80    H114    1.098   .     S
C80    H115    1.115   .     S
C81    S82     1.822   .     S
C81    H116    1.112   .     S
C81    H117    1.101   .     S
S82    C83     1.824   .     S
C83    C84     1.538   .     S
C83    H118    1.121   .     S
C83    H119    1.102   .     S
C84    H120    1.120   .     S
C84    H121    1.127   .     S
C84    H122    1.132   .     S
C85    N86     1.363   .     S
C85    O87     1.224   .     D
N86    N88     1.394   .     S
N86    H123    1.034   .     S
N88    C89     1.292   .     D
C89    C90     1.452   .     S
C89    H124    1.076   .     S
C90    C91     1.385   .     D
C91    H125    1.078   .     S
C91    C154    1.462   .     S
C92    O93     1.221   .     D
C92    N94     1.361   .     S
N94    N95     1.389   .     S
N94    H126    1.038   .     S
N95    C96     1.292   .     D
C96    C97     1.450   .     S
C96    H127    1.088   1_655 S
C97    C34     1.456   1_655 D
C97    C98     1.388   1_545 S
C98    C97     1.388   1_565 S
C98    H128    1.078   .     S
C98    C161    1.456   .     D
H106   C74     1.113   1_565 S
H127   C96     1.088   1_455 S
C129   C130    1.410   .     S
C129   C134    1.421   .     D
C129   C156    1.452   .     S
C130   C131    1.399   .     D
C130   O142    1.445   .     S
C131   C132    1.426   .     S
C131   H163    1.083   .     S
C132   C133    1.415   .     D
C132   C149    1.454   .     S
C133   C134    1.369   .     S
C133   O135    1.444   .     S
C134   H164    1.061   .     S
O135   C136    1.441   .     S
C136   C137    1.578   .     S
C136   H165    1.097   .     S
C136   H166    1.118   .     S
C137   C138    1.552   .     S
C137   H167    1.110   .     S
C137   H168    1.134   .     S
C138   S139    1.850   .     S
C138   H169    1.098   .     S
C138   H170    1.113   1_655 S
S139   C140    1.854   1_655 S
C140   S139    1.854   1_455 S
C140   C141    1.540   .     S
C140   H171    1.116   .     S
C140   H172    1.109   .     S
C141   H173    1.113   .     S
C141   H174    1.103   .     S
C141   H175    1.116   .     S
O142   C143    1.444   .     S
C143   C144    1.541   .     S
C143   H176    1.106   .     S
C143   H177    1.108   .     S
C144   C145    1.546   .     S
C144   H178    1.098   .     S
C144   H179    1.115   .     S
C145   S146    1.822   .     S
C145   H180    1.112   .     S
C145   H181    1.101   .     S
S146   C147    1.824   .     S
C147   C148    1.538   .     S
C147   H182    1.121   .     S
C147   H183    1.102   .     S
C148   H184    1.120   .     S
C148   H185    1.127   .     S
C148   H186    1.132   .     S
C149   N150    1.363   .     S
C149   O151    1.224   .     D
N150   N152    1.394   .     S
N150   H187    1.034   .     S
N152   C153    1.292   .     D
C153   C154    1.452   .     S
C153   H188    1.076   .     S
C154   C155    1.385   .     D
C155   H189    1.078   .     S
C156   O157    1.221   .     D
C156   N158    1.361   .     S
N158   N159    1.389   .     S
N158   H190    1.038   .     S
N159   C160    1.292   .     D
C160   C161    1.450   .     S
C160   H191    1.088   .     S
C161   C162    1.388   1_655 S
C162   C161    1.388   1_455 S
C162   C33     1.456   1_565 D
C162   H192    1.078   .     S
H170   C138    1.113   1_455 S
