data_157
_audit_creation_date              2023-09-08
_audit_creation_method            'Materials Studio'
_symmetry_space_group_name_H-M    'P1'
_symmetry_Int_Tables_number       1
_symmetry_cell_setting            triclinic
loop_
_symmetry_equiv_pos_as_xyz
  x,y,z
_cell_length_a                    18.7895
_cell_length_b                    18.7895
_cell_length_c                    3.6988
_cell_angle_alpha                 90.0000
_cell_angle_beta                  90.0000
_cell_angle_gamma                 120.0000
loop_
_atom_site_label
_atom_site_type_symbol
_atom_site_fract_x
_atom_site_fract_y
_atom_site_fract_z
_atom_site_U_iso_or_equiv
_atom_site_adp_type
_atom_site_occupancy
C1     C     0.71410   0.29548   0.61202   0.00000  Uiso   1.00
C2     C     0.62728   0.24871   0.60198   0.00000  Uiso   1.00
C3     C     0.58678   0.15679   0.60435   0.00000  Uiso   1.00
C4     C     0.52244   0.10984   0.42999   0.00000  Uiso   1.00
H5     H     0.61611   0.12958   0.76009   0.00000  Uiso   1.00
H6     H     0.49148   0.13367   0.26431   0.00000  Uiso   1.00
C7     C     0.76048   0.25357   0.66466   0.00000  Uiso   1.00
N8     N     0.79757   0.22026   0.70808   0.00000  Uiso   1.00
C9     C     0.56592   0.59777   0.58419   0.00000  Uiso   1.00
H10    H     0.62798   0.63053   0.69061   0.00000  Uiso   1.00
C11    C     0.51644   0.63376   0.60086   0.00000  Uiso   1.00
H12    H     0.54149   0.69291   0.73156   0.00000  Uiso   1.00
C13    C     0.43566   0.59279   0.46095   0.00000  Uiso   1.00
C14    C     0.40574   0.51348   0.31378   0.00000  Uiso   1.00
H15    H     0.34593   0.48049   0.18811   0.00000  Uiso   1.00
C16    C     0.45407   0.47619   0.31362   0.00000  Uiso   1.00
H17    H     0.42963   0.41521   0.20026   0.00000  Uiso   1.00
C18    C     0.53463   0.51857   0.44513   0.00000  Uiso   1.00
C19    C     0.29709   0.58454   0.46661   0.00000  Uiso   1.00
H20    H     0.26863   0.51862   0.46616   0.00000  Uiso   1.00
C21    C     0.38339   0.63248   0.46602   0.00000  Uiso   1.00
C22    C     0.70452   0.41862   0.61202   0.00000  Uiso   1.00
C23    C     0.75129   0.37857   0.60198   0.00000  Uiso   1.00
C24    C     0.84321   0.42999   0.60435   0.00000  Uiso   1.00
C25    C     0.89016   0.41260   0.42999   0.00000  Uiso   1.00
H26    H     0.87042   0.48653   0.76009   0.00000  Uiso   1.00
H27    H     0.86633   0.35781   0.26431   0.00000  Uiso   1.00
C28    C     0.74643   0.50691   0.66466   0.00000  Uiso   1.00
N29    N     0.77974   0.57731   0.70808   0.00000  Uiso   1.00
C30    C     0.40223   0.96815   0.58419   0.00000  Uiso   1.00
H31    H     0.36947   0.99745   0.69061   0.00000  Uiso   1.00
C32    C     0.36624   0.88268   0.60086   0.00000  Uiso   1.00
H33    H     0.30709   0.84858   0.73156   0.00000  Uiso   1.00
C34    C     0.40721   0.84287   0.46095   0.00000  Uiso   1.00
C35    C     0.48652   0.89226   0.31378   0.00000  Uiso   1.00
H36    H     0.51951   0.86544   0.18811   0.00000  Uiso   1.00
C37    C     0.52381   0.97788   0.31362   0.00000  Uiso   1.00
H38    H     0.58479   0.01442   0.20026   0.00000  Uiso   1.00
C39    C     0.48143   0.01606   0.44513   0.00000  Uiso   1.00
C40    C     0.41546   0.71255   0.46661   0.00000  Uiso   1.00
H41    H     0.48138   0.75001   0.46616   0.00000  Uiso   1.00
C42    C     0.36752   0.75091   0.46602   0.00000  Uiso   1.00
C43    C     0.58138   0.28590   0.61202   0.00000  Uiso   1.00
C44    C     0.62143   0.37272   0.60198   0.00000  Uiso   1.00
C45    C     0.57001   0.41322   0.60435   0.00000  Uiso   1.00
C46    C     0.58740   0.47756   0.42999   0.00000  Uiso   1.00
H47    H     0.51347   0.38389   0.76009   0.00000  Uiso   1.00
H48    H     0.64219   0.50852   0.26431   0.00000  Uiso   1.00
C49    C     0.49309   0.23952   0.66466   0.00000  Uiso   1.00
N50    N     0.42269   0.20243   0.70808   0.00000  Uiso   1.00
C51    C     0.03185   0.43408   0.58419   0.00000  Uiso   1.00
H52    H     0.00255   0.37202   0.69061   0.00000  Uiso   1.00
C53    C     0.11732   0.48356   0.60086   0.00000  Uiso   1.00
H54    H     0.15142   0.45851   0.73156   0.00000  Uiso   1.00
C55    C     0.15713   0.56434   0.46095   0.00000  Uiso   1.00
C56    C     0.10774   0.59426   0.31378   0.00000  Uiso   1.00
H57    H     0.13456   0.65407   0.18811   0.00000  Uiso   1.00
C58    C     0.02212   0.54593   0.31362   0.00000  Uiso   1.00
H59    H     0.98558   0.57037   0.20026   0.00000  Uiso   1.00
C60    C     0.98394   0.46537   0.44513   0.00000  Uiso   1.00
C61    C     0.28745   0.70291   0.46661   0.00000  Uiso   1.00
H62    H     0.24999   0.73137   0.46616   0.00000  Uiso   1.00
C63    C     0.24909   0.61661   0.46602   0.00000  Uiso   1.00
loop_
_geom_bond_atom_site_label_1
_geom_bond_atom_site_label_2
_geom_bond_distance
_geom_bond_site_symmetry_2
_ccdc_geom_bond_type
C1     C2      1.415   .     S
C1     C7      1.450   .     S
C1     C23     1.355   .     D
C2     C3      1.499   .     S
C2     C43     1.355   .     D
C3     C4      1.261   .     D
C3     H5      1.086   .     S
C4     H6      1.084   .     S
C4     C39     1.531   .     S
C7     N8      1.157   .     T
C9     H10     1.084   .     S
C9     C11     1.398   .     S
C9     C18     1.396   .     D
C11    H12     1.080   .     S
C11    C13     1.413   .     D
C13    C14     1.413   .     S
C13    C21     1.501   .     S
C14    H15     1.080   .     S
C14    C16     1.397   .     D
C16    H17     1.083   .     S
C16    C18     1.399   .     S
C18    C46     1.531   .     S
C19    H20     1.076   .     S
C19    C21     1.407   .     D
C19    C63     1.311   .     S
C21    C40     1.311   .     S
C22    C23     1.415   .     S
C22    C28     1.450   .     S
C22    C44     1.355   .     D
C23    C24     1.499   .     S
C24    C25     1.261   .     D
C24    H26     1.086   .     S
C25    H27     1.084   .     S
C25    C60     1.531   .     S
C28    N29     1.157   .     T
C30    H31     1.084   .     S
C30    C32     1.398   .     D
C30    C39     1.396   1_565 S
C32    H33     1.080   .     S
C32    C34     1.413   .     S
C34    C35     1.413   .     D
C34    C42     1.501   .     S
C35    H36     1.080   .     S
C35    C37     1.397   .     S
C37    H38     1.083   1_565 S
C37    C39     1.399   1_565 D
H38    C37     1.083   1_545 S
C39    C37     1.399   1_545 D
C39    C30     1.396   1_545 S
C40    H41     1.076   .     S
C40    C42     1.407   .     D
C42    C61     1.311   .     S
C43    C44     1.415   .     S
C43    C49     1.450   .     S
C44    C45     1.499   .     S
C45    C46     1.261   .     D
C45    H47     1.086   .     S
C46    H48     1.084   .     S
C49    N50     1.157   .     T
C51    H52     1.084   .     S
C51    C53     1.398   .     S
C51    C60     1.396   1_455 D
C53    H54     1.080   .     S
C53    C55     1.413   .     D
C55    C56     1.413   .     S
C55    C63     1.501   .     S
C56    H57     1.080   .     S
C56    C58     1.397   .     D
C58    H59     1.083   1_455 S
C58    C60     1.399   1_455 S
H59    C58     1.083   1_655 S
C60    C58     1.399   1_655 S
C60    C51     1.396   1_655 D
C61    H62     1.076   .     S
C61    C63     1.407   .     D
