data_158
_audit_creation_date              2023-09-08
_audit_creation_method            'Materials Studio'
_symmetry_space_group_name_H-M    'P1'
_symmetry_Int_Tables_number       1
_symmetry_cell_setting            triclinic
loop_
_symmetry_equiv_pos_as_xyz
  x,y,z
_cell_length_a                    44.1100
_cell_length_b                    44.1100
_cell_length_c                    4.0000
_cell_angle_alpha                 90.0000
_cell_angle_beta                  90.0000
_cell_angle_gamma                 120.0000
loop_
_atom_site_label
_atom_site_type_symbol
_atom_site_fract_x
_atom_site_fract_y
_atom_site_fract_z
_atom_site_U_iso_or_equiv
_atom_site_adp_type
_atom_site_occupancy
C1     C     0.68486   0.31491   0.82292   0.00000  Uiso   1.00
C2     C     0.70346   0.35158   0.82312   0.00000  Uiso   1.00
C3     C     0.87872   0.41669   0.99062   0.00000  Uiso   1.00
C4     C     0.91442   0.43488   0.91625   0.00000  Uiso   1.00
C5     C     0.92914   0.46628   0.73469   0.00000  Uiso   1.00
C6     C     0.90704   0.47829   0.61679   0.00000  Uiso   1.00
C7     C     0.87127   0.45995   0.68712   0.00000  Uiso   1.00
C8     C     0.85662   0.42909   0.87944   0.00000  Uiso   1.00
C9     C     0.96693   0.48491   0.64586   0.00000  Uiso   1.00
C10    C     0.98110   0.46539   0.50820   0.00000  Uiso   1.00
C11    C     0.01539   0.48177   0.39016   0.00000  Uiso   1.00
C12    C     0.03691   0.51820   0.41300   0.00000  Uiso   1.00
C13    C     0.02329   0.53778   0.56055   0.00000  Uiso   1.00
C14    C     0.98879   0.52166   0.68024   0.00000  Uiso   1.00
C15    C     0.07351   0.53575   0.28568   0.00000  Uiso   1.00
C16    C     0.09353   0.51904   0.30507   0.00000  Uiso   1.00
C17    C     0.12794   0.53564   0.18778   0.00000  Uiso   1.00
C18    C     0.14333   0.56955   0.05502   0.00000  Uiso   1.00
C19    C     0.12342   0.58622   0.03157   0.00000  Uiso   1.00
C20    C     0.08888   0.56949   0.14513   0.00000  Uiso   1.00
C21    C     0.81843   0.40865   0.95253   0.00000  Uiso   1.00
O22    O     0.80623   0.37924   1.06829   0.00000  Uiso   1.00
N23    N     0.79699   0.42253   0.89894   0.00000  Uiso   1.00
N24    N     0.76014   0.40278   0.90350   0.00000  Uiso   1.00
C25    C     0.74195   0.37017   0.81356   0.00000  Uiso   1.00
N26    N     0.20213   0.62228   0.03350   0.00000  Uiso   1.00
O27    O     0.19163   0.57134  -0.19914   0.00000  Uiso   1.00
C28    C     0.18045   0.58766  -0.04685   0.00000  Uiso   1.00
C29    C     0.25813   0.62589   0.02740   0.00000  Uiso   1.00
N30    N     0.23879   0.64026  -0.00526   0.00000  Uiso   1.00
C31    C     0.31381   0.68372   0.00084   0.00000  Uiso   1.00
C32    C     0.29654   0.64699   0.00212   0.00000  Uiso   1.00
C33    C     0.97705   0.54463   0.84796   0.00000  Uiso   1.00
H34    H     0.69906   0.30074   0.81914   0.00000  Uiso   1.00
H35    H     0.86843   0.39280   1.13520   0.00000  Uiso   1.00
H36    H     0.93053   0.42430   1.00046   0.00000  Uiso   1.00
H37    H     0.91728   0.50149   0.46292   0.00000  Uiso   1.00
H38    H     0.85530   0.46968   0.57988   0.00000  Uiso   1.00
H39    H     0.96522   0.43727   0.48261   0.00000  Uiso   1.00
H40    H     0.02468   0.46581   0.27315   0.00000  Uiso   1.00
H41    H     0.03974   0.56582   0.58901   0.00000  Uiso   1.00
H42    H     0.08299   0.49345   0.41847   0.00000  Uiso   1.00
H43    H     0.14296   0.52242   0.21065   0.00000  Uiso   1.00
H44    H     0.13441   0.61205  -0.07774   0.00000  Uiso   1.00
H45    H     0.07416   0.58294   0.11922   0.00000  Uiso   1.00
H46    H     0.80797   0.44953   0.87396   0.00000  Uiso   1.00
H47    H     0.75470   0.35622   0.72317   0.00000  Uiso   1.00
H48    H     0.19129   0.63655   0.13472   0.00000  Uiso   1.00
H49    H     0.24656   0.59855   0.09423   0.00000  Uiso   1.00
H50    H     0.29881   0.69707   0.00818   0.00000  Uiso   1.00
H51    H     0.95349   0.52948   1.00405   0.00000  Uiso   1.00
H52    H     0.97163   0.55943   0.65563   0.00000  Uiso   1.00
H53    H     0.99795   0.56361   1.01649   0.00000  Uiso   1.00
C54    C     0.68509   0.36995   0.82292   0.00000  Uiso   1.00
C55    C     0.64842   0.35188   0.82312   0.00000  Uiso   1.00
C56    C     0.58331   0.46203   0.99062   0.00000  Uiso   1.00
C57    C     0.56512   0.47954   0.91625   0.00000  Uiso   1.00
C58    C     0.53372   0.46286   0.73469   0.00000  Uiso   1.00
C59    C     0.52171   0.42875   0.61679   0.00000  Uiso   1.00
C60    C     0.54005   0.41132   0.68712   0.00000  Uiso   1.00
C61    C     0.57091   0.42753   0.87944   0.00000  Uiso   1.00
C62    C     0.51509   0.48202   0.64586   0.00000  Uiso   1.00
C63    C     0.53461   0.51571   0.50820   0.00000  Uiso   1.00
C64    C     0.51823   0.53362   0.39016   0.00000  Uiso   1.00
C65    C     0.48180   0.51871   0.41300   0.00000  Uiso   1.00
C66    C     0.46222   0.48551   0.56055   0.00000  Uiso   1.00
C67    C     0.47834   0.46713   0.68024   0.00000  Uiso   1.00
C68    C     0.46425   0.53776   0.28568   0.00000  Uiso   1.00
C69    C     0.48096   0.57449   0.30507   0.00000  Uiso   1.00
C70    C     0.46436   0.59230   0.18778   0.00000  Uiso   1.00
C71    C     0.43045   0.57378   0.05502   0.00000  Uiso   1.00
C72    C     0.41378   0.53720   0.03157   0.00000  Uiso   1.00
C73    C     0.43051   0.51939   0.14513   0.00000  Uiso   1.00
C74    C     0.59135   0.40978   0.95253   0.00000  Uiso   1.00
O75    O     0.62076   0.42699   1.06829   0.00000  Uiso   1.00
N76    N     0.57747   0.37446   0.89894   0.00000  Uiso   1.00
N77    N     0.59722   0.35736   0.90350   0.00000  Uiso   1.00
C78    C     0.62983   0.37178   0.81356   0.00000  Uiso   1.00
N79    N     0.37772   0.57985   0.03350   0.00000  Uiso   1.00
O80    O     0.42866   0.62029  -0.19914   0.00000  Uiso   1.00
C81    C     0.41234   0.59279  -0.04685   0.00000  Uiso   1.00
C82    C     0.37411   0.63224   0.02740   0.00000  Uiso   1.00
N83    N     0.35974   0.59853  -0.00526   0.00000  Uiso   1.00
C84    C     0.31628   0.63009   0.00084   0.00000  Uiso   1.00
C85    C     0.35301   0.64955   0.00212   0.00000  Uiso   1.00
C86    C     0.45537   0.43242   0.84796   0.00000  Uiso   1.00
H87    H     0.69926   0.39832   0.81914   0.00000  Uiso   1.00
H88    H     0.60720   0.47563   1.13520   0.00000  Uiso   1.00
H89    H     0.57570   0.50623   1.00046   0.00000  Uiso   1.00
H90    H     0.49851   0.41579   0.46292   0.00000  Uiso   1.00
H91    H     0.53032   0.38562   0.57988   0.00000  Uiso   1.00
H92    H     0.56273   0.52795   0.48261   0.00000  Uiso   1.00
H93    H     0.53419   0.55887   0.27315   0.00000  Uiso   1.00
H94    H     0.43418   0.47392   0.58901   0.00000  Uiso   1.00
H95    H     0.50655   0.58954   0.41847   0.00000  Uiso   1.00
H96    H     0.47758   0.62054   0.21065   0.00000  Uiso   1.00
H97    H     0.38795   0.52236  -0.07774   0.00000  Uiso   1.00
H98    H     0.41706   0.49122   0.11922   0.00000  Uiso   1.00
H99    H     0.55047   0.35844   0.87396   0.00000  Uiso   1.00
H100   H     0.64378   0.39848   0.72317   0.00000  Uiso   1.00
H101   H     0.36345   0.55474   0.13472   0.00000  Uiso   1.00
H102   H     0.40145   0.64801   0.09423   0.00000  Uiso   1.00
H103   H     0.30293   0.60174   0.00818   0.00000  Uiso   1.00
H104   H     0.47052   0.42401   1.00405   0.00000  Uiso   1.00
H105   H     0.44057   0.41220   0.65563   0.00000  Uiso   1.00
H106   H     0.43639   0.43434   1.01649   0.00000  Uiso   1.00
C107   C     0.63005   0.31514   0.82292   0.00000  Uiso   1.00
C108   C     0.64812   0.29654   0.82312   0.00000  Uiso   1.00
C109   C     0.53797   0.12128   0.99062   0.00000  Uiso   1.00
C110   C     0.52046   0.08558   0.91625   0.00000  Uiso   1.00
C111   C     0.53714   0.07086   0.73469   0.00000  Uiso   1.00
C112   C     0.57125   0.09296   0.61679   0.00000  Uiso   1.00
C113   C     0.58868   0.12873   0.68712   0.00000  Uiso   1.00
C114   C     0.57247   0.14338   0.87944   0.00000  Uiso   1.00
C115   C     0.51798   0.03307   0.64586   0.00000  Uiso   1.00
C116   C     0.48429   0.01890   0.50820   0.00000  Uiso   1.00
C117   C     0.46638   0.98461   0.39016   0.00000  Uiso   1.00
C118   C     0.48129   0.96309   0.41300   0.00000  Uiso   1.00
C119   C     0.51449   0.97671   0.56055   0.00000  Uiso   1.00
C120   C     0.53287   0.01121   0.68024   0.00000  Uiso   1.00
C121   C     0.46224   0.92649   0.28568   0.00000  Uiso   1.00
C122   C     0.42551   0.90647   0.30507   0.00000  Uiso   1.00
C123   C     0.40770   0.87206   0.18778   0.00000  Uiso   1.00
C124   C     0.42622   0.85667   0.05502   0.00000  Uiso   1.00
C125   C     0.46280   0.87658   0.03157   0.00000  Uiso   1.00
C126   C     0.48061   0.91112   0.14513   0.00000  Uiso   1.00
C127   C     0.59022   0.18157   0.95253   0.00000  Uiso   1.00
O128   O     0.57301   0.19377   1.06829   0.00000  Uiso   1.00
N129   N     0.62554   0.20301   0.89894   0.00000  Uiso   1.00
N130   N     0.64264   0.23986   0.90350   0.00000  Uiso   1.00
C131   C     0.62822   0.25805   0.81356   0.00000  Uiso   1.00
N132   N     0.42015   0.79787   0.03350   0.00000  Uiso   1.00
O133   O     0.37971   0.80837  -0.19914   0.00000  Uiso   1.00
C134   C     0.40721   0.81955  -0.04685   0.00000  Uiso   1.00
C135   C     0.36776   0.74187   0.02740   0.00000  Uiso   1.00
N136   N     0.40147   0.76121  -0.00526   0.00000  Uiso   1.00
C137   C     0.36991   0.68619   0.00084   0.00000  Uiso   1.00
C138   C     0.35045   0.70346   0.00212   0.00000  Uiso   1.00
C139   C     0.56758   0.02295   0.84796   0.00000  Uiso   1.00
H140   H     0.60168   0.30094   0.81914   0.00000  Uiso   1.00
H141   H     0.52437   0.13157   1.13520   0.00000  Uiso   1.00
H142   H     0.49377   0.06947   1.00046   0.00000  Uiso   1.00
H143   H     0.58421   0.08272   0.46292   0.00000  Uiso   1.00
H144   H     0.61438   0.14470   0.57988   0.00000  Uiso   1.00
H145   H     0.47205   0.03478   0.48261   0.00000  Uiso   1.00
H146   H     0.44113   0.97532   0.27315   0.00000  Uiso   1.00
H147   H     0.52608   0.96026   0.58901   0.00000  Uiso   1.00
H148   H     0.41046   0.91701   0.41847   0.00000  Uiso   1.00
H149   H     0.37946   0.85704   0.21065   0.00000  Uiso   1.00
H150   H     0.47764   0.86559  -0.07774   0.00000  Uiso   1.00
H151   H     0.50878   0.92584   0.11922   0.00000  Uiso   1.00
H152   H     0.64156   0.19203   0.87396   0.00000  Uiso   1.00
H153   H     0.60152   0.24530   0.72317   0.00000  Uiso   1.00
H154   H     0.44526   0.80871   0.13472   0.00000  Uiso   1.00
H155   H     0.35199   0.75344   0.09423   0.00000  Uiso   1.00
H156   H     0.39826   0.70119   0.00818   0.00000  Uiso   1.00
H157   H     0.57599   0.04651   1.00405   0.00000  Uiso   1.00
H158   H     0.58780   0.02837   0.65563   0.00000  Uiso   1.00
H159   H     0.56566   0.00205   1.01649   0.00000  Uiso   1.00
loop_
_geom_bond_atom_site_label_1
_geom_bond_atom_site_label_2
_geom_bond_distance
_geom_bond_site_symmetry_2
_ccdc_geom_bond_type
C1     C2      1.401   .     D
C1     H34     1.084   .     S
C1     C108    1.403   .     S
C2     C25     1.471   .     S
C2     C54     1.403   .     S
C3     C4      1.396   .     D
C3     C8      1.407   .     S
C3     H35     1.083   .     S
C4     C5      1.403   .     S
C4     H36     1.081   .     S
C5     C6      1.403   .     D
C5     C9      1.487   .     S
C6     C7      1.395   .     S
C6     H37     1.081   .     S
C7     C8      1.408   .     D
C7     H38     1.080   .     S
C8     C21     1.489   .     S
C9     C10     1.405   .     D
C9     C14     1.419   .     S
C10    C11     1.393   1_655 S
C10    H39     1.082   .     S
C11    C10     1.393   1_455 S
C11    C12     1.402   .     D
C11    H40     1.082   .     S
C12    C13     1.405   .     S
C12    C15     1.488   .     S
C13    C14     1.403   1_455 D
C13    H41     1.082   .     S
C14    C13     1.403   1_655 D
C14    C33     1.506   .     S
C15    C16     1.407   .     D
C15    C20     1.408   .     S
C16    C17     1.396   .     S
C16    H42     1.082   .     S
C17    C18     1.402   .     D
C17    H43     1.083   .     S
C18    C19     1.402   .     S
C18    C28     1.476   .     S
C19    C20     1.396   .     D
C19    H44     1.083   .     S
C20    H45     1.081   .     S
C21    O22     1.220   .     D
C21    N23     1.376   .     S
N23    N24     1.409   .     S
N23    H46     1.042   .     S
N24    C25     1.299   .     D
C25    H47     1.082   .     S
N26    C28     1.375   .     S
N26    N30     1.409   .     S
N26    H48     1.044   .     S
O27    C28     1.220   .     D
C29    N30     1.299   .     D
C29    C32     1.473   .     S
C29    H49     1.082   .     S
C31    C32     1.404   .     D
C31    H50     1.084   .     S
C31    C138    1.401   .     S
C32    C84     1.401   .     S
C33    H51     1.105   .     S
C33    H52     1.110   .     S
C33    H53     1.111   .     S
C54    C55     1.401   .     D
C54    H87     1.084   .     S
C55    C78     1.471   .     S
C55    C107    1.403   .     S
C56    C57     1.396   .     S
C56    C61     1.407   .     D
C56    H88     1.083   .     S
C57    C58     1.403   .     D
C57    H89     1.081   .     S
C58    C59     1.403   .     S
C58    C62     1.487   .     S
C59    C60     1.395   .     D
C59    H90     1.081   .     S
C60    C61     1.408   .     S
C60    H91     1.080   .     S
C61    C74     1.489   .     S
C62    C63     1.405   .     S
C62    C67     1.419   .     D
C63    C64     1.393   .     D
C63    H92     1.082   .     S
C64    C65     1.402   .     S
C64    H93     1.082   .     S
C65    C66     1.405   .     D
C65    C68     1.488   .     S
C66    C67     1.403   .     S
C66    H94     1.082   .     S
C67    C86     1.506   .     S
C68    C69     1.407   .     S
C68    C73     1.408   .     D
C69    C70     1.396   .     D
C69    H95     1.082   .     S
C70    C71     1.402   .     S
C70    H96     1.083   .     S
C71    C72     1.402   .     D
C71    C81     1.476   .     S
C72    C73     1.396   .     S
C72    H97     1.083   .     S
C73    H98     1.081   .     S
C74    O75     1.220   .     D
C74    N76     1.376   .     S
N76    N77     1.409   .     S
N76    H99     1.042   .     S
N77    C78     1.299   .     D
C78    H100    1.082   .     S
N79    C81     1.375   .     S
N79    N83     1.409   .     S
N79    H101    1.044   .     S
O80    C81     1.220   .     D
C82    N83     1.299   .     D
C82    C85     1.473   .     S
C82    H102    1.082   .     S
C84    C85     1.404   .     D
C84    H103    1.084   .     S
C85    C137    1.401   .     S
C86    H104    1.105   .     S
C86    H105    1.110   .     S
C86    H106    1.111   .     S
C107   C108    1.401   .     D
C107   H140    1.084   .     S
C108   C131    1.471   .     S
C109   C110    1.396   .     S
C109   C114    1.407   .     D
C109   H141    1.083   .     S
C110   C111    1.403   .     D
C110   H142    1.081   .     S
C111   C112    1.403   .     S
C111   C115    1.487   .     S
C112   C113    1.395   .     D
C112   H143    1.081   .     S
C113   C114    1.408   .     S
C113   H144    1.080   .     S
C114   C127    1.489   .     S
C115   C116    1.405   .     S
C115   C120    1.419   .     D
C116   C117    1.393   1_545 D
C116   H145    1.082   .     S
C117   C116    1.393   1_565 D
C117   C118    1.402   .     S
C117   H146    1.082   .     S
C118   C119    1.405   .     D
C118   C121    1.488   .     S
C119   C120    1.403   1_565 S
C119   H147    1.082   .     S
C120   C119    1.403   1_545 S
C120   C139    1.506   .     S
C121   C122    1.407   .     S
C121   C126    1.408   .     D
C122   C123    1.396   .     D
C122   H148    1.082   .     S
C123   C124    1.402   .     S
C123   H149    1.083   .     S
C124   C125    1.402   .     D
C124   C134    1.476   .     S
C125   C126    1.396   .     S
C125   H150    1.083   .     S
C126   H151    1.081   .     S
C127   O128    1.220   .     D
C127   N129    1.376   .     S
N129   N130    1.409   .     S
N129   H152    1.042   .     S
N130   C131    1.299   .     D
C131   H153    1.082   .     S
N132   C134    1.375   .     S
N132   N136    1.409   .     S
N132   H154    1.044   .     S
O133   C134    1.220   .     D
C135   N136    1.299   .     D
C135   C138    1.473   .     S
C135   H155    1.082   .     S
C137   C138    1.404   .     D
C137   H156    1.084   .     S
C139   H157    1.105   .     S
C139   H158    1.110   .     S
C139   H159    1.111   .     S
