data_159
_audit_creation_date              2023-09-08
_audit_creation_method            'Materials Studio'
_symmetry_space_group_name_H-M    'P1'
_symmetry_Int_Tables_number       1
_symmetry_cell_setting            triclinic
loop_
_symmetry_equiv_pos_as_xyz
  x,y,z
_cell_length_a                    22.7117
_cell_length_b                    22.7117
_cell_length_c                    3.4960
_cell_angle_alpha                 90.0000
_cell_angle_beta                  90.0000
_cell_angle_gamma                 120.0000
loop_
_atom_site_label
_atom_site_type_symbol
_atom_site_fract_x
_atom_site_fract_y
_atom_site_fract_z
_atom_site_U_iso_or_equiv
_atom_site_adp_type
_atom_site_occupancy
C1     C     0.64475   0.38108   0.50000   0.00000  Uiso   1.00
C2     C     0.59721   0.31137   0.50000   0.00000  Uiso   1.00
C3     C     0.62316   0.43195   0.50000   0.00000  Uiso   1.00
N4     N     0.55938   0.41422   0.50000   0.00000  Uiso   1.00
C5     C     0.53135   0.45902   0.50000   0.00000  Uiso   1.00
C6     C     0.57166   0.53101   0.50000   0.00000  Uiso   1.00
C7     C     0.53990   0.57124   0.50000   0.00000  Uiso   1.00
H8     H     0.54051   0.29343   0.50000   0.00000  Uiso   1.00
H9     H     0.66308   0.48829   0.50000   0.00000  Uiso   1.00
C10    C     0.35525   0.61892   0.50000   0.00000  Uiso   1.00
C11    C     0.40279   0.68863   0.50000   0.00000  Uiso   1.00
C12    C     0.37684   0.56805   0.50000   0.00000  Uiso   1.00
N13    N     0.44062   0.58578   0.50000   0.00000  Uiso   1.00
C14    C     0.46865   0.54098   0.50000   0.00000  Uiso   1.00
C15    C     0.42834   0.46899   0.50000   0.00000  Uiso   1.00
C16    C     0.46010   0.42876   0.50000   0.00000  Uiso   1.00
C17    C     0.41966   0.35752   0.50000   0.00000  Uiso   1.00
C18    C     0.34896   0.32587   0.50000   0.00000  Uiso   1.00
C19    C     0.31756   0.36507   0.50000   0.00000  Uiso   1.00
C20    C     0.35695   0.43579   0.50000   0.00000  Uiso   1.00
H21    H     0.45949   0.70657   0.50000   0.00000  Uiso   1.00
H22    H     0.33692   0.51171   0.50000   0.00000  Uiso   1.00
H23    H     0.44556   0.32555   0.50000   0.00000  Uiso   1.00
H24    H     0.31700   0.26802   0.50000   0.00000  Uiso   1.00
H25    H     0.25971   0.33934   0.50000   0.00000  Uiso   1.00
H26    H     0.33134   0.46801   0.50000   0.00000  Uiso   1.00
H27    H     0.37093   0.94315   0.50000   0.00000  Uiso   1.00
H28    H     0.44354   0.07303   0.50000   0.00000  Uiso   1.00
C29    C     0.61892   0.26367   0.50000   0.00000  Uiso   1.00
C30    C     0.68863   0.28584   0.50000   0.00000  Uiso   1.00
C31    C     0.56805   0.19121   0.50000   0.00000  Uiso   1.00
N32    N     0.58578   0.14516   0.50000   0.00000  Uiso   1.00
C33    C     0.54098   0.07233   0.50000   0.00000  Uiso   1.00
C34    C     0.46899   0.04065   0.50000   0.00000  Uiso   1.00
C35    C     0.42876   0.96866   0.50000   0.00000  Uiso   1.00
H36    H     0.70657   0.24708   0.50000   0.00000  Uiso   1.00
H37    H     0.51171   0.17479   0.50000   0.00000  Uiso   1.00
C38    C     0.38108   0.73633   0.50000   0.00000  Uiso   1.00
C39    C     0.31137   0.71416   0.50000   0.00000  Uiso   1.00
C40    C     0.43195   0.80879   0.50000   0.00000  Uiso   1.00
N41    N     0.41422   0.85484   0.50000   0.00000  Uiso   1.00
C42    C     0.45902   0.92767   0.50000   0.00000  Uiso   1.00
C43    C     0.53101   0.95935   0.50000   0.00000  Uiso   1.00
C44    C     0.57124   0.03134   0.50000   0.00000  Uiso   1.00
C45    C     0.64248   0.06214   0.50000   0.00000  Uiso   1.00
C46    C     0.67413   0.02309   0.50000   0.00000  Uiso   1.00
C47    C     0.63493   0.95249   0.50000   0.00000  Uiso   1.00
C48    C     0.56421   0.92116   0.50000   0.00000  Uiso   1.00
H49    H     0.29343   0.75292   0.50000   0.00000  Uiso   1.00
H50    H     0.48829   0.82521   0.50000   0.00000  Uiso   1.00
H51    H     0.67445   0.12001   0.50000   0.00000  Uiso   1.00
H52    H     0.73198   0.04898   0.50000   0.00000  Uiso   1.00
H53    H     0.66066   0.92037   0.50000   0.00000  Uiso   1.00
H54    H     0.53199   0.86333   0.50000   0.00000  Uiso   1.00
H55    H     0.05685   0.42779   0.50000   0.00000  Uiso   1.00
H56    H     0.92697   0.37052   0.50000   0.00000  Uiso   1.00
C57    C     0.73633   0.35525   0.50000   0.00000  Uiso   1.00
C58    C     0.71416   0.40279   0.50000   0.00000  Uiso   1.00
C59    C     0.80879   0.37684   0.50000   0.00000  Uiso   1.00
N60    N     0.85484   0.44062   0.50000   0.00000  Uiso   1.00
C61    C     0.92767   0.46865   0.50000   0.00000  Uiso   1.00
C62    C     0.95935   0.42834   0.50000   0.00000  Uiso   1.00
C63    C     0.03134   0.46010   0.50000   0.00000  Uiso   1.00
H64    H     0.75292   0.45949   0.50000   0.00000  Uiso   1.00
H65    H     0.82521   0.33692   0.50000   0.00000  Uiso   1.00
C66    C     0.26367   0.64475   0.50000   0.00000  Uiso   1.00
C67    C     0.28584   0.59721   0.50000   0.00000  Uiso   1.00
C68    C     0.19121   0.62316   0.50000   0.00000  Uiso   1.00
N69    N     0.14516   0.55938   0.50000   0.00000  Uiso   1.00
C70    C     0.07233   0.53135   0.50000   0.00000  Uiso   1.00
C71    C     0.04065   0.57166   0.50000   0.00000  Uiso   1.00
C72    C     0.96866   0.53990   0.50000   0.00000  Uiso   1.00
C73    C     0.93786   0.58034   0.50000   0.00000  Uiso   1.00
C74    C     0.97691   0.65104   0.50000   0.00000  Uiso   1.00
C75    C     0.04751   0.68244   0.50000   0.00000  Uiso   1.00
C76    C     0.07884   0.64305   0.50000   0.00000  Uiso   1.00
H77    H     0.24708   0.54051   0.50000   0.00000  Uiso   1.00
H78    H     0.17479   0.66308   0.50000   0.00000  Uiso   1.00
H79    H     0.87999   0.55444   0.50000   0.00000  Uiso   1.00
H80    H     0.95102   0.68300   0.50000   0.00000  Uiso   1.00
H81    H     0.07963   0.74029   0.50000   0.00000  Uiso   1.00
H82    H     0.13667   0.66866   0.50000   0.00000  Uiso   1.00
H83    H     0.57221   0.62907   0.50000   0.00000  Uiso   1.00
H84    H     0.62948   0.55646   0.50000   0.00000  Uiso   1.00
loop_
_geom_bond_atom_site_label_1
_geom_bond_atom_site_label_2
_geom_bond_distance
_geom_bond_site_symmetry_2
_ccdc_geom_bond_type
C1     C2      1.401   .     S
C1     C3      1.463   .     S
C1     C58     1.397   .     D
C2     H8      1.140   .     S
C2     C29     1.397   .     D
C3     N4      1.295   .     D
C3     H9      1.140   .     S
N4     C5      1.445   .     S
C5     C6      1.419   .     D
C5     C16     1.407   .     S
C6     C7      1.419   .     S
C6     H84     1.140   .     S
C7     C14     1.407   .     D
C7     H83     1.140   .     S
C10    C11     1.401   .     D
C10    C12     1.463   .     S
C10    C67     1.397   .     S
C11    H21     1.140   .     S
C11    C38     1.397   .     S
C12    N13     1.295   .     D
C12    H22     1.140   .     S
N13    C14     1.445   .     S
C14    C15     1.419   .     S
C15    C16     1.419   .     D
C15    C20     1.405   .     S
C16    C17     1.405   .     S
C17    C18     1.393   .     D
C17    H23     1.140   .     S
C18    C19     1.391   .     S
C18    H24     1.140   .     S
C19    C20     1.394   .     D
C19    H25     1.140   .     S
C20    H26     1.140   .     S
H27    C35     1.140   .     S
H28    C34     1.140   .     S
C29    C30     1.401   .     S
C29    C31     1.463   .     S
C30    H36     1.140   .     S
C30    C57     1.397   .     D
C31    N32     1.295   .     D
C31    H37     1.140   .     S
N32    C33     1.445   .     S
C33    C34     1.419   .     D
C33    C44     1.407   .     S
C34    C35     1.419   1_545 S
C35    C34     1.419   1_565 S
C35    C42     1.407   .     D
C38    C39     1.401   .     D
C38    C40     1.463   .     S
C39    H49     1.140   .     S
C39    C66     1.397   .     S
C40    N41     1.295   .     D
C40    H50     1.140   .     S
N41    C42     1.445   .     S
C42    C43     1.419   .     S
C43    C44     1.419   1_565 D
C43    C48     1.405   .     S
C44    C43     1.419   1_545 D
C44    C45     1.405   .     S
C45    C46     1.393   .     D
C45    H51     1.140   .     S
C46    C47     1.391   1_545 S
C46    H52     1.140   .     S
C47    C46     1.391   1_565 S
C47    C48     1.394   .     D
C47    H53     1.140   .     S
C48    H54     1.140   .     S
H55    C63     1.140   .     S
H56    C62     1.140   .     S
C57    C58     1.401   .     S
C57    C59     1.463   .     S
C58    H64     1.140   .     S
C59    N60     1.295   .     D
C59    H65     1.140   .     S
N60    C61     1.445   .     S
C61    C62     1.419   .     D
C61    C72     1.407   .     S
C62    C63     1.419   1_655 S
C63    C62     1.419   1_455 S
C63    C70     1.407   .     D
C66    C67     1.401   .     D
C66    C68     1.463   .     S
C67    H77     1.140   .     S
C68    N69     1.295   .     D
C68    H78     1.140   .     S
N69    C70     1.445   .     S
C70    C71     1.419   .     S
C71    C72     1.419   1_455 D
C71    C76     1.405   .     S
C72    C71     1.419   1_655 D
C72    C73     1.405   .     S
C73    C74     1.393   .     D
C73    H79     1.140   .     S
C74    C75     1.391   1_655 S
C74    H80     1.140   .     S
C75    C74     1.391   1_455 S
C75    C76     1.394   .     D
C75    H81     1.140   .     S
C76    H82     1.140   .     S
