data_16
_audit_creation_date              2023-09-08
_audit_creation_method            'Materials Studio'
_symmetry_space_group_name_H-M    'P1'
_symmetry_Int_Tables_number       1
_symmetry_cell_setting            triclinic
loop_
_symmetry_equiv_pos_as_xyz
  x,y,z
_cell_length_a                    29.4089
_cell_length_b                    29.4089
_cell_length_c                    7.7431
_cell_angle_alpha                 90.0000
_cell_angle_beta                  90.0000
_cell_angle_gamma                 90.0000
loop_
_atom_site_label
_atom_site_type_symbol
_atom_site_fract_x
_atom_site_fract_y
_atom_site_fract_z
_atom_site_U_iso_or_equiv
_atom_site_adp_type
_atom_site_occupancy
C1     C     0.81065   0.98625   0.74789   0.00000  Uiso   1.00
C2     C     0.79582   0.04052   0.69060   0.00000  Uiso   1.00
C3     C     0.77195   0.04586   0.54423   0.00000  Uiso   1.00
C4     C     0.76270   0.99720   0.45253   0.00000  Uiso   1.00
C5     C     0.77778   0.94310   0.51052   0.00000  Uiso   1.00
C6     C     0.80162   0.93773   0.65692   0.00000  Uiso   1.00
N7     N     0.83730   0.97950   0.89472   0.00000  Uiso   1.00
C8     C     0.84368   0.02125   0.99141   0.00000  Uiso   1.00
C9     C     0.87483   0.01298   0.13569   0.00000  Uiso   1.00
C10    C     0.89948   0.95996   0.17178   0.00000  Uiso   1.00
C11    C     0.93597   0.95496   0.29793   0.00000  Uiso   1.00
C12    C     0.94824   0.00267   0.39137   0.00000  Uiso   1.00
C13    C     0.92154   0.05519   0.35669   0.00000  Uiso   1.00
C14    C     0.88493   0.06021   0.23041   0.00000  Uiso   1.00
H15    H     0.80548   0.07112   0.77138   0.00000  Uiso   1.00
H16    H     0.76126   0.08097   0.50129   0.00000  Uiso   1.00
H17    H     0.76753   0.91346   0.42568   0.00000  Uiso   1.00
H18    H     0.81233   0.90263   0.69973   0.00000  Uiso   1.00
H19    H     0.82890   0.05625   0.97101   0.00000  Uiso   1.00
H20    H     0.88710   0.92933   0.09694   0.00000  Uiso   1.00
H21    H     0.95517   0.92312   0.33418   0.00000  Uiso   1.00
H22    H     0.93268   0.08604   0.43313   0.00000  Uiso   1.00
H23    H     0.86811   0.09433   0.21155   0.00000  Uiso   1.00
C24    C     0.31065   0.48625   0.24789   0.00000  Uiso   1.00
C25    C     0.29582   0.54052   0.19060   0.00000  Uiso   1.00
C26    C     0.27195   0.54586   0.04423   0.00000  Uiso   1.00
C27    C     0.26270   0.49720   0.95253   0.00000  Uiso   1.00
C28    C     0.27778   0.44310   0.01052   0.00000  Uiso   1.00
C29    C     0.30162   0.43773   0.15692   0.00000  Uiso   1.00
N30    N     0.33730   0.47950   0.39472   0.00000  Uiso   1.00
C31    C     0.34368   0.52125   0.49141   0.00000  Uiso   1.00
C32    C     0.37483   0.51298   0.63569   0.00000  Uiso   1.00
C33    C     0.39948   0.45996   0.67178   0.00000  Uiso   1.00
C34    C     0.43597   0.45496   0.79793   0.00000  Uiso   1.00
C35    C     0.44824   0.50267   0.89137   0.00000  Uiso   1.00
C36    C     0.42154   0.55519   0.85669   0.00000  Uiso   1.00
C37    C     0.38493   0.56021   0.73041   0.00000  Uiso   1.00
H38    H     0.30548   0.57112   0.27138   0.00000  Uiso   1.00
H39    H     0.26126   0.58097   0.00129   0.00000  Uiso   1.00
H40    H     0.26753   0.41346   0.92568   0.00000  Uiso   1.00
H41    H     0.31233   0.40263   0.19973   0.00000  Uiso   1.00
H42    H     0.32890   0.55625   0.47101   0.00000  Uiso   1.00
H43    H     0.38710   0.42933   0.59694   0.00000  Uiso   1.00
H44    H     0.45517   0.42312   0.83418   0.00000  Uiso   1.00
H45    H     0.43268   0.58604   0.93313   0.00000  Uiso   1.00
H46    H     0.36811   0.59433   0.71155   0.00000  Uiso   1.00
C47    C     0.68935   0.51375   0.24789   0.00000  Uiso   1.00
C48    C     0.70418   0.45948   0.19060   0.00000  Uiso   1.00
C49    C     0.72805   0.45414   0.04423   0.00000  Uiso   1.00
C50    C     0.73730   0.50280   0.95253   0.00000  Uiso   1.00
C51    C     0.72222   0.55690   0.01052   0.00000  Uiso   1.00
C52    C     0.69838   0.56227   0.15692   0.00000  Uiso   1.00
N53    N     0.66270   0.52050   0.39472   0.00000  Uiso   1.00
C54    C     0.65632   0.47875   0.49141   0.00000  Uiso   1.00
C55    C     0.62517   0.48702   0.63569   0.00000  Uiso   1.00
C56    C     0.60052   0.54004   0.67178   0.00000  Uiso   1.00
C57    C     0.56403   0.54504   0.79793   0.00000  Uiso   1.00
C58    C     0.55176   0.49733   0.89137   0.00000  Uiso   1.00
C59    C     0.57846   0.44481   0.85669   0.00000  Uiso   1.00
C60    C     0.61507   0.43979   0.73041   0.00000  Uiso   1.00
H61    H     0.69452   0.42888   0.27138   0.00000  Uiso   1.00
H62    H     0.73874   0.41903   0.00129   0.00000  Uiso   1.00
H63    H     0.73247   0.58654   0.92568   0.00000  Uiso   1.00
H64    H     0.68767   0.59737   0.19973   0.00000  Uiso   1.00
H65    H     0.67110   0.44375   0.47101   0.00000  Uiso   1.00
H66    H     0.61290   0.57067   0.59694   0.00000  Uiso   1.00
H67    H     0.54483   0.57688   0.83418   0.00000  Uiso   1.00
H68    H     0.56732   0.41396   0.93313   0.00000  Uiso   1.00
H69    H     0.63189   0.40567   0.71155   0.00000  Uiso   1.00
C70    C     0.18935   0.01375   0.74789   0.00000  Uiso   1.00
C71    C     0.20418   0.95948   0.69060   0.00000  Uiso   1.00
C72    C     0.22805   0.95414   0.54423   0.00000  Uiso   1.00
C73    C     0.23730   0.00280   0.45253   0.00000  Uiso   1.00
C74    C     0.22222   0.05690   0.51052   0.00000  Uiso   1.00
C75    C     0.19838   0.06227   0.65692   0.00000  Uiso   1.00
N76    N     0.16270   0.02050   0.89472   0.00000  Uiso   1.00
C77    C     0.15632   0.97875   0.99141   0.00000  Uiso   1.00
C78    C     0.12517   0.98702   0.13569   0.00000  Uiso   1.00
C79    C     0.10052   0.04004   0.17178   0.00000  Uiso   1.00
C80    C     0.06403   0.04504   0.29793   0.00000  Uiso   1.00
C81    C     0.05176   0.99733   0.39137   0.00000  Uiso   1.00
C82    C     0.07846   0.94481   0.35669   0.00000  Uiso   1.00
C83    C     0.11507   0.93979   0.23041   0.00000  Uiso   1.00
H84    H     0.19452   0.92888   0.77138   0.00000  Uiso   1.00
H85    H     0.23874   0.91903   0.50129   0.00000  Uiso   1.00
H86    H     0.23247   0.08654   0.42568   0.00000  Uiso   1.00
H87    H     0.18767   0.09737   0.69973   0.00000  Uiso   1.00
H88    H     0.17110   0.94375   0.97101   0.00000  Uiso   1.00
H89    H     0.11290   0.07067   0.09694   0.00000  Uiso   1.00
H90    H     0.04483   0.07688   0.33418   0.00000  Uiso   1.00
H91    H     0.06732   0.91396   0.43313   0.00000  Uiso   1.00
H92    H     0.13189   0.90567   0.21155   0.00000  Uiso   1.00
C93    C     0.01375   0.31065   0.99789   0.00000  Uiso   1.00
C94    C     0.95948   0.29582   0.94060   0.00000  Uiso   1.00
C95    C     0.95414   0.27195   0.79423   0.00000  Uiso   1.00
C96    C     0.00280   0.26270   0.70253   0.00000  Uiso   1.00
C97    C     0.05690   0.27778   0.76052   0.00000  Uiso   1.00
C98    C     0.06227   0.30162   0.90692   0.00000  Uiso   1.00
N99    N     0.02050   0.33730   0.14472   0.00000  Uiso   1.00
C100   C     0.97875   0.34368   0.24141   0.00000  Uiso   1.00
C101   C     0.98702   0.37483   0.38569   0.00000  Uiso   1.00
C102   C     0.04004   0.39948   0.42178   0.00000  Uiso   1.00
C103   C     0.04504   0.43597   0.54793   0.00000  Uiso   1.00
C104   C     0.99733   0.44824   0.64137   0.00000  Uiso   1.00
C105   C     0.94481   0.42154   0.60669   0.00000  Uiso   1.00
C106   C     0.93979   0.38493   0.48041   0.00000  Uiso   1.00
H107   H     0.92888   0.30548   0.02138   0.00000  Uiso   1.00
H108   H     0.91903   0.26126   0.75129   0.00000  Uiso   1.00
H109   H     0.08654   0.26753   0.67568   0.00000  Uiso   1.00
H110   H     0.09737   0.31233   0.94973   0.00000  Uiso   1.00
H111   H     0.94375   0.32890   0.22101   0.00000  Uiso   1.00
H112   H     0.07067   0.38710   0.34694   0.00000  Uiso   1.00
H113   H     0.07688   0.45517   0.58418   0.00000  Uiso   1.00
H114   H     0.91396   0.43268   0.68313   0.00000  Uiso   1.00
H115   H     0.90567   0.36811   0.46155   0.00000  Uiso   1.00
C116   C     0.51375   0.81065   0.49789   0.00000  Uiso   1.00
C117   C     0.45948   0.79582   0.44060   0.00000  Uiso   1.00
C118   C     0.45414   0.77195   0.29423   0.00000  Uiso   1.00
C119   C     0.50280   0.76270   0.20253   0.00000  Uiso   1.00
C120   C     0.55690   0.77778   0.26052   0.00000  Uiso   1.00
C121   C     0.56227   0.80162   0.40692   0.00000  Uiso   1.00
N122   N     0.52050   0.83730   0.64472   0.00000  Uiso   1.00
C123   C     0.47875   0.84368   0.74141   0.00000  Uiso   1.00
C124   C     0.48702   0.87483   0.88569   0.00000  Uiso   1.00
C125   C     0.54004   0.89948   0.92178   0.00000  Uiso   1.00
C126   C     0.54504   0.93597   0.04793   0.00000  Uiso   1.00
C127   C     0.49733   0.94824   0.14137   0.00000  Uiso   1.00
C128   C     0.44481   0.92154   0.10669   0.00000  Uiso   1.00
C129   C     0.43979   0.88493   0.98041   0.00000  Uiso   1.00
H130   H     0.42888   0.80548   0.52138   0.00000  Uiso   1.00
H131   H     0.41903   0.76126   0.25129   0.00000  Uiso   1.00
H132   H     0.58654   0.76753   0.17568   0.00000  Uiso   1.00
H133   H     0.59737   0.81233   0.44973   0.00000  Uiso   1.00
H134   H     0.44375   0.82890   0.72101   0.00000  Uiso   1.00
H135   H     0.57067   0.88710   0.84694   0.00000  Uiso   1.00
H136   H     0.57688   0.95517   0.08418   0.00000  Uiso   1.00
H137   H     0.41396   0.93268   0.18313   0.00000  Uiso   1.00
H138   H     0.40567   0.86811   0.96155   0.00000  Uiso   1.00
C139   C     0.48625   0.18935   0.49789   0.00000  Uiso   1.00
C140   C     0.54052   0.20418   0.44060   0.00000  Uiso   1.00
C141   C     0.54586   0.22805   0.29423   0.00000  Uiso   1.00
C142   C     0.49720   0.23730   0.20253   0.00000  Uiso   1.00
C143   C     0.44310   0.22222   0.26052   0.00000  Uiso   1.00
C144   C     0.43773   0.19838   0.40692   0.00000  Uiso   1.00
N145   N     0.47950   0.16270   0.64472   0.00000  Uiso   1.00
C146   C     0.52125   0.15632   0.74141   0.00000  Uiso   1.00
C147   C     0.51298   0.12517   0.88569   0.00000  Uiso   1.00
C148   C     0.45996   0.10052   0.92178   0.00000  Uiso   1.00
C149   C     0.45496   0.06403   0.04793   0.00000  Uiso   1.00
C150   C     0.50267   0.05176   0.14137   0.00000  Uiso   1.00
C151   C     0.55519   0.07846   0.10669   0.00000  Uiso   1.00
C152   C     0.56021   0.11507   0.98041   0.00000  Uiso   1.00
H153   H     0.57112   0.19452   0.52138   0.00000  Uiso   1.00
H154   H     0.58097   0.23874   0.25129   0.00000  Uiso   1.00
H155   H     0.41346   0.23247   0.17568   0.00000  Uiso   1.00
H156   H     0.40263   0.18767   0.44973   0.00000  Uiso   1.00
H157   H     0.55625   0.17110   0.72101   0.00000  Uiso   1.00
H158   H     0.42933   0.11290   0.84694   0.00000  Uiso   1.00
H159   H     0.42312   0.04483   0.08418   0.00000  Uiso   1.00
H160   H     0.58604   0.06732   0.18313   0.00000  Uiso   1.00
H161   H     0.59433   0.13189   0.96155   0.00000  Uiso   1.00
C162   C     0.98625   0.68935   0.99789   0.00000  Uiso   1.00
C163   C     0.04052   0.70418   0.94060   0.00000  Uiso   1.00
C164   C     0.04586   0.72805   0.79423   0.00000  Uiso   1.00
C165   C     0.99720   0.73730   0.70253   0.00000  Uiso   1.00
C166   C     0.94310   0.72222   0.76052   0.00000  Uiso   1.00
C167   C     0.93773   0.69838   0.90692   0.00000  Uiso   1.00
N168   N     0.97950   0.66270   0.14472   0.00000  Uiso   1.00
C169   C     0.02125   0.65632   0.24141   0.00000  Uiso   1.00
C170   C     0.01298   0.62517   0.38569   0.00000  Uiso   1.00
C171   C     0.95996   0.60052   0.42178   0.00000  Uiso   1.00
C172   C     0.95496   0.56403   0.54793   0.00000  Uiso   1.00
C173   C     0.00267   0.55176   0.64137   0.00000  Uiso   1.00
C174   C     0.05519   0.57846   0.60669   0.00000  Uiso   1.00
C175   C     0.06021   0.61507   0.48041   0.00000  Uiso   1.00
H176   H     0.07112   0.69452   0.02138   0.00000  Uiso   1.00
H177   H     0.08097   0.73874   0.75129   0.00000  Uiso   1.00
H178   H     0.91346   0.73247   0.67568   0.00000  Uiso   1.00
H179   H     0.90263   0.68767   0.94973   0.00000  Uiso   1.00
H180   H     0.05625   0.67110   0.22101   0.00000  Uiso   1.00
H181   H     0.92933   0.61290   0.34694   0.00000  Uiso   1.00
H182   H     0.92312   0.54483   0.58418   0.00000  Uiso   1.00
H183   H     0.08604   0.56732   0.68313   0.00000  Uiso   1.00
H184   H     0.09433   0.63189   0.46155   0.00000  Uiso   1.00
C185   C     0.18935   0.51375   0.50211   0.00000  Uiso   1.00
C186   C     0.20418   0.45948   0.55940   0.00000  Uiso   1.00
C187   C     0.22805   0.45414   0.70577   0.00000  Uiso   1.00
C188   C     0.23730   0.50280   0.79747   0.00000  Uiso   1.00
C189   C     0.22222   0.55690   0.73948   0.00000  Uiso   1.00
C190   C     0.19838   0.56227   0.59308   0.00000  Uiso   1.00
N191   N     0.16270   0.52050   0.35528   0.00000  Uiso   1.00
C192   C     0.15632   0.47875   0.25859   0.00000  Uiso   1.00
C193   C     0.12517   0.48702   0.11431   0.00000  Uiso   1.00
C194   C     0.10052   0.54004   0.07822   0.00000  Uiso   1.00
C195   C     0.06403   0.54504   0.95207   0.00000  Uiso   1.00
C196   C     0.05176   0.49733   0.85863   0.00000  Uiso   1.00
C197   C     0.07846   0.44481   0.89331   0.00000  Uiso   1.00
C198   C     0.11507   0.43979   0.01959   0.00000  Uiso   1.00
H199   H     0.19452   0.42888   0.47862   0.00000  Uiso   1.00
H200   H     0.23874   0.41903   0.74871   0.00000  Uiso   1.00
H201   H     0.23247   0.58654   0.82432   0.00000  Uiso   1.00
H202   H     0.18767   0.59737   0.55027   0.00000  Uiso   1.00
H203   H     0.17110   0.44375   0.27899   0.00000  Uiso   1.00
H204   H     0.11290   0.57067   0.15306   0.00000  Uiso   1.00
H205   H     0.04483   0.57688   0.91582   0.00000  Uiso   1.00
H206   H     0.06732   0.41396   0.81687   0.00000  Uiso   1.00
H207   H     0.13189   0.40567   0.03845   0.00000  Uiso   1.00
C208   C     0.68935   0.01375   0.00211   0.00000  Uiso   1.00
C209   C     0.70418   0.95948   0.05940   0.00000  Uiso   1.00
C210   C     0.72805   0.95414   0.20577   0.00000  Uiso   1.00
C211   C     0.73730   0.00280   0.29747   0.00000  Uiso   1.00
C212   C     0.72222   0.05690   0.23948   0.00000  Uiso   1.00
C213   C     0.69838   0.06227   0.09308   0.00000  Uiso   1.00
N214   N     0.66270   0.02050   0.85528   0.00000  Uiso   1.00
C215   C     0.65632   0.97875   0.75859   0.00000  Uiso   1.00
C216   C     0.62517   0.98702   0.61431   0.00000  Uiso   1.00
C217   C     0.60052   0.04004   0.57822   0.00000  Uiso   1.00
C218   C     0.56403   0.04504   0.45207   0.00000  Uiso   1.00
C219   C     0.55176   0.99733   0.35863   0.00000  Uiso   1.00
C220   C     0.57846   0.94481   0.39331   0.00000  Uiso   1.00
C221   C     0.61507   0.93979   0.51959   0.00000  Uiso   1.00
H222   H     0.69452   0.92888   0.97862   0.00000  Uiso   1.00
H223   H     0.73874   0.91903   0.24871   0.00000  Uiso   1.00
H224   H     0.73247   0.08654   0.32432   0.00000  Uiso   1.00
H225   H     0.68767   0.09737   0.05027   0.00000  Uiso   1.00
H226   H     0.67110   0.94375   0.77899   0.00000  Uiso   1.00
H227   H     0.61290   0.07067   0.65306   0.00000  Uiso   1.00
H228   H     0.54483   0.07688   0.41582   0.00000  Uiso   1.00
H229   H     0.56732   0.91396   0.31687   0.00000  Uiso   1.00
H230   H     0.63189   0.90567   0.53845   0.00000  Uiso   1.00
C231   C     0.31065   0.98625   0.00211   0.00000  Uiso   1.00
C232   C     0.29582   0.04052   0.05940   0.00000  Uiso   1.00
C233   C     0.27195   0.04586   0.20577   0.00000  Uiso   1.00
C234   C     0.26270   0.99720   0.29747   0.00000  Uiso   1.00
C235   C     0.27778   0.94310   0.23948   0.00000  Uiso   1.00
C236   C     0.30162   0.93773   0.09308   0.00000  Uiso   1.00
N237   N     0.33730   0.97950   0.85528   0.00000  Uiso   1.00
C238   C     0.34368   0.02125   0.75859   0.00000  Uiso   1.00
C239   C     0.37483   0.01298   0.61431   0.00000  Uiso   1.00
C240   C     0.39948   0.95996   0.57822   0.00000  Uiso   1.00
C241   C     0.43597   0.95496   0.45207   0.00000  Uiso   1.00
C242   C     0.44824   0.00267   0.35863   0.00000  Uiso   1.00
C243   C     0.42154   0.05519   0.39331   0.00000  Uiso   1.00
C244   C     0.38493   0.06021   0.51959   0.00000  Uiso   1.00
H245   H     0.30548   0.07112   0.97862   0.00000  Uiso   1.00
H246   H     0.26126   0.08097   0.24871   0.00000  Uiso   1.00
H247   H     0.26753   0.91346   0.32432   0.00000  Uiso   1.00
H248   H     0.31233   0.90263   0.05027   0.00000  Uiso   1.00
H249   H     0.32890   0.05625   0.77899   0.00000  Uiso   1.00
H250   H     0.38710   0.92933   0.65306   0.00000  Uiso   1.00
H251   H     0.45517   0.92312   0.41582   0.00000  Uiso   1.00
H252   H     0.43268   0.08604   0.31687   0.00000  Uiso   1.00
H253   H     0.36811   0.09433   0.53845   0.00000  Uiso   1.00
C254   C     0.81065   0.48625   0.50211   0.00000  Uiso   1.00
C255   C     0.79582   0.54052   0.55940   0.00000  Uiso   1.00
C256   C     0.77195   0.54586   0.70577   0.00000  Uiso   1.00
C257   C     0.76270   0.49720   0.79747   0.00000  Uiso   1.00
C258   C     0.77778   0.44310   0.73948   0.00000  Uiso   1.00
C259   C     0.80162   0.43773   0.59308   0.00000  Uiso   1.00
N260   N     0.83730   0.47950   0.35528   0.00000  Uiso   1.00
C261   C     0.84368   0.52125   0.25859   0.00000  Uiso   1.00
C262   C     0.87483   0.51298   0.11431   0.00000  Uiso   1.00
C263   C     0.89948   0.45996   0.07822   0.00000  Uiso   1.00
C264   C     0.93597   0.45496   0.95207   0.00000  Uiso   1.00
C265   C     0.94824   0.50267   0.85863   0.00000  Uiso   1.00
C266   C     0.92154   0.55519   0.89331   0.00000  Uiso   1.00
C267   C     0.88493   0.56021   0.01959   0.00000  Uiso   1.00
H268   H     0.80548   0.57112   0.47862   0.00000  Uiso   1.00
H269   H     0.76126   0.58097   0.74871   0.00000  Uiso   1.00
H270   H     0.76753   0.41346   0.82432   0.00000  Uiso   1.00
H271   H     0.81233   0.40263   0.55027   0.00000  Uiso   1.00
H272   H     0.82890   0.55625   0.27899   0.00000  Uiso   1.00
H273   H     0.88710   0.42933   0.15306   0.00000  Uiso   1.00
H274   H     0.95517   0.42312   0.91582   0.00000  Uiso   1.00
H275   H     0.93268   0.58604   0.81687   0.00000  Uiso   1.00
H276   H     0.86811   0.59433   0.03845   0.00000  Uiso   1.00
C277   C     0.98625   0.18935   0.25211   0.00000  Uiso   1.00
C278   C     0.04052   0.20418   0.30940   0.00000  Uiso   1.00
C279   C     0.04586   0.22805   0.45577   0.00000  Uiso   1.00
C280   C     0.99720   0.23730   0.54747   0.00000  Uiso   1.00
C281   C     0.94310   0.22222   0.48948   0.00000  Uiso   1.00
C282   C     0.93773   0.19838   0.34308   0.00000  Uiso   1.00
N283   N     0.97950   0.16270   0.10528   0.00000  Uiso   1.00
C284   C     0.02125   0.15632   0.00859   0.00000  Uiso   1.00
C285   C     0.01298   0.12517   0.86431   0.00000  Uiso   1.00
C286   C     0.95996   0.10052   0.82822   0.00000  Uiso   1.00
C287   C     0.95496   0.06403   0.70207   0.00000  Uiso   1.00
C288   C     0.00267   0.05176   0.60863   0.00000  Uiso   1.00
C289   C     0.05519   0.07846   0.64331   0.00000  Uiso   1.00
C290   C     0.06021   0.11507   0.76959   0.00000  Uiso   1.00
H291   H     0.07112   0.19452   0.22862   0.00000  Uiso   1.00
H292   H     0.08097   0.23874   0.49871   0.00000  Uiso   1.00
H293   H     0.91346   0.23247   0.57432   0.00000  Uiso   1.00
H294   H     0.90263   0.18767   0.30027   0.00000  Uiso   1.00
H295   H     0.05625   0.17110   0.02899   0.00000  Uiso   1.00
H296   H     0.92933   0.11290   0.90306   0.00000  Uiso   1.00
H297   H     0.92312   0.04483   0.66582   0.00000  Uiso   1.00
H298   H     0.08604   0.06732   0.56687   0.00000  Uiso   1.00
H299   H     0.09433   0.13189   0.78845   0.00000  Uiso   1.00
C300   C     0.48625   0.68935   0.75211   0.00000  Uiso   1.00
C301   C     0.54052   0.70418   0.80940   0.00000  Uiso   1.00
C302   C     0.54586   0.72805   0.95577   0.00000  Uiso   1.00
C303   C     0.49720   0.73730   0.04747   0.00000  Uiso   1.00
C304   C     0.44310   0.72222   0.98948   0.00000  Uiso   1.00
C305   C     0.43773   0.69838   0.84308   0.00000  Uiso   1.00
N306   N     0.47950   0.66270   0.60528   0.00000  Uiso   1.00
C307   C     0.52125   0.65632   0.50859   0.00000  Uiso   1.00
C308   C     0.51298   0.62517   0.36431   0.00000  Uiso   1.00
C309   C     0.45996   0.60052   0.32822   0.00000  Uiso   1.00
C310   C     0.45496   0.56403   0.20207   0.00000  Uiso   1.00
C311   C     0.50267   0.55176   0.10863   0.00000  Uiso   1.00
C312   C     0.55519   0.57846   0.14331   0.00000  Uiso   1.00
C313   C     0.56021   0.61507   0.26959   0.00000  Uiso   1.00
H314   H     0.57112   0.69452   0.72862   0.00000  Uiso   1.00
H315   H     0.58097   0.73874   0.99871   0.00000  Uiso   1.00
H316   H     0.41346   0.73247   0.07432   0.00000  Uiso   1.00
H317   H     0.40263   0.68767   0.80027   0.00000  Uiso   1.00
H318   H     0.55625   0.67110   0.52899   0.00000  Uiso   1.00
H319   H     0.42933   0.61290   0.40306   0.00000  Uiso   1.00
H320   H     0.42312   0.54483   0.16582   0.00000  Uiso   1.00
H321   H     0.58604   0.56732   0.06687   0.00000  Uiso   1.00
H322   H     0.59433   0.63189   0.28845   0.00000  Uiso   1.00
C323   C     0.51375   0.31065   0.75211   0.00000  Uiso   1.00
C324   C     0.45948   0.29582   0.80940   0.00000  Uiso   1.00
C325   C     0.45414   0.27195   0.95577   0.00000  Uiso   1.00
C326   C     0.50280   0.26270   0.04747   0.00000  Uiso   1.00
C327   C     0.55690   0.27778   0.98948   0.00000  Uiso   1.00
C328   C     0.56227   0.30162   0.84308   0.00000  Uiso   1.00
N329   N     0.52050   0.33730   0.60528   0.00000  Uiso   1.00
C330   C     0.47875   0.34368   0.50859   0.00000  Uiso   1.00
C331   C     0.48702   0.37483   0.36431   0.00000  Uiso   1.00
C332   C     0.54004   0.39948   0.32822   0.00000  Uiso   1.00
C333   C     0.54504   0.43597   0.20207   0.00000  Uiso   1.00
C334   C     0.49733   0.44824   0.10863   0.00000  Uiso   1.00
C335   C     0.44481   0.42154   0.14331   0.00000  Uiso   1.00
C336   C     0.43979   0.38493   0.26959   0.00000  Uiso   1.00
H337   H     0.42888   0.30548   0.72862   0.00000  Uiso   1.00
H338   H     0.41903   0.26126   0.99871   0.00000  Uiso   1.00
H339   H     0.58654   0.26753   0.07432   0.00000  Uiso   1.00
H340   H     0.59737   0.31233   0.80027   0.00000  Uiso   1.00
H341   H     0.44375   0.32890   0.52899   0.00000  Uiso   1.00
H342   H     0.57067   0.38710   0.40306   0.00000  Uiso   1.00
H343   H     0.57688   0.45517   0.16582   0.00000  Uiso   1.00
H344   H     0.41396   0.43268   0.06687   0.00000  Uiso   1.00
H345   H     0.40567   0.36811   0.28845   0.00000  Uiso   1.00
C346   C     0.01375   0.81065   0.25211   0.00000  Uiso   1.00
C347   C     0.95948   0.79582   0.30940   0.00000  Uiso   1.00
C348   C     0.95414   0.77195   0.45577   0.00000  Uiso   1.00
C349   C     0.00280   0.76270   0.54747   0.00000  Uiso   1.00
C350   C     0.05690   0.77778   0.48948   0.00000  Uiso   1.00
C351   C     0.06227   0.80162   0.34308   0.00000  Uiso   1.00
N352   N     0.02050   0.83730   0.10528   0.00000  Uiso   1.00
C353   C     0.97875   0.84368   0.00859   0.00000  Uiso   1.00
C354   C     0.98702   0.87483   0.86431   0.00000  Uiso   1.00
C355   C     0.04004   0.89948   0.82822   0.00000  Uiso   1.00
C356   C     0.04504   0.93597   0.70207   0.00000  Uiso   1.00
C357   C     0.99733   0.94824   0.60863   0.00000  Uiso   1.00
C358   C     0.94481   0.92154   0.64331   0.00000  Uiso   1.00
C359   C     0.93979   0.88493   0.76959   0.00000  Uiso   1.00
H360   H     0.92888   0.80548   0.22862   0.00000  Uiso   1.00
H361   H     0.91903   0.76126   0.49871   0.00000  Uiso   1.00
H362   H     0.08654   0.76753   0.57432   0.00000  Uiso   1.00
H363   H     0.09737   0.81233   0.30027   0.00000  Uiso   1.00
H364   H     0.94375   0.82890   0.02899   0.00000  Uiso   1.00
H365   H     0.07067   0.88710   0.90306   0.00000  Uiso   1.00
H366   H     0.07688   0.95517   0.66582   0.00000  Uiso   1.00
H367   H     0.91396   0.93268   0.56687   0.00000  Uiso   1.00
H368   H     0.90567   0.86811   0.78845   0.00000  Uiso   1.00
C369   C     0.00000   0.00000   0.50000   0.00000  Uiso   1.00
C370   C     0.50000   0.50000   0.00000   0.00000  Uiso   1.00
C371   C     0.00000   0.50000   0.75000   0.00000  Uiso   1.00
C372   C     0.50000   0.00000   0.25000   0.00000  Uiso   1.00
loop_
_geom_bond_atom_site_label_1
_geom_bond_atom_site_label_2
_geom_bond_distance
_geom_bond_site_symmetry_2
_ccdc_geom_bond_type
C1     C2      1.713   1_565 D
C1     C6      1.613   .     S
C1     N7      1.395   .     S
C2     C1      1.713   1_545 D
C2     C3      1.342   .     S
C2     H15     1.132   .     S
C3     C4      1.621   1_545 D
C3     H16     1.129   .     S
C4     C3      1.621   1_565 D
C4     C5      1.712   .     S
C4     C211    1.424   1_565 S
C5     C6      1.342   .     D
C5     H17     1.132   .     S
C6     H18     1.129   .     S
N7     C8      1.450   1_565 D
C8     N7      1.450   1_545 D
C8     C9      1.465   1_556 S
C8     H19     1.128   .     S
C9     C8      1.465   1_554 S
C9     C10     1.742   1_545 D
C9     C14     1.599   .     S
C10    C9      1.742   1_565 D
C10    C11     1.459   .     S
C10    H20     1.131   .     S
C11    C12     1.619   1_565 D
C11    H21     1.129   .     S
C12    C11     1.619   1_545 D
C12    C13     1.753   .     S
C12    C369    1.741   1_655 S
C13    C14     1.462   .     D
C13    H22     1.132   .     S
C14    H23     1.128   .     S
C24    C25     1.713   .     D
C24    C29     1.613   .     S
C24    N30     1.395   .     S
C25    C26     1.342   .     S
C25    H38     1.132   .     S
C26    C27     1.620   1_554 D
C26    H39     1.129   .     S
C27    C26     1.620   1_556 D
C27    C28     1.712   1_556 S
C27    C188    1.424   .     S
C28    C27     1.712   1_554 S
C28    C29     1.342   .     D
C28    H40     1.132   1_554 S
C29    H41     1.129   .     S
N30    C31     1.450   .     D
C31    C32     1.465   .     S
C31    H42     1.128   .     S
C32    C33     1.742   .     D
C32    C37     1.599   .     S
C33    C34     1.459   .     S
C33    H43     1.131   .     S
C34    C35     1.619   .     D
C34    H44     1.129   .     S
C35    C36     1.753   .     S
C35    C370    1.741   1_556 S
C36    C37     1.462   .     D
C36    H45     1.132   .     S
C37    H46     1.128   .     S
H40    C28     1.132   1_556 S
C47    C48     1.713   .     D
C47    C52     1.613   .     S
C47    N53     1.395   .     S
C48    C49     1.342   .     S
C48    H61     1.132   .     S
C49    C50     1.621   1_554 D
C49    H62     1.129   .     S
C50    C49     1.621   1_556 D
C50    C51     1.712   1_556 S
C50    C257    1.424   .     S
C51    C50     1.712   1_554 S
C51    C52     1.342   .     D
C51    H63     1.132   1_554 S
C52    H64     1.129   .     S
N53    C54     1.450   .     D
C54    C55     1.465   .     S
C54    H65     1.128   .     S
C55    C56     1.742   .     D
C55    C60     1.599   .     S
C56    C57     1.459   .     S
C56    H66     1.131   .     S
C57    C58     1.619   .     D
C57    H67     1.129   .     S
C58    C59     1.753   .     S
C58    C370    1.741   1_556 S
C59    C60     1.462   .     D
C59    H68     1.132   .     S
C60    H69     1.128   .     S
H63    C51     1.132   1_556 S
C70    C71     1.713   1_545 D
C70    C75     1.613   .     S
C70    N76     1.395   .     S
C71    C70     1.713   1_565 D
C71    C72     1.342   .     S
C71    H84     1.132   .     S
C72    C73     1.621   1_565 D
C72    H85     1.129   .     S
C73    C72     1.621   1_545 D
C73    C74     1.712   .     S
C73    C234    1.424   1_545 S
C74    C75     1.342   .     D
C74    H86     1.132   .     S
C75    H87     1.129   .     S
N76    C77     1.450   1_545 D
C77    N76     1.450   1_565 D
C77    C78     1.465   1_556 S
C77    H88     1.128   .     S
C78    C77     1.465   1_554 S
C78    C79     1.742   1_565 D
C78    C83     1.599   .     S
C79    C78     1.742   1_545 D
C79    C80     1.459   .     S
C79    H89     1.131   .     S
C80    C81     1.619   1_545 D
C80    H90     1.129   .     S
C81    C80     1.619   1_565 D
C81    C82     1.753   .     S
C81    C369    1.741   1_565 S
C82    C83     1.462   .     D
C82    H91     1.132   .     S
C83    H92     1.128   .     S
C93    C94     1.713   1_455 D
C93    C98     1.613   .     S
C93    N99     1.395   1_556 S
C94    C93     1.713   1_655 D
C94    C95     1.342   .     S
C94    H107    1.132   1_556 S
C95    C96     1.621   1_655 D
C95    H108    1.129   .     S
C96    C95     1.621   1_455 D
C96    C97     1.712   .     S
C96    C280    1.424   1_455 S
C97    C98     1.342   .     D
C97    H109    1.132   .     S
C98    H110    1.129   .     S
N99    C93     1.395   1_554 S
N99    C100    1.450   1_455 D
C100   N99     1.450   1_655 D
C100   C101    1.465   .     S
C100   H111    1.128   .     S
C101   C102    1.742   1_655 D
C101   C106    1.599   .     S
C102   C101    1.742   1_455 D
C102   C103    1.459   .     S
C102   H112    1.131   .     S
C103   C104    1.619   1_455 D
C103   H113    1.129   .     S
C104   C103    1.619   1_655 D
C104   C105    1.753   .     S
C104   C371    1.741   1_655 S
C105   C106    1.462   .     D
C105   H114    1.132   .     S
C106   H115    1.128   .     S
H107   C94     1.132   1_554 S
C116   C117    1.713   .     D
C116   C121    1.613   .     S
C116   N122    1.395   .     S
C117   C118    1.342   .     S
C117   H130    1.132   .     S
C118   C119    1.621   .     D
C118   H131    1.129   .     S
C119   C120    1.712   .     S
C119   C303    1.424   .     S
C120   C121    1.342   .     D
C120   H132    1.132   .     S
C121   H133    1.129   .     S
N122   C123    1.450   .     D
C123   C124    1.465   .     S
C123   H134    1.128   .     S
C124   C125    1.742   .     D
C124   C129    1.599   .     S
C125   C126    1.459   1_556 S
C125   H135    1.131   .     S
C126   C125    1.459   1_554 S
C126   C127    1.619   .     D
C126   H136    1.129   .     S
C127   C128    1.753   .     S
C127   C372    1.741   1_565 S
C128   C129    1.462   1_554 D
C128   H137    1.132   .     S
C129   C128    1.462   1_556 D
C129   H138    1.128   .     S
C139   C140    1.713   .     D
C139   C144    1.613   .     S
C139   N145    1.395   .     S
C140   C141    1.342   .     S
C140   H153    1.132   .     S
C141   C142    1.620   .     D
C141   H154    1.129   .     S
C142   C143    1.712   .     S
C142   C326    1.424   .     S
C143   C144    1.342   .     D
C143   H155    1.132   .     S
C144   H156    1.129   .     S
N145   C146    1.450   .     D
C146   C147    1.465   .     S
C146   H157    1.128   .     S
C147   C148    1.742   .     D
C147   C152    1.599   .     S
C148   C149    1.459   1_556 S
C148   H158    1.131   .     S
C149   C148    1.459   1_554 S
C149   C150    1.619   .     D
C149   H159    1.129   .     S
C150   C151    1.753   .     S
C150   C372    1.741   .     S
C151   C152    1.462   1_554 D
C151   H160    1.132   .     S
C152   C151    1.462   1_556 D
C152   H161    1.128   .     S
C162   C163    1.713   1_655 D
C162   C167    1.613   .     S
C162   N168    1.395   1_556 S
C163   C162    1.713   1_455 D
C163   C164    1.342   .     S
C163   H176    1.132   1_556 S
C164   C165    1.621   1_455 D
C164   H177    1.129   .     S
C165   C164    1.621   1_655 D
C165   C166    1.712   .     S
C165   C349    1.424   1_655 S
C166   C167    1.342   .     D
C166   H178    1.132   .     S
C167   H179    1.129   .     S
N168   C162    1.395   1_554 S
N168   C169    1.450   1_655 D
C169   N168    1.450   1_455 D
C169   C170    1.465   .     S
C169   H180    1.128   .     S
C170   C171    1.742   1_455 D
C170   C175    1.599   .     S
C171   C170    1.742   1_655 D
C171   C172    1.459   .     S
C171   H181    1.131   .     S
C172   C173    1.619   1_655 D
C172   H182    1.129   .     S
C173   C172    1.619   1_455 D
C173   C174    1.753   .     S
C173   C371    1.741   .     S
C174   C175    1.462   .     D
C174   H183    1.132   .     S
C175   H184    1.128   .     S
H176   C163    1.132   1_554 S
C185   C186    1.713   .     D
C185   C190    1.613   .     S
C185   N191    1.395   .     S
C186   C187    1.342   .     S
C186   H199    1.132   .     S
C187   C188    1.621   .     D
C187   H200    1.129   .     S
C188   C189    1.712   .     S
C189   C190    1.342   .     D
C189   H201    1.132   .     S
C190   H202    1.129   .     S
N191   C192    1.450   .     D
C192   C193    1.465   .     S
C192   H203    1.128   .     S
C193   C194    1.742   .     S
C193   C198    1.599   .     D
C194   C195    1.459   1_554 D
C194   H204    1.131   .     S
C195   C194    1.459   1_556 D
C195   C196    1.619   .     S
C195   H205    1.129   .     S
C196   C197    1.753   .     D
C196   C371    1.741   .     S
C197   C198    1.462   1_556 S
C197   H206    1.132   .     S
C198   C197    1.462   1_554 S
C198   H207    1.128   .     S
C208   C209    1.713   1_545 D
C208   C213    1.613   .     S
C208   N214    1.395   1_554 S
C209   C208    1.713   1_565 D
C209   C210    1.342   .     S
C209   H222    1.132   1_554 S
C210   C211    1.621   1_565 D
C210   H223    1.129   .     S
C211   C4      1.424   1_545 S
C211   C210    1.621   1_545 D
C211   C212    1.712   .     S
C212   C213    1.342   .     D
C212   H224    1.132   .     S
C213   H225    1.129   .     S
N214   C208    1.395   1_556 S
N214   C215    1.450   1_545 D
C215   N214    1.450   1_565 D
C215   C216    1.465   .     S
C215   H226    1.128   .     S
C216   C217    1.742   1_565 S
C216   C221    1.599   .     D
C217   C216    1.742   1_545 S
C217   C218    1.459   .     D
C217   H227    1.131   .     S
C218   C219    1.619   1_545 S
C218   H228    1.129   .     S
C219   C218    1.619   1_565 S
C219   C220    1.753   .     D
C219   C372    1.741   1_565 S
C220   C221    1.462   .     S
C220   H229    1.132   .     S
C221   H230    1.128   .     S
H222   C209    1.132   1_556 S
C231   C232    1.713   1_565 D
C231   C236    1.613   .     S
C231   N237    1.395   1_554 S
C232   C231    1.713   1_545 D
C232   C233    1.342   .     S
C232   H245    1.132   1_554 S
C233   C234    1.621   1_545 D
C233   H246    1.129   .     S
C234   C73     1.424   1_565 S
C234   C233    1.621   1_565 D
C234   C235    1.712   .     S
C235   C236    1.342   .     D
C235   H247    1.132   .     S
C236   H248    1.129   .     S
N237   C231    1.395   1_556 S
N237   C238    1.450   1_565 D
C238   N237    1.450   1_545 D
C238   C239    1.465   .     S
C238   H249    1.128   .     S
C239   C240    1.742   1_545 S
C239   C244    1.599   .     D
C240   C239    1.742   1_565 S
C240   C241    1.459   .     D
C240   H250    1.131   .     S
C241   C242    1.619   1_565 S
C241   H251    1.129   .     S
C242   C241    1.619   1_545 S
C242   C243    1.753   .     D
C242   C372    1.741   .     S
C243   C244    1.462   .     S
C243   H252    1.132   .     S
C244   H253    1.128   .     S
H245   C232    1.132   1_556 S
C254   C255    1.713   .     D
C254   C259    1.613   .     S
C254   N260    1.395   .     S
C255   C256    1.342   .     S
C255   H268    1.132   .     S
C256   C257    1.620   .     D
C256   H269    1.129   .     S
C257   C258    1.712   .     S
C258   C259    1.342   .     D
C258   H270    1.132   .     S
C259   H271    1.129   .     S
N260   C261    1.450   .     D
C261   C262    1.465   .     S
C261   H272    1.128   .     S
C262   C263    1.742   .     S
C262   C267    1.599   .     D
C263   C264    1.459   1_554 D
C263   H273    1.131   .     S
C264   C263    1.459   1_556 D
C264   C265    1.619   .     S
C264   H274    1.129   .     S
C265   C266    1.753   .     D
C265   C371    1.741   1_655 S
C266   C267    1.462   1_556 S
C266   H275    1.132   .     S
C267   C266    1.462   1_554 S
C267   H276    1.128   .     S
C277   C278    1.713   1_655 D
C277   C282    1.613   .     S
C277   N283    1.395   .     S
C278   C277    1.713   1_455 D
C278   C279    1.342   .     S
C278   H291    1.132   .     S
C279   C280    1.621   1_455 D
C279   H292    1.129   .     S
C280   C279    1.621   1_655 D
C280   C96     1.424   1_655 S
C280   C281    1.712   .     S
C281   C282    1.342   .     D
C281   H293    1.132   .     S
C282   H294    1.129   .     S
N283   C284    1.450   1_655 D
C284   N283    1.450   1_455 D
C284   C285    1.465   1_554 S
C284   H295    1.128   .     S
C285   C284    1.465   1_556 S
C285   C286    1.742   1_455 S
C285   C290    1.599   .     D
C286   C285    1.742   1_655 S
C286   C287    1.459   .     D
C286   H296    1.131   .     S
C287   C288    1.619   1_655 S
C287   H297    1.129   .     S
C288   C287    1.619   1_455 S
C288   C289    1.753   .     D
C288   C369    1.741   .     S
C289   C290    1.462   .     S
C289   H298    1.132   .     S
C290   H299    1.128   .     S
C300   C301    1.713   .     D
C300   C305    1.613   .     S
C300   N306    1.395   .     S
C301   C302    1.342   .     S
C301   H314    1.132   .     S
C302   C303    1.621   1_556 D
C302   H315    1.129   .     S
C303   C302    1.621   1_554 D
C303   C304    1.712   1_554 S
C304   C303    1.712   1_556 S
C304   C305    1.342   .     D
C304   H316    1.132   1_556 S
C305   H317    1.129   .     S
N306   C307    1.450   .     D
C307   C308    1.465   .     S
C307   H318    1.128   .     S
C308   C309    1.742   .     S
C308   C313    1.599   .     D
C309   C310    1.459   .     D
C309   H319    1.131   .     S
C310   C311    1.619   .     S
C310   H320    1.129   .     S
C311   C312    1.753   .     D
C311   C370    1.741   .     S
C312   C313    1.462   .     S
C312   H321    1.132   .     S
C313   H322    1.128   .     S
H316   C304    1.132   1_554 S
C323   C324    1.713   .     D
C323   C328    1.613   .     S
C323   N329    1.395   .     S
C324   C325    1.342   .     S
C324   H337    1.132   .     S
C325   C326    1.621   1_556 D
C325   H338    1.129   .     S
C326   C325    1.621   1_554 D
C326   C327    1.712   1_554 S
C327   C326    1.712   1_556 S
C327   C328    1.342   .     D
C327   H339    1.132   1_556 S
C328   H340    1.129   .     S
N329   C330    1.450   .     D
C330   C331    1.465   .     S
C330   H341    1.128   .     S
C331   C332    1.742   .     S
C331   C336    1.599   .     D
C332   C333    1.459   .     D
C332   H342    1.131   .     S
C333   C334    1.619   .     S
C333   H343    1.129   .     S
C334   C335    1.753   .     D
C334   C370    1.741   .     S
C335   C336    1.462   .     S
C335   H344    1.132   .     S
C336   H345    1.128   .     S
H339   C327    1.132   1_554 S
C346   C347    1.713   1_455 D
C346   C351    1.613   .     S
C346   N352    1.395   .     S
C347   C346    1.713   1_655 D
C347   C348    1.342   .     S
C347   H360    1.132   .     S
C348   C349    1.621   1_655 D
C348   H361    1.129   .     S
C349   C348    1.621   1_455 D
C349   C165    1.424   1_455 S
C349   C350    1.712   .     S
C350   C351    1.342   .     D
C350   H362    1.132   .     S
C351   H363    1.129   .     S
N352   C353    1.450   1_455 D
C353   N352    1.450   1_655 D
C353   C354    1.465   1_554 S
C353   H364    1.128   .     S
C354   C353    1.465   1_556 S
C354   C355    1.742   1_655 S
C354   C359    1.599   .     D
C355   C354    1.742   1_455 S
C355   C356    1.459   .     D
C355   H365    1.131   .     S
C356   C357    1.619   1_455 S
C356   H366    1.129   .     S
C357   C356    1.619   1_655 S
C357   C358    1.753   .     D
C357   C369    1.741   1_665 S
C358   C359    1.462   .     S
C358   H367    1.132   .     S
C359   H368    1.128   .     S
C369   C357    1.741   1_445 S
C369   C12     1.741   1_455 S
C369   C81     1.741   1_545 S
C370   C35     1.741   1_554 S
C370   C58     1.741   1_554 S
C371   C265    1.741   1_455 S
C371   C104    1.741   1_455 S
C372   C219    1.741   1_545 S
C372   C127    1.741   1_545 S
