data_160
_audit_creation_date              2023-09-08
_audit_creation_method            'Materials Studio'
_symmetry_space_group_name_H-M    'P1'
_symmetry_Int_Tables_number       1
_symmetry_cell_setting            triclinic
loop_
_symmetry_equiv_pos_as_xyz
  x,y,z
_cell_length_a                    32.8100
_cell_length_b                    32.8100
_cell_length_c                    3.4100
_cell_angle_alpha                 90.0000
_cell_angle_beta                  90.0000
_cell_angle_gamma                 120.0000
loop_
_atom_site_label
_atom_site_type_symbol
_atom_site_fract_x
_atom_site_fract_y
_atom_site_fract_z
_atom_site_U_iso_or_equiv
_atom_site_adp_type
_atom_site_occupancy
C1     C     0.49407   0.45597   0.90547   0.00000  Uiso   1.00
C2     C     0.53924   0.49421   0.82575   0.00000  Uiso   1.00
C3     C     0.54420   0.53938   0.82409   0.00000  Uiso   1.00
C4     C     0.58519   0.58316   0.64294   0.00000  Uiso   1.00
C5     C     0.62419   0.51337   0.70138   0.00000  Uiso   1.00
C6     C     0.65508   0.50109   0.52344   0.00000  Uiso   1.00
C7     C     0.63704   0.45674   0.34797   0.00000  Uiso   1.00
C8     C     0.58868   0.42489   0.36570   0.00000  Uiso   1.00
C9     C     0.55875   0.43804   0.51468   0.00000  Uiso   1.00
C10    C     0.57511   0.48276   0.67986   0.00000  Uiso   1.00
C11    C     0.61875   0.32255  -0.17487   0.00000  Uiso   1.00
C12    C     0.65530   0.36873  -0.16116   0.00000  Uiso   1.00
N13    N     0.02511   0.39476   0.83938   0.00000  Uiso   1.00
C14    C     0.01116   0.35214   0.99578   0.00000  Uiso   1.00
C15    C     0.05046   0.34798   1.06346   0.00000  Uiso   1.00
N16    N     0.08856   0.38824   0.94663   0.00000  Uiso   1.00
C17    C     0.07201   0.41504   0.79996   0.00000  Uiso   1.00
C18    C     0.13621   0.39687   0.89084   0.00000  Uiso   1.00
C19    C     0.54722   0.72293   0.97686   0.00000  Uiso   1.00
C20    C     0.53583   0.76104   0.86249   0.00000  Uiso   1.00
N21    N     0.35506   0.59621  -0.03595   0.00000  Uiso   1.00
C22    C     0.33179   0.55819   0.16733   0.00000  Uiso   1.00
H23    H     0.49267   0.44687   1.22966   0.00000  Uiso   1.00
H24    H     0.57421   0.58694   0.33401   0.00000  Uiso   1.00
H25    H     0.61686   0.57788   0.61434   0.00000  Uiso   1.00
H26    H     0.63871   0.54823   0.86442   0.00000  Uiso   1.00
H27    H     0.69454   0.52710   0.52224   0.00000  Uiso   1.00
H28    H     0.57406   0.38738   0.25396   0.00000  Uiso   1.00
H29    H     0.51918   0.41255   0.50791   0.00000  Uiso   1.00
H30    H     0.58081   0.31468  -0.19607   0.00000  Uiso   1.00
H31    H     0.97217   0.32667   1.04975   0.00000  Uiso   1.00
H32    H     0.04640   0.31429   1.19700   0.00000  Uiso   1.00
H33    H     0.09278   0.45104   0.65475   0.00000  Uiso   1.00
H34    H     0.14219   0.36684   0.79944   0.00000  Uiso   1.00
H35    H     0.48830   0.42405   0.72825   0.00000  Uiso   1.00
H36    H     0.55883   0.54822   1.13503   0.00000  Uiso   1.00
H37    H     0.52731   0.78955   0.77694   0.00000  Uiso   1.00
C38    C     0.54403   0.03810   0.90547   0.00000  Uiso   1.00
C39    C     0.50579   0.04503   0.82575   0.00000  Uiso   1.00
C40    C     0.46062   0.00482   0.82409   0.00000  Uiso   1.00
C41    C     0.41684   0.00203   0.64294   0.00000  Uiso   1.00
C42    C     0.48663   0.11082   0.70138   0.00000  Uiso   1.00
C43    C     0.49891   0.15399   0.52344   0.00000  Uiso   1.00
C44    C     0.54326   0.18030   0.34797   0.00000  Uiso   1.00
C45    C     0.57511   0.16379   0.36570   0.00000  Uiso   1.00
C46    C     0.56196   0.12071   0.51468   0.00000  Uiso   1.00
C47    C     0.51724   0.09235   0.67986   0.00000  Uiso   1.00
C48    C     0.67745   0.29620  -0.17487   0.00000  Uiso   1.00
C49    C     0.63127   0.28657  -0.16116   0.00000  Uiso   1.00
N50    N     0.60524   0.63035   0.83938   0.00000  Uiso   1.00
C51    C     0.64786   0.65902   0.99578   0.00000  Uiso   1.00
C52    C     0.65202   0.70248   1.06346   0.00000  Uiso   1.00
N53    N     0.61176   0.70032   0.94663   0.00000  Uiso   1.00
C54    C     0.58496   0.65697   0.79996   0.00000  Uiso   1.00
C55    C     0.60313   0.73934   0.89084   0.00000  Uiso   1.00
C56    C     0.27707   0.82429   0.97686   0.00000  Uiso   1.00
C57    C     0.23896   0.77479   0.86249   0.00000  Uiso   1.00
N58    N     0.40379   0.75885  -0.03595   0.00000  Uiso   1.00
C59    C     0.44181   0.77360   0.16733   0.00000  Uiso   1.00
H60    H     0.55313   0.04580   1.22966   0.00000  Uiso   1.00
H61    H     0.41306   0.98727   0.33401   0.00000  Uiso   1.00
H62    H     0.42212   0.03898   0.61434   0.00000  Uiso   1.00
H63    H     0.45177   0.09048   0.86442   0.00000  Uiso   1.00
H64    H     0.47290   0.16744   0.52224   0.00000  Uiso   1.00
H65    H     0.61262   0.18668   0.25396   0.00000  Uiso   1.00
H66    H     0.58745   0.10663   0.50791   0.00000  Uiso   1.00
H67    H     0.68532   0.26613  -0.19607   0.00000  Uiso   1.00
H68    H     0.67333   0.64550   1.04975   0.00000  Uiso   1.00
H69    H     0.68571   0.73211   1.19700   0.00000  Uiso   1.00
H70    H     0.54896   0.64174   0.65475   0.00000  Uiso   1.00
H71    H     0.63316   0.77535   0.79944   0.00000  Uiso   1.00
H72    H     0.57595   0.06425   0.72825   0.00000  Uiso   1.00
H73    H     0.45178   0.01061   1.13503   0.00000  Uiso   1.00
H74    H     0.21045   0.73776   0.77694   0.00000  Uiso   1.00
C75    C     0.96190   0.50593   0.90547   0.00000  Uiso   1.00
C76    C     0.95497   0.46076   0.82575   0.00000  Uiso   1.00
C77    C     0.99518   0.45580   0.82409   0.00000  Uiso   1.00
C78    C     0.99797   0.41481   0.64294   0.00000  Uiso   1.00
C79    C     0.88918   0.37581   0.70138   0.00000  Uiso   1.00
C80    C     0.84601   0.34492   0.52344   0.00000  Uiso   1.00
C81    C     0.81970   0.36296   0.34797   0.00000  Uiso   1.00
C82    C     0.83621   0.41132   0.36570   0.00000  Uiso   1.00
C83    C     0.87929   0.44125   0.51468   0.00000  Uiso   1.00
C84    C     0.90765   0.42489   0.67986   0.00000  Uiso   1.00
C85    C     0.70380   0.38125  -0.17487   0.00000  Uiso   1.00
C86    C     0.71343   0.34470  -0.16116   0.00000  Uiso   1.00
N87    N     0.36965   0.97489   0.83938   0.00000  Uiso   1.00
C88    C     0.34098   0.98884   0.99578   0.00000  Uiso   1.00
C89    C     0.29752   0.94954   1.06346   0.00000  Uiso   1.00
N90    N     0.29968   0.91144   0.94663   0.00000  Uiso   1.00
C91    C     0.34303   0.92799   0.79996   0.00000  Uiso   1.00
C92    C     0.26066   0.86379   0.89084   0.00000  Uiso   1.00
C93    C     0.17571   0.45278   0.97686   0.00000  Uiso   1.00
C94    C     0.22521   0.46417   0.86249   0.00000  Uiso   1.00
N95    N     0.24115   0.64494  -0.03595   0.00000  Uiso   1.00
C96    C     0.22640   0.66821   0.16733   0.00000  Uiso   1.00
H97    H     0.95420   0.50733   1.22966   0.00000  Uiso   1.00
H98    H     0.01273   0.42579   0.33401   0.00000  Uiso   1.00
H99    H     0.96102   0.38314   0.61434   0.00000  Uiso   1.00
H100   H     0.90952   0.36129   0.86442   0.00000  Uiso   1.00
H101   H     0.83256   0.30546   0.52224   0.00000  Uiso   1.00
H102   H     0.81332   0.42594   0.25396   0.00000  Uiso   1.00
H103   H     0.89337   0.48082   0.50791   0.00000  Uiso   1.00
H104   H     0.73387   0.41919  -0.19607   0.00000  Uiso   1.00
H105   H     0.35450   0.02783   1.04975   0.00000  Uiso   1.00
H106   H     0.26789   0.95360   1.19700   0.00000  Uiso   1.00
H107   H     0.35826   0.90722   0.65475   0.00000  Uiso   1.00
H108   H     0.22465   0.85781   0.79944   0.00000  Uiso   1.00
H109   H     0.93575   0.51170   0.72825   0.00000  Uiso   1.00
H110   H     0.98939   0.44117   1.13503   0.00000  Uiso   1.00
H111   H     0.26224   0.47269   0.77694   0.00000  Uiso   1.00
C112   C     0.50593   0.54403   0.90547   0.00000  Uiso   1.00
C113   C     0.46076   0.50579   0.82575   0.00000  Uiso   1.00
C114   C     0.45580   0.46062   0.82409   0.00000  Uiso   1.00
C115   C     0.41481   0.41684   0.64294   0.00000  Uiso   1.00
C116   C     0.37581   0.48663   0.70138   0.00000  Uiso   1.00
C117   C     0.34492   0.49891   0.52344   0.00000  Uiso   1.00
C118   C     0.36296   0.54326   0.34797   0.00000  Uiso   1.00
C119   C     0.41132   0.57511   0.36570   0.00000  Uiso   1.00
C120   C     0.44125   0.56196   0.51468   0.00000  Uiso   1.00
C121   C     0.42489   0.51724   0.67986   0.00000  Uiso   1.00
C122   C     0.38125   0.67745  -0.17487   0.00000  Uiso   1.00
C123   C     0.34470   0.63127  -0.16116   0.00000  Uiso   1.00
N124   N     0.97489   0.60524   0.83938   0.00000  Uiso   1.00
C125   C     0.98884   0.64786   0.99578   0.00000  Uiso   1.00
C126   C     0.94954   0.65202   1.06346   0.00000  Uiso   1.00
N127   N     0.91144   0.61176   0.94663   0.00000  Uiso   1.00
C128   C     0.92799   0.58496   0.79996   0.00000  Uiso   1.00
C129   C     0.86379   0.60313   0.89084   0.00000  Uiso   1.00
C130   C     0.45278   0.27707   0.97686   0.00000  Uiso   1.00
C131   C     0.46417   0.23896   0.86249   0.00000  Uiso   1.00
N132   N     0.64494   0.40379  -0.03595   0.00000  Uiso   1.00
C133   C     0.66821   0.44181   0.16733   0.00000  Uiso   1.00
H134   H     0.50733   0.55313   1.22966   0.00000  Uiso   1.00
H135   H     0.42579   0.41306   0.33401   0.00000  Uiso   1.00
H136   H     0.38314   0.42212   0.61434   0.00000  Uiso   1.00
H137   H     0.36129   0.45177   0.86442   0.00000  Uiso   1.00
H138   H     0.30546   0.47290   0.52224   0.00000  Uiso   1.00
H139   H     0.42594   0.61262   0.25396   0.00000  Uiso   1.00
H140   H     0.48082   0.58745   0.50791   0.00000  Uiso   1.00
H141   H     0.41919   0.68532  -0.19607   0.00000  Uiso   1.00
H142   H     0.02783   0.67333   1.04975   0.00000  Uiso   1.00
H143   H     0.95360   0.68571   1.19700   0.00000  Uiso   1.00
H144   H     0.90722   0.54896   0.65475   0.00000  Uiso   1.00
H145   H     0.85781   0.63316   0.79944   0.00000  Uiso   1.00
H146   H     0.51170   0.57595   0.72825   0.00000  Uiso   1.00
H147   H     0.44117   0.45178   1.13503   0.00000  Uiso   1.00
H148   H     0.47269   0.21045   0.77694   0.00000  Uiso   1.00
C149   C     0.45597   0.96190   0.90547   0.00000  Uiso   1.00
C150   C     0.49421   0.95497   0.82575   0.00000  Uiso   1.00
C151   C     0.53938   0.99518   0.82409   0.00000  Uiso   1.00
C152   C     0.58316   0.99797   0.64294   0.00000  Uiso   1.00
C153   C     0.51337   0.88918   0.70138   0.00000  Uiso   1.00
C154   C     0.50109   0.84601   0.52344   0.00000  Uiso   1.00
C155   C     0.45674   0.81970   0.34797   0.00000  Uiso   1.00
C156   C     0.42489   0.83621   0.36570   0.00000  Uiso   1.00
C157   C     0.43804   0.87929   0.51468   0.00000  Uiso   1.00
C158   C     0.48276   0.90765   0.67986   0.00000  Uiso   1.00
C159   C     0.32255   0.70380  -0.17487   0.00000  Uiso   1.00
C160   C     0.36873   0.71343  -0.16116   0.00000  Uiso   1.00
N161   N     0.39476   0.36965   0.83938   0.00000  Uiso   1.00
C162   C     0.35214   0.34098   0.99578   0.00000  Uiso   1.00
C163   C     0.34798   0.29752   1.06346   0.00000  Uiso   1.00
N164   N     0.38824   0.29968   0.94663   0.00000  Uiso   1.00
C165   C     0.41504   0.34303   0.79996   0.00000  Uiso   1.00
C166   C     0.39687   0.26066   0.89084   0.00000  Uiso   1.00
C167   C     0.72293   0.17571   0.97686   0.00000  Uiso   1.00
C168   C     0.76104   0.22521   0.86249   0.00000  Uiso   1.00
N169   N     0.59621   0.24115  -0.03595   0.00000  Uiso   1.00
C170   C     0.55819   0.22640   0.16733   0.00000  Uiso   1.00
H171   H     0.44687   0.95420   1.22966   0.00000  Uiso   1.00
H172   H     0.58694   0.01273   0.33401   0.00000  Uiso   1.00
H173   H     0.57788   0.96102   0.61434   0.00000  Uiso   1.00
H174   H     0.54823   0.90952   0.86442   0.00000  Uiso   1.00
H175   H     0.52710   0.83256   0.52224   0.00000  Uiso   1.00
H176   H     0.38738   0.81332   0.25396   0.00000  Uiso   1.00
H177   H     0.41255   0.89337   0.50791   0.00000  Uiso   1.00
H178   H     0.31468   0.73387  -0.19607   0.00000  Uiso   1.00
H179   H     0.32667   0.35450   1.04975   0.00000  Uiso   1.00
H180   H     0.31429   0.26789   1.19700   0.00000  Uiso   1.00
H181   H     0.45104   0.35826   0.65475   0.00000  Uiso   1.00
H182   H     0.36684   0.22465   0.79944   0.00000  Uiso   1.00
H183   H     0.42405   0.93575   0.72825   0.00000  Uiso   1.00
H184   H     0.54822   0.98939   1.13503   0.00000  Uiso   1.00
H185   H     0.78955   0.26224   0.77694   0.00000  Uiso   1.00
C186   C     0.03810   0.49407   0.90547   0.00000  Uiso   1.00
C187   C     0.04503   0.53924   0.82575   0.00000  Uiso   1.00
C188   C     0.00482   0.54420   0.82409   0.00000  Uiso   1.00
C189   C     0.00203   0.58519   0.64294   0.00000  Uiso   1.00
C190   C     0.11082   0.62419   0.70138   0.00000  Uiso   1.00
C191   C     0.15399   0.65508   0.52344   0.00000  Uiso   1.00
C192   C     0.18030   0.63704   0.34797   0.00000  Uiso   1.00
C193   C     0.16379   0.58868   0.36570   0.00000  Uiso   1.00
C194   C     0.12071   0.55875   0.51468   0.00000  Uiso   1.00
C195   C     0.09235   0.57511   0.67986   0.00000  Uiso   1.00
C196   C     0.29620   0.61875  -0.17487   0.00000  Uiso   1.00
C197   C     0.28657   0.65530  -0.16116   0.00000  Uiso   1.00
N198   N     0.63035   0.02511   0.83938   0.00000  Uiso   1.00
C199   C     0.65902   0.01116   0.99578   0.00000  Uiso   1.00
C200   C     0.70248   0.05046   1.06346   0.00000  Uiso   1.00
N201   N     0.70032   0.08856   0.94663   0.00000  Uiso   1.00
C202   C     0.65697   0.07201   0.79996   0.00000  Uiso   1.00
C203   C     0.73934   0.13621   0.89084   0.00000  Uiso   1.00
C204   C     0.82429   0.54722   0.97686   0.00000  Uiso   1.00
C205   C     0.77479   0.53583   0.86249   0.00000  Uiso   1.00
N206   N     0.75885   0.35506  -0.03595   0.00000  Uiso   1.00
C207   C     0.77360   0.33179   0.16733   0.00000  Uiso   1.00
H208   H     0.04580   0.49267   1.22966   0.00000  Uiso   1.00
H209   H     0.98727   0.57421   0.33401   0.00000  Uiso   1.00
H210   H     0.03898   0.61686   0.61434   0.00000  Uiso   1.00
H211   H     0.09048   0.63871   0.86442   0.00000  Uiso   1.00
H212   H     0.16744   0.69454   0.52224   0.00000  Uiso   1.00
H213   H     0.18668   0.57406   0.25396   0.00000  Uiso   1.00
H214   H     0.10663   0.51918   0.50791   0.00000  Uiso   1.00
H215   H     0.26613   0.58081  -0.19607   0.00000  Uiso   1.00
H216   H     0.64550   0.97217   1.04975   0.00000  Uiso   1.00
H217   H     0.73211   0.04640   1.19700   0.00000  Uiso   1.00
H218   H     0.64174   0.09278   0.65475   0.00000  Uiso   1.00
H219   H     0.77535   0.14219   0.79944   0.00000  Uiso   1.00
H220   H     0.06425   0.48830   0.72825   0.00000  Uiso   1.00
H221   H     0.01061   0.55883   1.13503   0.00000  Uiso   1.00
H222   H     0.73776   0.52731   0.77694   0.00000  Uiso   1.00
loop_
_geom_bond_atom_site_label_1
_geom_bond_atom_site_label_2
_geom_bond_distance
_geom_bond_site_symmetry_2
_ccdc_geom_bond_type
C1     C2      1.409   .     S
C1     H23     1.140   .     S
C1     H35     1.140   .     S
C1     C114    1.367   .     S
C2     C3      1.408   .     S
C2     C10     1.489   .     D
C3     C4      1.524   .     S
C3     H36     1.140   .     S
C3     C112    1.367   .     S
C4     H24     1.140   .     S
C4     H25     1.140   .     S
C4     N50     1.503   .     S
C5     C6      1.402   .     D
C5     C10     1.411   .     S
C5     H26     1.140   .     S
C6     C7      1.402   .     S
C6     H27     1.140   .     S
C7     C8      1.398   .     S
C7     C133    1.472   .     D
C8     C9      1.354   .     D
C8     H28     1.140   .     S
C9     C10     1.404   .     S
C9     H29     1.140   .     S
C11    C12     1.385   .     S
C11    H30     1.140   .     S
C11    C49     1.432   .     D
C12    C85     1.432   .     D
C12    N132    1.418   .     S
N13    C14     1.345   .     S
N13    C17     1.343   .     D
N13    C78     1.503   1_455 S
C14    C15     1.382   .     D
C14    H31     1.140   1_455 S
C15    N16     1.347   .     S
C15    H32     1.140   .     S
N16    C17     1.340   .     S
N16    C18     1.455   .     D
C17    H33     1.140   .     S
C18    H34     1.140   .     S
C18    C93     1.659   .     S
C19    C20     1.524   .     T
C19    C55     1.659   .     S
C20    H37     1.140   .     S
N21    C22     1.291   .     D
N21    C123    1.418   .     S
C22    C118    1.472   .     D
H31    C14     1.140   1_655 S
C38    C39     1.409   .     S
C38    H60     1.140   .     S
C38    H72     1.140   .     S
C38    C151    1.367   1_545 S
C39    C40     1.408   .     S
C39    C47     1.489   .     D
C40    C41     1.524   .     S
C40    H73     1.140   .     S
C40    C149    1.367   1_545 S
C41    H61     1.140   1_545 S
C41    H62     1.140   .     S
C41    N87     1.503   1_545 S
C42    C43     1.402   .     D
C42    C47     1.411   .     S
C42    H63     1.140   .     S
C43    C44     1.402   .     S
C43    H64     1.140   .     S
C44    C45     1.398   .     S
C44    C170    1.472   .     D
C45    C46     1.354   .     D
C45    H65     1.140   .     S
C46    C47     1.404   .     S
C46    H66     1.140   .     S
C48    C49     1.385   .     S
C48    H67     1.140   .     S
C48    C86     1.432   .     D
C49    N169    1.418   .     S
N50    C51     1.345   .     S
N50    C54     1.343   .     D
C51    C52     1.382   .     D
C51    H68     1.140   .     S
C52    N53     1.347   .     S
C52    H69     1.140   .     S
N53    C54     1.340   .     S
N53    C55     1.455   .     D
C54    H70     1.140   .     S
C55    H71     1.140   .     S
C56    C57     1.524   .     T
C56    C92     1.659   .     S
C57    H74     1.140   .     S
N58    C59     1.291   .     D
N58    C160    1.418   .     S
C59    C155    1.472   .     D
H61    C41     1.140   1_565 S
C75    C76     1.409   .     S
C75    H97     1.140   .     S
C75    H109    1.140   .     S
C75    C188    1.367   1_655 S
C76    C77     1.408   .     S
C76    C84     1.489   .     D
C77    C78     1.524   .     S
C77    H110    1.140   .     S
C77    C186    1.367   1_655 S
C78    N13     1.503   1_655 S
C78    H98     1.140   1_655 S
C78    H99     1.140   .     S
C79    C80     1.402   .     D
C79    C84     1.411   .     S
C79    H100    1.140   .     S
C80    C81     1.402   .     S
C80    H101    1.140   .     S
C81    C82     1.398   .     S
C81    C207    1.472   .     D
C82    C83     1.354   .     D
C82    H102    1.140   .     S
C83    C84     1.404   .     S
C83    H103    1.140   .     S
C85    C86     1.385   .     S
C85    H104    1.140   .     S
C86    N206    1.418   .     S
N87    C41     1.503   1_565 S
N87    C88     1.345   .     S
N87    C91     1.343   .     D
C88    C89     1.382   .     D
C88    H105    1.140   1_565 S
C89    N90     1.347   .     S
C89    H106    1.140   .     S
N90    C91     1.340   .     S
N90    C92     1.455   .     D
C91    H107    1.140   .     S
C92    H108    1.140   .     S
C93    C94     1.524   .     T
C94    H111    1.140   .     S
N95    C96     1.291   .     D
N95    C197    1.418   .     S
C96    C192    1.472   .     D
H98    C78     1.140   1_455 S
H105   C88     1.140   1_545 S
C112   C113    1.409   .     S
C112   H134    1.140   .     S
C112   H146    1.140   .     S
C113   C114    1.408   .     S
C113   C121    1.489   .     D
C114   C115    1.524   .     S
C114   H147    1.140   .     S
C115   H135    1.140   .     S
C115   H136    1.140   .     S
C115   N161    1.503   .     S
C116   C117    1.402   .     D
C116   C121    1.411   .     S
C116   H137    1.140   .     S
C117   C118    1.402   .     S
C117   H138    1.140   .     S
C118   C119    1.398   .     S
C119   C120    1.354   .     D
C119   H139    1.140   .     S
C120   C121    1.404   .     S
C120   H140    1.140   .     S
C122   C123    1.385   .     D
C122   H141    1.140   .     S
C122   C160    1.432   .     S
C123   C196    1.432   .     S
N124   C125    1.345   .     S
N124   C128    1.343   .     D
N124   C189    1.503   1_655 S
C125   C126    1.382   .     D
C125   H142    1.140   1_655 S
C126   N127    1.347   .     S
C126   H143    1.140   .     S
N127   C128    1.340   .     S
N127   C129    1.455   .     D
C128   H144    1.140   .     S
C129   H145    1.140   .     S
C129   C204    1.659   .     S
C130   C131    1.524   .     T
C130   C166    1.659   .     S
C131   H148    1.140   .     S
N132   C133    1.291   .     D
H142   C125    1.140   1_455 S
C149   C40     1.367   1_565 S
C149   C150    1.409   .     S
C149   H171    1.140   .     S
C149   H183    1.140   .     S
C150   C151    1.408   .     S
C150   C158    1.489   .     D
C151   C38     1.367   1_565 S
C151   C152    1.524   .     S
C151   H184    1.140   .     S
C152   H172    1.140   1_565 S
C152   H173    1.140   .     S
C152   N198    1.503   1_565 S
C153   C154    1.402   .     D
C153   C158    1.411   .     S
C153   H174    1.140   .     S
C154   C155    1.402   .     S
C154   H175    1.140   .     S
C155   C156    1.398   .     S
C156   C157    1.354   .     D
C156   H176    1.140   .     S
C157   C158    1.404   .     S
C157   H177    1.140   .     S
C159   C160    1.385   .     D
C159   H178    1.140   .     S
C159   C197    1.432   .     S
N161   C162    1.345   .     S
N161   C165    1.343   .     D
C162   C163    1.382   .     D
C162   H179    1.140   .     S
C163   N164    1.347   .     S
C163   H180    1.140   .     S
N164   C165    1.340   .     S
N164   C166    1.455   .     D
C165   H181    1.140   .     S
C166   H182    1.140   .     S
C167   C168    1.524   .     T
C167   C203    1.659   .     S
C168   H185    1.140   .     S
N169   C170    1.291   .     D
H172   C152    1.140   1_545 S
C186   C77     1.367   1_455 S
C186   C187    1.409   .     S
C186   H208    1.140   .     S
C186   H220    1.140   .     S
C187   C188    1.408   .     S
C187   C195    1.489   .     D
C188   C75     1.367   1_455 S
C188   C189    1.524   .     S
C188   H221    1.140   .     S
C189   N124    1.503   1_455 S
C189   H209    1.140   1_455 S
C189   H210    1.140   .     S
C190   C191    1.402   .     D
C190   C195    1.411   .     S
C190   H211    1.140   .     S
C191   C192    1.402   .     S
C191   H212    1.140   .     S
C192   C193    1.398   .     S
C193   C194    1.354   .     D
C193   H213    1.140   .     S
C194   C195    1.404   .     S
C194   H214    1.140   .     S
C196   C197    1.385   .     D
C196   H215    1.140   .     S
N198   C152    1.503   1_545 S
N198   C199    1.345   .     S
N198   C202    1.343   .     D
C199   C200    1.382   .     D
C199   H216    1.140   1_545 S
C200   N201    1.347   .     S
C200   H217    1.140   .     S
N201   C202    1.340   .     S
N201   C203    1.455   .     D
C202   H218    1.140   .     S
C203   H219    1.140   .     S
C204   C205    1.524   .     T
C205   H222    1.140   .     S
N206   C207    1.291   .     D
H209   C189    1.140   1_655 S
H216   C199    1.140   1_565 S
