data_161
_audit_creation_date              2023-09-08
_audit_creation_method            'Materials Studio'
_symmetry_space_group_name_H-M    'P1'
_symmetry_Int_Tables_number       1
_symmetry_cell_setting            triclinic
loop_
_symmetry_equiv_pos_as_xyz
  x,y,z
_cell_length_a                    29.1500
_cell_length_b                    29.1500
_cell_length_c                    16.5600
_cell_angle_alpha                 90.0000
_cell_angle_beta                  90.0000
_cell_angle_gamma                 120.0000
loop_
_atom_site_label
_atom_site_type_symbol
_atom_site_fract_x
_atom_site_fract_y
_atom_site_fract_z
_atom_site_U_iso_or_equiv
_atom_site_adp_type
_atom_site_occupancy
C1     C     0.34576   0.60609   0.46025   0.00000  Uiso   1.00
C2     C     0.34134   0.56055   0.42238   0.00000  Uiso   1.00
C3     C     0.38706   0.56486   0.38645   0.00000  Uiso   1.00
O1     O     0.47368   0.60716   0.35077   0.00000  Uiso   1.00
C4     C     0.44565   0.47099   0.26807   0.00000  Uiso   1.00
C5     C     0.47077   0.44588   0.23115   0.00000  Uiso   1.00
C6     C     0.60598   0.34582   0.03976   0.00000  Uiso   1.00
C7     C     0.56040   0.34145   0.07740   0.00000  Uiso   1.00
C8     C     0.56470   0.38722   0.11314   0.00000  Uiso   1.00
O2     O     0.52614   0.39303   0.14866   0.00000  Uiso   1.00
H1     H     0.30660   0.52524   0.42259   0.00000  Uiso   1.00
H2     H     0.40610   0.44898   0.28104   0.00000  Uiso   1.00
H3     H     0.44876   0.40633   0.21818   0.00000  Uiso   1.00
H4     H     0.52510   0.30671   0.07719   0.00000  Uiso   1.00
C9     C     0.39391   0.73967   0.46025   0.00000  Uiso   1.00
C10    C     0.43945   0.78079   0.42238   0.00000  Uiso   1.00
C11    C     0.43514   0.82220   0.38645   0.00000  Uiso   1.00
O3     O     0.39284   0.86652   0.35077   0.00000  Uiso   1.00
C12    C     0.52901   0.97466   0.26807   0.00000  Uiso   1.00
C13    C     0.55412   0.02489   0.23115   0.00000  Uiso   1.00
C14    C     0.65418   0.26016   0.03976   0.00000  Uiso   1.00
C15    C     0.65855   0.21895   0.07740   0.00000  Uiso   1.00
C16    C     0.61278   0.17748   0.11314   0.00000  Uiso   1.00
O4     O     0.60697   0.13311   0.14866   0.00000  Uiso   1.00
H5     H     0.47476   0.78136   0.42259   0.00000  Uiso   1.00
H6     H     0.55102   0.95712   0.28104   0.00000  Uiso   1.00
H7     H     0.59367   0.04243   0.21818   0.00000  Uiso   1.00
H8     H     0.69329   0.21839   0.07719   0.00000  Uiso   1.00
C17    C     0.26033   0.65424   0.46025   0.00000  Uiso   1.00
C18    C     0.21921   0.65866   0.42238   0.00000  Uiso   1.00
C19    C     0.17780   0.61294   0.38645   0.00000  Uiso   1.00
O5     O     0.13348   0.52632   0.35077   0.00000  Uiso   1.00
C20    C     0.02534   0.55435   0.26807   0.00000  Uiso   1.00
C21    C     0.97511   0.52923   0.23115   0.00000  Uiso   1.00
C22    C     0.73984   0.39402   0.03976   0.00000  Uiso   1.00
C23    C     0.78105   0.43960   0.07740   0.00000  Uiso   1.00
C24    C     0.82252   0.43530   0.11314   0.00000  Uiso   1.00
O6     O     0.86689   0.47386   0.14866   0.00000  Uiso   1.00
H9     H     0.21864   0.69340   0.42259   0.00000  Uiso   1.00
H10    H     0.04288   0.59390   0.28104   0.00000  Uiso   1.00
H11    H     0.95757   0.55124   0.21818   0.00000  Uiso   1.00
H12    H     0.78161   0.47490   0.07719   0.00000  Uiso   1.00
C25    C     0.60609   0.34576   0.53975   0.00000  Uiso   1.00
C26    C     0.56055   0.34134   0.57762   0.00000  Uiso   1.00
C27    C     0.56486   0.38706   0.61355   0.00000  Uiso   1.00
O7     O     0.60716   0.47368   0.64923   0.00000  Uiso   1.00
C28    C     0.47099   0.44565   0.73193   0.00000  Uiso   1.00
C29    C     0.44588   0.47077   0.76885   0.00000  Uiso   1.00
C30    C     0.34582   0.60598   0.96024   0.00000  Uiso   1.00
C31    C     0.34145   0.56040   0.92260   0.00000  Uiso   1.00
C32    C     0.38722   0.56470   0.88686   0.00000  Uiso   1.00
O8     O     0.39303   0.52614   0.85134   0.00000  Uiso   1.00
H13    H     0.52524   0.30660   0.57741   0.00000  Uiso   1.00
H14    H     0.44898   0.40610   0.71896   0.00000  Uiso   1.00
H15    H     0.40633   0.44876   0.78182   0.00000  Uiso   1.00
H16    H     0.30671   0.52510   0.92281   0.00000  Uiso   1.00
C33    C     0.73967   0.39391   0.53975   0.00000  Uiso   1.00
C34    C     0.78079   0.43945   0.57762   0.00000  Uiso   1.00
C35    C     0.82220   0.43514   0.61355   0.00000  Uiso   1.00
O9     O     0.86652   0.39284   0.64923   0.00000  Uiso   1.00
C36    C     0.97466   0.52901   0.73193   0.00000  Uiso   1.00
C37    C     0.02489   0.55412   0.76885   0.00000  Uiso   1.00
C38    C     0.26016   0.65418   0.96024   0.00000  Uiso   1.00
C39    C     0.21895   0.65855   0.92260   0.00000  Uiso   1.00
C40    C     0.17748   0.61278   0.88686   0.00000  Uiso   1.00
O10    O     0.13311   0.60697   0.85134   0.00000  Uiso   1.00
H17    H     0.78136   0.47476   0.57741   0.00000  Uiso   1.00
H18    H     0.95712   0.55102   0.71896   0.00000  Uiso   1.00
H19    H     0.04243   0.59367   0.78182   0.00000  Uiso   1.00
H20    H     0.21839   0.69329   0.92281   0.00000  Uiso   1.00
C41    C     0.65424   0.26033   0.53975   0.00000  Uiso   1.00
C42    C     0.65866   0.21921   0.57762   0.00000  Uiso   1.00
C43    C     0.61294   0.17780   0.61355   0.00000  Uiso   1.00
O11    O     0.52632   0.13348   0.64923   0.00000  Uiso   1.00
C44    C     0.55435   0.02534   0.73193   0.00000  Uiso   1.00
C45    C     0.52923   0.97511   0.76885   0.00000  Uiso   1.00
C46    C     0.39402   0.73984   0.96024   0.00000  Uiso   1.00
C47    C     0.43960   0.78105   0.92260   0.00000  Uiso   1.00
C48    C     0.43530   0.82252   0.88686   0.00000  Uiso   1.00
O12    O     0.47386   0.86689   0.85134   0.00000  Uiso   1.00
H21    H     0.69340   0.21864   0.57741   0.00000  Uiso   1.00
H22    H     0.59390   0.04288   0.71896   0.00000  Uiso   1.00
H23    H     0.55124   0.95757   0.78182   0.00000  Uiso   1.00
H24    H     0.47490   0.78161   0.92281   0.00000  Uiso   1.00
C49    C     0.65424   0.39391   0.53975   0.00000  Uiso   1.00
C50    C     0.65866   0.43945   0.57762   0.00000  Uiso   1.00
C51    C     0.61294   0.43514   0.61355   0.00000  Uiso   1.00
O13    O     0.52632   0.39284   0.64923   0.00000  Uiso   1.00
C52    C     0.55435   0.52901   0.73193   0.00000  Uiso   1.00
C53    C     0.52923   0.55412   0.76885   0.00000  Uiso   1.00
C54    C     0.39402   0.65418   0.96024   0.00000  Uiso   1.00
C55    C     0.43960   0.65855   0.92260   0.00000  Uiso   1.00
C56    C     0.43530   0.61278   0.88686   0.00000  Uiso   1.00
O14    O     0.47386   0.60697   0.85134   0.00000  Uiso   1.00
H25    H     0.69340   0.47476   0.57741   0.00000  Uiso   1.00
H26    H     0.59390   0.55102   0.71896   0.00000  Uiso   1.00
H27    H     0.55124   0.59367   0.78182   0.00000  Uiso   1.00
H28    H     0.47490   0.69329   0.92281   0.00000  Uiso   1.00
C57    C     0.60609   0.26033   0.53975   0.00000  Uiso   1.00
C58    C     0.56055   0.21921   0.57762   0.00000  Uiso   1.00
C59    C     0.56486   0.17780   0.61355   0.00000  Uiso   1.00
O15    O     0.60716   0.13348   0.64923   0.00000  Uiso   1.00
C60    C     0.47099   0.02534   0.73193   0.00000  Uiso   1.00
C61    C     0.44588   0.97511   0.76885   0.00000  Uiso   1.00
C62    C     0.34582   0.73984   0.96024   0.00000  Uiso   1.00
C63    C     0.34145   0.78105   0.92260   0.00000  Uiso   1.00
C64    C     0.38722   0.82252   0.88686   0.00000  Uiso   1.00
O16    O     0.39303   0.86689   0.85134   0.00000  Uiso   1.00
H29    H     0.52524   0.21864   0.57741   0.00000  Uiso   1.00
H30    H     0.44898   0.04288   0.71896   0.00000  Uiso   1.00
H31    H     0.40633   0.95757   0.78182   0.00000  Uiso   1.00
H32    H     0.30671   0.78161   0.92281   0.00000  Uiso   1.00
C65    C     0.73967   0.34576   0.53975   0.00000  Uiso   1.00
C66    C     0.78079   0.34134   0.57762   0.00000  Uiso   1.00
C67    C     0.82220   0.38706   0.61355   0.00000  Uiso   1.00
O17    O     0.86652   0.47368   0.64923   0.00000  Uiso   1.00
C68    C     0.97466   0.44565   0.73193   0.00000  Uiso   1.00
C69    C     0.02489   0.47077   0.76885   0.00000  Uiso   1.00
C70    C     0.26016   0.60598   0.96024   0.00000  Uiso   1.00
C71    C     0.21895   0.56040   0.92260   0.00000  Uiso   1.00
C72    C     0.17748   0.56470   0.88686   0.00000  Uiso   1.00
O18    O     0.13311   0.52614   0.85134   0.00000  Uiso   1.00
H33    H     0.78136   0.30660   0.57741   0.00000  Uiso   1.00
H34    H     0.95712   0.40610   0.71896   0.00000  Uiso   1.00
H35    H     0.04243   0.44876   0.78182   0.00000  Uiso   1.00
H36    H     0.21839   0.52510   0.92281   0.00000  Uiso   1.00
C73    C     0.39391   0.65424   0.46025   0.00000  Uiso   1.00
C74    C     0.43945   0.65866   0.42238   0.00000  Uiso   1.00
C75    C     0.43514   0.61294   0.38645   0.00000  Uiso   1.00
O19    O     0.39284   0.52632   0.35077   0.00000  Uiso   1.00
C76    C     0.52901   0.55435   0.26807   0.00000  Uiso   1.00
C77    C     0.55412   0.52923   0.23115   0.00000  Uiso   1.00
C78    C     0.65418   0.39402   0.03976   0.00000  Uiso   1.00
C79    C     0.65855   0.43960   0.07740   0.00000  Uiso   1.00
C80    C     0.61278   0.43530   0.11314   0.00000  Uiso   1.00
O20    O     0.60697   0.47386   0.14866   0.00000  Uiso   1.00
H37    H     0.47476   0.69340   0.42259   0.00000  Uiso   1.00
H38    H     0.55102   0.59390   0.28104   0.00000  Uiso   1.00
H39    H     0.59367   0.55124   0.21818   0.00000  Uiso   1.00
H40    H     0.69329   0.47490   0.07719   0.00000  Uiso   1.00
C81    C     0.26033   0.60609   0.46025   0.00000  Uiso   1.00
C82    C     0.21921   0.56055   0.42238   0.00000  Uiso   1.00
C83    C     0.17780   0.56486   0.38645   0.00000  Uiso   1.00
O21    O     0.13348   0.60716   0.35077   0.00000  Uiso   1.00
C84    C     0.02534   0.47099   0.26807   0.00000  Uiso   1.00
C85    C     0.97511   0.44588   0.23115   0.00000  Uiso   1.00
C86    C     0.73984   0.34582   0.03976   0.00000  Uiso   1.00
C87    C     0.78105   0.34145   0.07740   0.00000  Uiso   1.00
C88    C     0.82252   0.38722   0.11314   0.00000  Uiso   1.00
O22    O     0.86689   0.39303   0.14866   0.00000  Uiso   1.00
H41    H     0.21864   0.52524   0.42259   0.00000  Uiso   1.00
H42    H     0.04288   0.44898   0.28104   0.00000  Uiso   1.00
H43    H     0.95757   0.40633   0.21818   0.00000  Uiso   1.00
H44    H     0.78161   0.30671   0.07719   0.00000  Uiso   1.00
C89    C     0.34576   0.73967   0.46025   0.00000  Uiso   1.00
C90    C     0.34134   0.78079   0.42238   0.00000  Uiso   1.00
C91    C     0.38706   0.82220   0.38645   0.00000  Uiso   1.00
O23    O     0.47368   0.86652   0.35077   0.00000  Uiso   1.00
C92    C     0.44565   0.97466   0.26807   0.00000  Uiso   1.00
C93    C     0.47077   0.02489   0.23115   0.00000  Uiso   1.00
C94    C     0.60598   0.26016   0.03976   0.00000  Uiso   1.00
C95    C     0.56040   0.21895   0.07740   0.00000  Uiso   1.00
C96    C     0.56470   0.17748   0.11314   0.00000  Uiso   1.00
O24    O     0.52614   0.13311   0.14866   0.00000  Uiso   1.00
H45    H     0.30660   0.78136   0.42259   0.00000  Uiso   1.00
H46    H     0.40610   0.95712   0.28104   0.00000  Uiso   1.00
H47    H     0.44876   0.04243   0.21818   0.00000  Uiso   1.00
H48    H     0.52510   0.21839   0.07719   0.00000  Uiso   1.00
H49    H     0.35360   0.64640   1.15992   0.00000  Uiso   1.00
H50    H     0.35360   0.70720   1.15992   0.00000  Uiso   1.00
H51    H     0.29280   0.64640   1.15992   0.00000  Uiso   1.00
H52    H     0.64640   0.35360  -0.15992   0.00000  Uiso   1.00
H53    H     0.70720   0.35360  -0.15992   0.00000  Uiso   1.00
H54    H     0.64640   0.29280  -0.15992   0.00000  Uiso   1.00
B1     B     0.55187   0.44813   0.17206   0.00000  Uiso   1.00
B2     B     0.44793   0.55207   0.32728   0.00000  Uiso   1.00
C97    C     0.47441   0.52559   0.28711   0.00000  Uiso   1.00
C98    C     0.52537   0.47463   0.21213   0.00000  Uiso   1.00
B3     B     0.55187   0.10374   0.17206   0.00000  Uiso   1.00
B4     B     0.44793   0.89586   0.32728   0.00000  Uiso   1.00
C99    C     0.47441   0.94882   0.28711   0.00000  Uiso   1.00
C100   C     0.52537   0.05074   0.21213   0.00000  Uiso   1.00
B5     B     0.89626   0.44813   0.17206   0.00000  Uiso   1.00
B6     B     0.10414   0.55207   0.32728   0.00000  Uiso   1.00
C101   C     0.05118   0.52559   0.28711   0.00000  Uiso   1.00
C102   C     0.94926   0.47463   0.21213   0.00000  Uiso   1.00
B7     B     0.44813   0.55187   0.82794   0.00000  Uiso   1.00
B8     B     0.55207   0.44793   0.67272   0.00000  Uiso   1.00
C103   C     0.52559   0.47441   0.71289   0.00000  Uiso   1.00
C104   C     0.47463   0.52537   0.78787   0.00000  Uiso   1.00
B9     B     0.10374   0.55187   0.82794   0.00000  Uiso   1.00
B10    B     0.89586   0.44793   0.67272   0.00000  Uiso   1.00
C105   C     0.94882   0.47441   0.71289   0.00000  Uiso   1.00
C106   C     0.05074   0.52537   0.78787   0.00000  Uiso   1.00
B11    B     0.44813   0.89626   0.82794   0.00000  Uiso   1.00
B12    B     0.55207   0.10414   0.67272   0.00000  Uiso   1.00
C107   C     0.52559   0.05118   0.71289   0.00000  Uiso   1.00
C108   C     0.47463   0.94926   0.78787   0.00000  Uiso   1.00
C109   C     0.69540   0.39080  -0.00689   0.00000  Uiso   1.00
H55    H     0.71054   0.42109  -0.05416   0.00000  Uiso   1.00
C110   C     0.60920   0.30460  -0.00689   0.00000  Uiso   1.00
H56    H     0.57891   0.28945  -0.05416   0.00000  Uiso   1.00
C111   C     0.69540   0.30460  -0.00689   0.00000  Uiso   1.00
H57    H     0.71054   0.28945  -0.05416   0.00000  Uiso   1.00
C112   C     0.39080   0.69540   1.00689   0.00000  Uiso   1.00
H58    H     0.42109   0.71054   1.05416   0.00000  Uiso   1.00
C113   C     0.30460   0.60920   1.00689   0.00000  Uiso   1.00
H59    H     0.28945   0.57891   1.05416   0.00000  Uiso   1.00
C114   C     0.30460   0.69540   1.00689   0.00000  Uiso   1.00
H60    H     0.28945   0.71054   1.05416   0.00000  Uiso   1.00
C115   C     0.30467   0.60935   0.50717   0.00000  Uiso   1.00
H61    H     0.28907   0.57814   0.55289   0.00000  Uiso   1.00
C116   C     0.39065   0.69532   0.50717   0.00000  Uiso   1.00
H62    H     0.42186   0.71093   0.55289   0.00000  Uiso   1.00
C117   C     0.30467   0.69532   0.50717   0.00000  Uiso   1.00
H63    H     0.28907   0.71093   0.55289   0.00000  Uiso   1.00
C118   C     0.60935   0.30467   0.49283   0.00000  Uiso   1.00
H64    H     0.57814   0.28907   0.44711   0.00000  Uiso   1.00
C119   C     0.69532   0.39065   0.49283   0.00000  Uiso   1.00
H65    H     0.71093   0.42186   0.44711   0.00000  Uiso   1.00
C120   C     0.69532   0.30467   0.49283   0.00000  Uiso   1.00
H66    H     0.71093   0.28907   0.44711   0.00000  Uiso   1.00
C121   C     0.66667   0.33333  -0.04248   0.00000  Uiso   1.00
C122   C     0.66667   0.33333  -0.13683   0.00000  Uiso   1.00
C123   C     0.66667   0.33333   0.45557   0.00000  Uiso   1.00
C124   C     0.66667   0.33333   0.36003   0.00000  Uiso   1.00
C125   C     0.33333   0.66667   1.04248   0.00000  Uiso   1.00
C126   C     0.33333   0.66667   1.13683   0.00000  Uiso   1.00
C127   C     0.33333   0.66667   0.54443   0.00000  Uiso   1.00
C128   C     0.33333   0.66667   0.63997   0.00000  Uiso   1.00
H67    H     0.37326   0.68663   0.66500   0.00000  Uiso   1.00
H68    H     0.31337   0.68663   0.66500   0.00000  Uiso   1.00
H69    H     0.31337   0.62674   0.66500   0.00000  Uiso   1.00
H70    H     0.68663   0.37326   0.33500   0.00000  Uiso   1.00
H71    H     0.68663   0.31337   0.33500   0.00000  Uiso   1.00
H72    H     0.62674   0.31337   0.33500   0.00000  Uiso   1.00
loop_
_geom_bond_atom_site_label_1
_geom_bond_atom_site_label_2
_geom_bond_distance
_geom_bond_site_symmetry_2
_ccdc_geom_bond_type
C1     C2      1.415   .     S
C1     C73     1.404   .     D
C1     C115    1.470   .     S
C2     C3      1.407   .     D
C2     H1      1.021   .     S
C3     C75     1.402   .     S
C3     O19     1.352   .     S
O1     C75     1.352   .     S
O1     B2      1.445   .     S
C4     C5      1.408   .     D
C4     H2      1.023   .     S
C4     C97     1.415   .     S
C5     H3      1.023   .     S
C5     C98     1.415   .     S
C6     C7      1.415   .     D
C6     C78     1.405   .     S
C6     C110    1.470   .     S
C7     C8      1.407   .     S
C7     H4      1.021   .     S
C8     O2      1.352   .     S
C8     C80     1.402   .     D
O2     B1      1.445   .     S
C9     C10     1.415   .     S
C9     C89     1.404   .     D
C9     C116    1.470   .     S
C10    C11     1.407   .     D
C10    H5      1.021   .     S
C11    C91     1.402   .     S
C11    O23     1.352   .     S
O3     C91     1.352   .     S
O3     B4      1.445   .     S
C12    C13     1.408   1_565 D
C12    H6      1.023   .     S
C12    C99     1.415   .     S
C13    C12     1.408   1_545 D
C13    H7      1.023   .     S
C13    C100    1.415   .     S
C14    C15     1.415   .     D
C14    C94     1.405   .     S
C14    C111    1.470   .     S
C15    C16     1.407   .     S
C15    H8      1.021   .     S
C16    O4      1.352   .     S
C16    C96     1.402   .     D
O4     B3      1.445   .     S
C17    C18     1.415   .     S
C17    C81     1.404   .     D
C17    C117    1.470   .     S
C18    C19     1.407   .     D
C18    H9      1.021   .     S
C19    C83     1.402   .     S
C19    O21     1.352   .     S
O5     C83     1.352   .     S
O5     B6      1.445   .     S
C20    C21     1.408   1_455 S
C20    H10     1.023   .     S
C20    C101    1.415   .     D
C21    C20     1.408   1_655 S
C21    H11     1.023   .     S
C21    C102    1.415   .     D
C22    C23     1.415   .     D
C22    C86     1.405   .     S
C22    C109    1.470   .     S
C23    C24     1.407   .     S
C23    H12     1.021   .     S
C24    O6      1.352   .     S
C24    C88     1.402   .     D
O6     B5      1.445   .     S
C25    C26     1.415   .     S
C25    C49     1.404   .     D
C25    C118    1.470   .     S
C26    C27     1.407   .     D
C26    H13     1.021   .     S
C27    C51     1.402   .     S
C27    O13     1.352   .     S
O7     C51     1.352   .     S
O7     B8      1.445   .     S
C28    C29     1.408   .     S
C28    H14     1.023   .     S
C28    C103    1.415   .     D
C29    H15     1.023   .     S
C29    C104    1.415   .     D
C30    C31     1.415   .     D
C30    C54     1.405   .     S
C30    C113    1.470   .     S
C31    C32     1.407   .     S
C31    H16     1.021   .     S
C32    O8      1.352   .     S
C32    C56     1.402   .     D
O8     B7      1.445   .     S
C33    C34     1.415   .     S
C33    C65     1.404   .     D
C33    C119    1.470   .     S
C34    C35     1.407   .     D
C34    H17     1.021   .     S
C35    C67     1.402   .     S
C35    O17     1.352   .     S
O9     C67     1.352   .     S
O9     B10     1.445   .     S
C36    C37     1.408   1_655 S
C36    H18     1.023   .     S
C36    C105    1.415   .     D
C37    C36     1.408   1_455 S
C37    H19     1.023   .     S
C37    C106    1.415   .     D
C38    C39     1.415   .     S
C38    C70     1.405   .     D
C38    C114    1.470   .     S
C39    C40     1.407   .     D
C39    H20     1.021   .     S
C40    O10     1.352   .     S
C40    C72     1.402   .     S
O10    B9      1.445   .     S
C41    C42     1.415   .     S
C41    C57     1.404   .     D
C41    C120    1.470   .     S
C42    C43     1.407   .     D
C42    H21     1.021   .     S
C43    C59     1.402   .     S
C43    O15     1.352   .     S
O11    C59     1.352   .     S
O11    B12     1.445   .     S
C44    C45     1.408   1_545 S
C44    H22     1.023   .     S
C44    C107    1.415   .     D
C45    C44     1.408   1_565 S
C45    H23     1.023   .     S
C45    C108    1.415   .     D
C46    C47     1.415   .     S
C46    C62     1.405   .     D
C46    C112    1.470   .     S
C47    C48     1.407   .     D
C47    H24     1.021   .     S
C48    O12     1.352   .     S
C48    C64     1.402   .     S
O12    B11     1.445   .     S
C49    C50     1.415   .     S
C49    C119    1.470   .     S
C50    C51     1.407   .     D
C50    H25     1.021   .     S
O13    B8      1.445   .     S
C52    C53     1.408   .     D
C52    H26     1.023   .     S
C52    C103    1.415   .     S
C53    H27     1.023   .     S
C53    C104    1.415   .     S
C54    C55     1.415   .     D
C54    C112    1.470   .     S
C55    C56     1.407   .     S
C55    H28     1.021   .     S
C56    O14     1.352   .     S
O14    B7      1.445   .     S
C57    C58     1.415   .     S
C57    C118    1.470   .     S
C58    C59     1.407   .     D
C58    H29     1.021   .     S
O15    B12     1.445   .     S
C60    C61     1.408   1_545 D
C60    H30     1.023   .     S
C60    C107    1.415   .     S
C61    C60     1.408   1_565 D
C61    H31     1.023   .     S
C61    C108    1.415   .     S
C62    C63     1.415   .     S
C62    C114    1.470   .     S
C63    C64     1.407   .     D
C63    H32     1.021   .     S
C64    O16     1.352   .     S
O16    B11     1.445   .     S
C65    C66     1.415   .     S
C65    C120    1.470   .     S
C66    C67     1.407   .     D
C66    H33     1.021   .     S
O17    B10     1.445   .     S
C68    C69     1.408   1_655 D
C68    H34     1.023   .     S
C68    C105    1.415   .     S
C69    C68     1.408   1_455 D
C69    H35     1.023   .     S
C69    C106    1.415   .     S
C70    C71     1.415   .     S
C70    C113    1.470   .     S
C71    C72     1.407   .     D
C71    H36     1.021   .     S
C72    O18     1.352   .     S
O18    B9      1.445   .     S
C73    C74     1.415   .     S
C73    C116    1.470   .     S
C74    C75     1.407   .     D
C74    H37     1.021   .     S
O19    B2      1.445   .     S
C76    C77     1.408   .     S
C76    H38     1.023   .     S
C76    C97     1.415   .     D
C77    H39     1.023   .     S
C77    C98     1.415   .     D
C78    C79     1.415   .     D
C78    C109    1.470   .     S
C79    C80     1.407   .     S
C79    H40     1.021   .     S
C80    O20     1.352   .     S
O20    B1      1.445   .     S
C81    C82     1.415   .     S
C81    C115    1.470   .     S
C82    C83     1.407   .     D
C82    H41     1.021   .     S
O21    B6      1.445   .     S
C84    C85     1.408   1_455 D
C84    H42     1.023   .     S
C84    C101    1.415   .     S
C85    C84     1.408   1_655 D
C85    H43     1.023   .     S
C85    C102    1.415   .     S
C86    C87     1.415   .     D
C86    C111    1.470   .     S
C87    C88     1.407   .     S
C87    H44     1.021   .     S
C88    O22     1.352   .     S
O22    B5      1.445   .     S
C89    C90     1.415   .     S
C89    C117    1.470   .     S
C90    C91     1.407   .     D
C90    H45     1.021   .     S
O23    B4      1.445   .     S
C92    C93     1.408   1_565 S
C92    H46     1.023   .     S
C92    C99     1.415   .     D
C93    C92     1.408   1_545 S
C93    H47     1.023   .     S
C93    C100    1.415   .     D
C94    C95     1.415   .     D
C94    C110    1.470   .     S
C95    C96     1.407   .     S
C95    H48     1.021   .     S
C96    O24     1.352   .     S
O24    B3      1.445   .     S
H49    C126    1.092   .     S
H50    C126    1.092   .     S
H51    C126    1.092   .     S
H52    C122    1.092   .     S
H53    C122    1.092   .     S
H54    C122    1.092   .     S
B1     C98     1.493   .     S
B2     C97     1.493   .     S
B3     C100    1.493   .     S
B4     C99     1.493   .     S
B5     C102    1.493   .     S
B6     C101    1.493   .     S
B7     C104    1.493   .     S
B8     C103    1.493   .     S
B9     C106    1.493   .     S
B10    C105    1.493   .     S
B11    C108    1.493   .     S
B12    C107    1.493   .     S
C109   H55     1.094   .     S
C109   C121    1.566   .     S
C110   H56     1.094   .     S
C110   C121    1.566   .     S
C111   H57     1.094   .     S
C111   C121    1.566   .     S
C112   H58     1.094   .     S
C112   C125    1.566   .     S
C113   H59     1.094   .     S
C113   C125    1.566   .     S
C114   H60     1.094   .     S
C114   C125    1.566   .     S
C115   H61     1.093   .     S
C115   C127    1.573   .     S
C116   H62     1.093   .     S
C116   C127    1.573   .     S
C117   H63     1.093   .     S
C117   C127    1.573   .     S
C118   H64     1.093   .     S
C118   C123    1.573   .     S
C119   H65     1.093   .     S
C119   C123    1.573   .     S
C120   H66     1.093   .     S
C120   C123    1.573   .     S
C121   C122    1.562   .     S
C123   C124    1.582   .     S
C124   H70     1.090   .     S
C124   H71     1.090   .     S
C124   H72     1.090   .     S
C125   C126    1.562   .     S
C127   C128    1.582   .     S
C128   H67     1.090   .     S
C128   H68     1.090   .     S
C128   H69     1.090   .     S
