data_162
_audit_creation_date              2023-09-08
_audit_creation_method            'Materials Studio'
_symmetry_space_group_name_H-M    'P1'
_symmetry_Int_Tables_number       1
_symmetry_cell_setting            triclinic
loop_
_symmetry_equiv_pos_as_xyz
  x,y,z
_cell_length_a                    6.5584
_cell_length_b                    36.0803
_cell_length_c                    36.7374
_cell_angle_alpha                 64.1050
_cell_angle_beta                  90.0937
_cell_angle_gamma                 88.2237
loop_
_atom_site_label
_atom_site_type_symbol
_atom_site_fract_x
_atom_site_fract_y
_atom_site_fract_z
_atom_site_U_iso_or_equiv
_atom_site_adp_type
_atom_site_occupancy
C1     C     0.11273   0.59127   0.06586   0.00000  Uiso   1.00
C2     C     0.22136   0.54925   0.08693   0.00000  Uiso   1.00
C3     C     0.25850   0.53939   0.12669   0.00000  Uiso   1.00
C4     C     0.17024   0.57249   0.13779   0.00000  Uiso   1.00
C5     C     0.03636   0.60056   0.10081   0.00000  Uiso   1.00
C6     C     0.27982   0.52679   0.06328   0.00000  Uiso   1.00
C7     C     0.38540   0.50537   0.15643   0.00000  Uiso   1.00
C8     C     0.27115   0.48429   0.07548   0.00000  Uiso   1.00
S9     S     0.35637   0.47147   0.03752   0.00000  Uiso   1.00
C10    C     0.40499   0.52266   0.00492   0.00000  Uiso   1.00
C11    C     0.35279   0.54796   0.02312   0.00000  Uiso   1.00
C12    C     0.58214   0.49464   0.14916   0.00000  Uiso   1.00
S13    S     0.69354   0.45539   0.19239   0.00000  Uiso   1.00
C14    C     0.47655   0.45297   0.22093   0.00000  Uiso   1.00
C15    C     0.32804   0.48157   0.19741   0.00000  Uiso   1.00
C16    C     0.49477   0.53327  -0.03407   0.00000  Uiso   1.00
C17    C     0.47498   0.42507   0.26329   0.00000  Uiso   1.00
N18    N     0.63683   0.40334   0.28146   0.00000  Uiso   1.00
C19    C     0.63687   0.37585   0.32246   0.00000  Uiso   1.00
C20    C     0.47062   0.35192   0.34284   0.00000  Uiso   1.00
C21    C     0.48432   0.32547   0.38405   0.00000  Uiso   1.00
C22    C     0.66482   0.32218   0.40618   0.00000  Uiso   1.00
C23    C     0.83277   0.34522   0.38573   0.00000  Uiso   1.00
C24    C     0.81921   0.37116   0.34462   0.00000  Uiso   1.00
N25    N     0.68011   0.29650   0.44836   0.00000  Uiso   1.00
C26    C     0.79447   0.30994   0.47306   0.00000  Uiso   1.00
C27    C     0.60642   0.25599   0.46590   0.00000  Uiso   1.00
C28    C     0.75996   0.34967   0.47049   0.00000  Uiso   1.00
C29    C     0.87508   0.36294   0.49407   0.00000  Uiso   1.00
C30    C     1.02357   0.33659   0.52194   0.00000  Uiso   1.00
C31    C     1.05870   0.29696   0.52393   0.00000  Uiso   1.00
C32    C     0.94690   0.28390   0.49980   0.00000  Uiso   1.00
C33    C     0.61797   0.23060   0.44571   0.00000  Uiso   1.00
C34    C     0.56226   0.18970   0.46515   0.00000  Uiso   1.00
C35    C     0.48830   0.17283   0.50496   0.00000  Uiso   1.00
C36    C     0.47172   0.19881   0.52457   0.00000  Uiso   1.00
C37    C     0.53003   0.23955   0.50543   0.00000  Uiso   1.00
N38    N     0.45227   0.13074   0.52460   0.00000  Uiso   1.00
C39    C     0.30543   0.11717   0.55009   0.00000  Uiso   1.00
C40    C     0.28695   0.07407   0.57619   0.00000  Uiso   1.00
N41    N     1.13016   0.35191   0.54506   0.00000  Uiso   1.00
S42    S     0.47514   0.03790   0.57796   0.00000  Uiso   1.00
C43    C     0.35171  -0.00217   0.61647   0.00000  Uiso   1.00
C44    C     0.17099   0.01181   0.62718   0.00000  Uiso   1.00
C45    C     0.13835   0.05527   0.60437   0.00000  Uiso   1.00
C46    C     0.70095   0.51287   0.11118   0.00000  Uiso   1.00
C47    C     0.20296   0.45078   0.11437   0.00000  Uiso   1.00
C48    C     0.03749  -0.01344   0.66009   0.00000  Uiso   1.00
C49    C    -0.02403  -0.05281   0.67184   0.00000  Uiso   1.00
C50    C    -0.13060  -0.06806   0.71243   0.00000  Uiso   1.00
C51    C    -0.18940  -0.02825   0.71610   0.00000  Uiso   1.00
C52    C    -0.03316   0.00290   0.68996   0.00000  Uiso   1.00
C53    C     0.00076  -0.08108   0.65301   0.00000  Uiso   1.00
C54    C     0.02015  -0.12447   0.67733   0.00000  Uiso   1.00
C55    C     0.03161  -0.14769   0.65577   0.00000  Uiso   1.00
S56    S     0.01418  -0.11539   0.60390   0.00000  Uiso   1.00
C57    C    -0.00703  -0.07119   0.61162   0.00000  Uiso   1.00
C58    C     0.44698  -0.04454   0.63426   0.00000  Uiso   1.00
C59    C    -0.03827  -0.03034   0.57582   0.00000  Uiso   1.00
C60    C     0.04732  -0.19199   0.67135   0.00000  Uiso   1.00
N61    N     0.05513  -0.21471   0.71006   0.00000  Uiso   1.00
C62    C     0.04565  -0.25750   0.72754   0.00000  Uiso   1.00
C63    C    -0.02956  -0.28091   0.70837   0.00000  Uiso   1.00
C64    C    -0.05456  -0.32313   0.72993   0.00000  Uiso   1.00
C65    C    -0.00493  -0.34346   0.77151   0.00000  Uiso   1.00
C66    C     0.07899  -0.32078   0.79044   0.00000  Uiso   1.00
C67    C     0.10187  -0.27861   0.76888   0.00000  Uiso   1.00
N68    N    -0.05107  -0.38537   0.79497   0.00000  Uiso   1.00
C69    C    -0.15436  -0.39665   0.83207   0.00000  Uiso   1.00
C70    C    -0.01504  -0.41536   0.78034   0.00000  Uiso   1.00
C71    C    -0.30694  -0.37044   0.83616   0.00000  Uiso   1.00
C72    C    -0.40528  -0.38162   0.87272   0.00000  Uiso   1.00
C73    C    -0.36139  -0.41991   0.90606   0.00000  Uiso   1.00
C74    C    -0.20681  -0.44586   0.90184   0.00000  Uiso   1.00
C75    C    -0.10403  -0.43428   0.86564   0.00000  Uiso   1.00
C76    C    -0.16461  -0.44417   0.78476   0.00000  Uiso   1.00
C77    C    -0.12794  -0.47453   0.77178   0.00000  Uiso   1.00
C78    C     0.06048  -0.47807   0.75493   0.00000  Uiso   1.00
C79    C     0.20724  -0.44832   0.74931   0.00000  Uiso   1.00
C80    C     0.16962  -0.41734   0.76172   0.00000  Uiso   1.00
N81    N    -0.46605  -0.42899   0.94181   0.00000  Uiso   1.00
N82    N     0.08400  -0.51056   0.74425   0.00000  Uiso   1.00
C83    C     0.25624  -0.53057   0.74811   0.00000  Uiso   1.00
C84    C     0.26860  -0.56405   0.73679   0.00000  Uiso   1.00
S85    S     0.05275  -0.57416   0.71506   0.00000  Uiso   1.00
C86    C     0.17458  -0.61641   0.71267   0.00000  Uiso   1.00
C87    C     0.37445  -0.62254   0.72786   0.00000  Uiso   1.00
C88    C     0.42526  -0.59257   0.74173   0.00000  Uiso   1.00
C89    C     0.50770  -0.65759   0.73187   0.00000  Uiso   1.00
C90    C     0.53717  -0.67329   0.70449   0.00000  Uiso   1.00
C91    C     0.66436  -0.71327   0.72279   0.00000  Uiso   1.00
C92    C     0.68245  -0.72366   0.76820   0.00000  Uiso   1.00
C93    C     0.62615  -0.68306   0.77098   0.00000  Uiso   1.00
C94    C     0.46899  -0.65581   0.66198   0.00000  Uiso   1.00
C95    C     0.37893  -0.68024   0.64490   0.00000  Uiso   1.00
C96    C     0.31313  -0.65820   0.60512   0.00000  Uiso   1.00
S97    S     0.37164  -0.60635   0.58722   0.00000  Uiso   1.00
C98    C     0.47860  -0.61456   0.63363   0.00000  Uiso   1.00
C99    C     0.19987  -0.67276   0.58079   0.00000  Uiso   1.00
C100   C     0.05886  -0.64170   0.69733   0.00000  Uiso   1.00
C101   C     0.56391  -0.57883   0.63804   0.00000  Uiso   1.00
H102   H     0.10450   0.60783   0.03140   0.00000  Uiso   1.00
H103   H     0.21084   0.57189   0.16823   0.00000  Uiso   1.00
H104   H    -0.09376   0.62420   0.09526   0.00000  Uiso   1.00
H105   H     0.36400   0.58292   0.00869   0.00000  Uiso   1.00
H106   H     0.17162   0.48708   0.20801   0.00000  Uiso   1.00
H107   H     0.53263   0.50816  -0.04416   0.00000  Uiso   1.00
H108   H     0.32991   0.42187   0.28133   0.00000  Uiso   1.00
H109   H     0.32266   0.35407   0.32559   0.00000  Uiso   1.00
H110   H     0.34870   0.30631   0.40006   0.00000  Uiso   1.00
H111   H     0.98134   0.34264   0.40296   0.00000  Uiso   1.00
H112   H     0.95897   0.38885   0.32878   0.00000  Uiso   1.00
H113   H     0.63706   0.37118   0.44899   0.00000  Uiso   1.00
H114   H     0.85019   0.39558   0.49105   0.00000  Uiso   1.00
H115   H     1.18028   0.27515   0.54557   0.00000  Uiso   1.00
H116   H     0.97934   0.25185   0.50177   0.00000  Uiso   1.00
H117   H     0.67327   0.24354   0.41322   0.00000  Uiso   1.00
H118   H     0.57601   0.16913   0.44888   0.00000  Uiso   1.00
H119   H     0.40981   0.18647   0.55655   0.00000  Uiso   1.00
H120   H     0.51534   0.25968   0.52215   0.00000  Uiso   1.00
H121   H     0.18579   0.13967   0.55230   0.00000  Uiso   1.00
H122   H     0.00468   0.07444   0.60773   0.00000  Uiso   1.00
H123   H     0.59149   0.52618   0.08402   0.00000  Uiso   1.00
H124   H     0.80433   0.48794   0.10903   0.00000  Uiso   1.00
H125   H     0.22278   0.41718   0.12006   0.00000  Uiso   1.00
H126   H     0.13108   0.45880   0.13837   0.00000  Uiso   1.00
H127   H    -0.14852  -0.10251   0.73164   0.00000  Uiso   1.00
H128   H    -0.32429  -0.02760   0.73537   0.00000  Uiso   1.00
H129   H     0.03220   0.03232   0.68875   0.00000  Uiso   1.00
H130   H     0.02506  -0.13737   0.71173   0.00000  Uiso   1.00
H131   H     0.35686  -0.07151   0.63534   0.00000  Uiso   1.00
H132   H     0.60998  -0.04998   0.64679   0.00000  Uiso   1.00
H133   H    -0.18770  -0.02255   0.55771   0.00000  Uiso   1.00
H134   H     0.08731  -0.00695   0.56661   0.00000  Uiso   1.00
H135   H     0.05280  -0.20683   0.64959   0.00000  Uiso   1.00
H136   H    -0.07082  -0.26524   0.67473   0.00000  Uiso   1.00
H137   H    -0.11558  -0.34148   0.71393   0.00000  Uiso   1.00
H138   H     0.12857  -0.33703   0.82364   0.00000  Uiso   1.00
H139   H     0.16759  -0.26101   0.78523   0.00000  Uiso   1.00
H140   H    -0.35037  -0.33984   0.80936   0.00000  Uiso   1.00
H141   H    -0.52399  -0.35967   0.87619   0.00000  Uiso   1.00
H142   H    -0.16483  -0.47678   0.92834   0.00000  Uiso   1.00
H143   H     0.02202  -0.45557   0.86329   0.00000  Uiso   1.00
H144   H    -0.31680  -0.44262   0.79907   0.00000  Uiso   1.00
H145   H    -0.25130  -0.49718   0.77465   0.00000  Uiso   1.00
H146   H     0.35842  -0.44945   0.73449   0.00000  Uiso   1.00
H147   H     0.28995  -0.39351   0.75667   0.00000  Uiso   1.00
H148   H     0.39660  -0.52162   0.76040   0.00000  Uiso   1.00
H149   H     0.57730  -0.59065   0.75578   0.00000  Uiso   1.00
H150   H     0.72139  -0.72809   0.70276   0.00000  Uiso   1.00
H151   H     0.72964  -0.75624   0.79116   0.00000  Uiso   1.00
H152   H     0.65246  -0.66998   0.79372   0.00000  Uiso   1.00
H153   H     0.36631  -0.71487   0.66387   0.00000  Uiso   1.00
H154   H     0.16890  -0.70697   0.59279   0.00000  Uiso   1.00
H155   H     0.14411  -0.66328   0.68690   0.00000  Uiso   1.00
H156   H    -0.11500  -0.63949   0.69601   0.00000  Uiso   1.00
H157   H     0.73559  -0.57443   0.63644   0.00000  Uiso   1.00
H158   H     0.45738  -0.55594   0.64301   0.00000  Uiso   1.00
H159   H     0.51868   0.47094   0.13983   0.00000  Uiso   1.00
H160   H     0.79793   0.53844   0.11144   0.00000  Uiso   1.00
loop_
_geom_bond_atom_site_label_1
_geom_bond_atom_site_label_2
_geom_bond_distance
_geom_bond_site_symmetry_2
_ccdc_geom_bond_type
C1     C2      1.520   .     S
C1     C5      1.543   .     D
C1     H102    1.140   .     S
C2     C3      1.363   .     S
C2     C6      1.468   .     D
C3     C4      1.520   .     D
C3     C7      1.468   .     S
C4     C5      1.543   .     S
C4     H103    1.140   .     S
C5     H104    1.140   .     S
C6     C8      1.400   .     S
C6     C11     1.425   .     S
C7     C12     1.395   .     S
C7     C15     1.428   .     D
C8     S9      1.738   .     S
C8     C47     1.493   .     D
S9     C10     1.747   .     S
C10    C11     1.383   .     D
C10    C16     1.443   .     S
C11    H105    1.140   .     S
C12    S13     1.740   .     S
C12    C46     1.490   .     S
C12    H159    1.140   .     S
S13    C14     1.751   .     D
C14    C15     1.384   .     S
C14    C17     1.438   .     S
C15    H106    1.140   .     S
C16    N81     1.294   1_664 D
C16    H107    1.140   .     S
C17    N18     1.295   .     D
C17    H108    1.140   .     S
N18    C19     1.396   .     S
C19    C20     1.411   .     D
C19    C24     1.409   .     S
C20    C21     1.394   .     S
C20    H109    1.140   .     S
C21    C22     1.407   .     D
C21    H110    1.140   .     S
C22    C23     1.408   .     S
C22    N25     1.418   .     S
C23    C24     1.387   .     D
C23    H111    1.140   .     S
C24    H112    1.140   .     S
N25    C26     1.423   .     S
N25    C27     1.417   .     S
C26    C28     1.406   .     S
C26    C32     1.407   .     D
C27    C33     1.409   .     D
C27    C37     1.407   .     S
C28    C29     1.390   .     D
C28    H113    1.140   .     S
C29    C30     1.411   .     S
C29    H114    1.140   .     S
C30    C31     1.411   .     D
C30    N41     1.396   .     S
C31    C32     1.389   .     S
C31    H115    1.140   .     S
C32    H116    1.140   .     S
C33    C34     1.391   .     S
C33    H117    1.140   .     S
C34    C35     1.410   .     D
C34    H118    1.140   .     S
C35    C36     1.412   .     S
C35    N38     1.396   .     S
C36    C37     1.391   .     D
C36    H119    1.140   .     S
C37    H120    1.140   .     S
N38    C39     1.295   .     D
C39    C40     1.436   .     S
C39    H121    1.140   .     S
C40    S42     1.748   .     S
C40    C45     1.383   .     D
N41    C99     1.295   1_665 D
S42    C43     1.743   .     S
C43    C44     1.397   .     S
C43    C58     1.490   .     D
C44    C45     1.427   .     S
C44    C48     1.466   .     D
C45    H122    1.140   .     S
C46    H123    1.140   .     S
C46    H124    1.140   .     S
C46    H160    1.140   .     S
C47    H125    1.140   .     S
C47    H126    1.140   .     S
C48    C49     1.367   .     S
C48    C52     1.522   .     S
C49    C50     1.525   .     D
C49    C53     1.467   .     S
C50    C51     1.538   .     S
C50    H127    1.140   .     S
C51    C52     1.539   .     D
C51    H128    1.140   .     S
C52    H129    1.140   .     S
C53    C54     1.425   .     D
C53    C57     1.402   .     S
C54    C55     1.382   .     S
C54    H130    1.140   .     S
C55    S56     1.747   .     D
C55    C60     1.443   .     S
S56    C57     1.739   .     S
C57    C59     1.494   .     D
C58    H131    1.140   .     S
C58    H132    1.140   .     S
C59    H133    1.140   .     S
C59    H134    1.140   .     S
C60    N61     1.295   .     D
C60    H135    1.140   .     S
N61    C62     1.393   .     S
C62    C63     1.413   .     D
C62    C67     1.412   .     S
C63    C64     1.392   .     S
C63    H136    1.140   .     S
C64    C65     1.408   .     D
C64    H137    1.140   .     S
C65    C66     1.407   .     S
C65    N68     1.418   .     S
C66    C67     1.388   .     D
C66    H138    1.140   .     S
C67    H139    1.140   .     S
N68    C69     1.420   .     S
N68    C70     1.417   .     S
C69    C71     1.409   .     D
C69    C75     1.408   .     S
C70    C76     1.409   .     S
C70    C80     1.407   .     D
C71    C72     1.389   .     S
C71    H140    1.140   .     S
C72    C73     1.410   .     D
C72    H141    1.140   .     S
C73    C74     1.413   .     S
C73    N81     1.394   .     S
C74    C75     1.390   .     D
C74    H142    1.140   .     S
C75    H143    1.140   .     S
C76    C77     1.388   .     D
C76    H144    1.140   .     S
C77    C78     1.410   .     S
C77    H145    1.140   .     S
C78    C79     1.412   .     D
C78    N82     1.394   .     S
C79    C80     1.395   .     S
C79    H146    1.140   .     S
C80    H147    1.140   .     S
N81    C16     1.294   1_446 D
N82    C83     1.295   .     D
C83    C84     1.439   .     S
C83    H148    1.140   .     S
C84    S85     1.748   .     D
C84    C88     1.385   .     S
S85    C86     1.735   .     S
C86    C87     1.397   .     S
C86    C100    1.489   .     D
C87    C88     1.429   .     D
C87    C89     1.467   .     S
C88    H149    1.140   .     S
C89    C90     1.364   .     S
C89    C93     1.520   .     D
C90    C91     1.518   .     S
C90    C94     1.469   .     D
C91    C92     1.545   .     D
C91    H150    1.140   .     S
C92    C93     1.546   .     S
C92    H151    1.140   .     S
C93    H152    1.140   .     S
C94    C95     1.426   .     S
C94    C98     1.399   .     S
C95    C96     1.384   .     D
C95    H153    1.140   .     S
C96    S97     1.746   .     S
C96    C99     1.435   .     S
S97    C98     1.740   .     S
C98    C101    1.493   .     D
C99    N41     1.295   1_445 D
C99    H154    1.140   .     S
C100   H155    1.140   .     S
C100   H156    1.140   .     S
C101   H157    1.140   .     S
C101   H158    1.140   .     S
