data_163
_audit_creation_date              2023-09-08
_audit_creation_method            'Materials Studio'
_symmetry_space_group_name_H-M    'P1'
_symmetry_Int_Tables_number       1
_symmetry_cell_setting            triclinic
loop_
_symmetry_equiv_pos_as_xyz
  x,y,z
_cell_length_a                    30.2880
_cell_length_b                    30.2880
_cell_length_c                    3.6239
_cell_angle_alpha                 90.0000
_cell_angle_beta                  90.0000
_cell_angle_gamma                 120.0000
loop_
_atom_site_label
_atom_site_type_symbol
_atom_site_fract_x
_atom_site_fract_y
_atom_site_fract_z
_atom_site_U_iso_or_equiv
_atom_site_adp_type
_atom_site_occupancy
C1     C     0.69059   0.38689   0.38036   0.00000  Uiso   1.00
C2     C     0.72051   0.36301   0.39055   0.00000  Uiso   1.00
C3     C     0.77740   0.39582   0.39128   0.00000  Uiso   1.00
C4     C     0.80897   0.38469   0.57541   0.00000  Uiso   1.00
H5     H     0.79405   0.43157   0.24107   0.00000  Uiso   1.00
H6     H     0.79465   0.34995   0.73496   0.00000  Uiso   1.00
C7     C     0.89616   0.39894   0.48330   0.00000  Uiso   1.00
H8     H     0.87967   0.35891   0.41488   0.00000  Uiso   1.00
C9     C     0.94908   0.43080   0.47535   0.00000  Uiso   1.00
H10    H     0.97238   0.41466   0.39345   0.00000  Uiso   1.00
C11    C     0.97138   0.48290   0.56477   0.00000  Uiso   1.00
C12    C     0.93907   0.50228   0.65620   0.00000  Uiso   1.00
H13    H     0.95458   0.54163   0.73824   0.00000  Uiso   1.00
C14    C     0.88613   0.47066   0.65263   0.00000  Uiso   1.00
H15    H     0.86200   0.48627   0.72593   0.00000  Uiso   1.00
C16    C     0.86448   0.41882   0.56734   0.00000  Uiso   1.00
C17    C     0.71564   0.44162   0.32671   0.00000  Uiso   1.00
N18    N     0.73561   0.48526   0.28245   0.00000  Uiso   1.00
C19    C     0.61311   0.30370   0.38036   0.00000  Uiso   1.00
C20    C     0.63699   0.35750   0.39055   0.00000  Uiso   1.00
C21    C     0.60418   0.38158   0.39128   0.00000  Uiso   1.00
C22    C     0.61531   0.42428   0.57541   0.00000  Uiso   1.00
H23    H     0.56843   0.36248   0.24107   0.00000  Uiso   1.00
H24    H     0.65005   0.44470   0.73496   0.00000  Uiso   1.00
C25    C     0.60106   0.49722   0.48330   0.00000  Uiso   1.00
H26    H     0.64109   0.52076   0.41488   0.00000  Uiso   1.00
C27    C     0.56920   0.51828   0.47535   0.00000  Uiso   1.00
H28    H     0.58534   0.55772   0.39345   0.00000  Uiso   1.00
C29    C     0.51710   0.48848   0.56477   0.00000  Uiso   1.00
C30    C     0.49772   0.43679   0.65620   0.00000  Uiso   1.00
H31    H     0.45837   0.41295   0.73824   0.00000  Uiso   1.00
C32    C     0.52934   0.41547   0.65263   0.00000  Uiso   1.00
H33    H     0.51373   0.37573   0.72593   0.00000  Uiso   1.00
C34    C     0.58118   0.44566   0.56734   0.00000  Uiso   1.00
C35    C     0.55838   0.27402   0.32671   0.00000  Uiso   1.00
N36    N     0.51474   0.25035   0.28245   0.00000  Uiso   1.00
C37    C     0.69630   0.30941   0.38036   0.00000  Uiso   1.00
C38    C     0.64250   0.27949   0.39055   0.00000  Uiso   1.00
C39    C     0.61842   0.22260   0.39128   0.00000  Uiso   1.00
C40    C     0.57572   0.19103   0.57541   0.00000  Uiso   1.00
H41    H     0.63752   0.20595   0.24107   0.00000  Uiso   1.00
H42    H     0.55530   0.20535   0.73496   0.00000  Uiso   1.00
C43    C     0.50278   0.10384   0.48330   0.00000  Uiso   1.00
H44    H     0.47924   0.12033   0.41488   0.00000  Uiso   1.00
C45    C     0.48172   0.05092   0.47535   0.00000  Uiso   1.00
H46    H     0.44228   0.02762   0.39345   0.00000  Uiso   1.00
C47    C     0.51152   0.02862   0.56477   0.00000  Uiso   1.00
C48    C     0.56321   0.06093   0.65620   0.00000  Uiso   1.00
H49    H     0.58705   0.04542   0.73824   0.00000  Uiso   1.00
C50    C     0.58453   0.11387   0.65263   0.00000  Uiso   1.00
H51    H     0.62427   0.13800   0.72593   0.00000  Uiso   1.00
C52    C     0.55434   0.13552   0.56734   0.00000  Uiso   1.00
C53    C     0.72598   0.28436   0.32671   0.00000  Uiso   1.00
N54    N     0.74965   0.26439   0.28245   0.00000  Uiso   1.00
C55    C     0.30941   0.61311   0.38036   0.00000  Uiso   1.00
C56    C     0.27949   0.63699   0.39055   0.00000  Uiso   1.00
C57    C     0.22260   0.60418   0.39128   0.00000  Uiso   1.00
C58    C     0.19103   0.61531   0.57541   0.00000  Uiso   1.00
H59    H     0.20595   0.56843   0.24107   0.00000  Uiso   1.00
H60    H     0.20535   0.65005   0.73496   0.00000  Uiso   1.00
C61    C     0.10384   0.60106   0.48330   0.00000  Uiso   1.00
H62    H     0.12033   0.64109   0.41488   0.00000  Uiso   1.00
C63    C     0.05092   0.56920   0.47535   0.00000  Uiso   1.00
H64    H     0.02762   0.58534   0.39345   0.00000  Uiso   1.00
C65    C     0.02862   0.51710   0.56477   0.00000  Uiso   1.00
C66    C     0.06093   0.49772   0.65620   0.00000  Uiso   1.00
H67    H     0.04542   0.45837   0.73824   0.00000  Uiso   1.00
C68    C     0.11387   0.52934   0.65263   0.00000  Uiso   1.00
H69    H     0.13800   0.51373   0.72593   0.00000  Uiso   1.00
C70    C     0.13552   0.58118   0.56734   0.00000  Uiso   1.00
C71    C     0.28436   0.55838   0.32671   0.00000  Uiso   1.00
N72    N     0.26439   0.51474   0.28245   0.00000  Uiso   1.00
C73    C     0.38689   0.69630   0.38036   0.00000  Uiso   1.00
C74    C     0.36301   0.64250   0.39055   0.00000  Uiso   1.00
C75    C     0.39582   0.61842   0.39128   0.00000  Uiso   1.00
C76    C     0.38469   0.57572   0.57541   0.00000  Uiso   1.00
H77    H     0.43157   0.63752   0.24107   0.00000  Uiso   1.00
H78    H     0.34995   0.55530   0.73496   0.00000  Uiso   1.00
C79    C     0.39894   0.50278   0.48330   0.00000  Uiso   1.00
H80    H     0.35891   0.47924   0.41488   0.00000  Uiso   1.00
C81    C     0.43080   0.48172   0.47535   0.00000  Uiso   1.00
H82    H     0.41466   0.44228   0.39345   0.00000  Uiso   1.00
C83    C     0.48290   0.51152   0.56477   0.00000  Uiso   1.00
C84    C     0.50228   0.56321   0.65620   0.00000  Uiso   1.00
H85    H     0.54163   0.58705   0.73824   0.00000  Uiso   1.00
C86    C     0.47066   0.58453   0.65263   0.00000  Uiso   1.00
H87    H     0.48627   0.62427   0.72593   0.00000  Uiso   1.00
C88    C     0.41882   0.55434   0.56734   0.00000  Uiso   1.00
C89    C     0.44162   0.72598   0.32671   0.00000  Uiso   1.00
N90    N     0.48526   0.74965   0.28245   0.00000  Uiso   1.00
C91    C     0.30370   0.69059   0.38036   0.00000  Uiso   1.00
C92    C     0.35750   0.72051   0.39055   0.00000  Uiso   1.00
C93    C     0.38158   0.77740   0.39128   0.00000  Uiso   1.00
C94    C     0.42428   0.80897   0.57541   0.00000  Uiso   1.00
H95    H     0.36248   0.79405   0.24107   0.00000  Uiso   1.00
H96    H     0.44470   0.79465   0.73496   0.00000  Uiso   1.00
C97    C     0.49722   0.89616   0.48330   0.00000  Uiso   1.00
H98    H     0.52076   0.87967   0.41488   0.00000  Uiso   1.00
C99    C     0.51828   0.94908   0.47535   0.00000  Uiso   1.00
H100   H     0.55772   0.97238   0.39345   0.00000  Uiso   1.00
C101   C     0.48848   0.97138   0.56477   0.00000  Uiso   1.00
C102   C     0.43679   0.93907   0.65620   0.00000  Uiso   1.00
H103   H     0.41295   0.95458   0.73824   0.00000  Uiso   1.00
C104   C     0.41547   0.88613   0.65263   0.00000  Uiso   1.00
H105   H     0.37573   0.86200   0.72593   0.00000  Uiso   1.00
C106   C     0.44566   0.86448   0.56734   0.00000  Uiso   1.00
C107   C     0.27402   0.71564   0.32671   0.00000  Uiso   1.00
N108   N     0.25035   0.73561   0.28245   0.00000  Uiso   1.00
loop_
_geom_bond_atom_site_label_1
_geom_bond_atom_site_label_2
_geom_bond_distance
_geom_bond_site_symmetry_2
_ccdc_geom_bond_type
C1     C2      1.415   .     D
C1     C17     1.450   .     S
C1     C20     1.409   .     S
C2     C3      1.498   .     S
C2     C37     1.409   .     S
C3     C4      1.340   .     D
C3     H5      1.085   .     S
C4     H6      1.083   .     S
C4     C16     1.469   .     S
C7     H8      1.084   .     S
C7     C9      1.398   .     S
C7     C16     1.398   .     D
C9     H10     1.082   .     S
C9     C11     1.409   .     D
C11    C12     1.409   .     S
C11    C65     1.511   1_655 S
C12    H13     1.082   .     S
C12    C14     1.397   .     D
C14    H15     1.083   .     S
C14    C16     1.400   .     S
C17    N18     1.157   .     T
C19    C20     1.415   .     D
C19    C35     1.450   .     S
C19    C38     1.409   .     S
C20    C21     1.498   .     S
C21    C22     1.340   .     D
C21    H23     1.085   .     S
C22    H24     1.083   .     S
C22    C34     1.469   .     S
C25    H26     1.084   .     S
C25    C27     1.398   .     D
C25    C34     1.398   .     S
C27    H28     1.082   .     S
C27    C29     1.409   .     S
C29    C30     1.409   .     D
C29    C83     1.511   .     S
C30    H31     1.082   .     S
C30    C32     1.397   .     S
C32    H33     1.083   .     S
C32    C34     1.400   .     D
C35    N36     1.157   .     T
C37    C38     1.415   .     D
C37    C53     1.450   .     S
C38    C39     1.498   .     S
C39    C40     1.340   .     D
C39    H41     1.085   .     S
C40    H42     1.083   .     S
C40    C52     1.469   .     S
C43    H44     1.084   .     S
C43    C45     1.398   .     S
C43    C52     1.398   .     D
C45    H46     1.082   .     S
C45    C47     1.409   .     D
C47    C48     1.409   .     S
C47    C101    1.511   1_545 S
C48    H49     1.082   .     S
C48    C50     1.397   .     D
C50    H51     1.083   .     S
C50    C52     1.400   .     S
C53    N54     1.157   .     T
C55    C56     1.415   .     S
C55    C71     1.450   .     S
C55    C74     1.409   .     D
C56    C57     1.498   .     S
C56    C91     1.409   .     D
C57    C58     1.340   .     D
C57    H59     1.085   .     S
C58    H60     1.083   .     S
C58    C70     1.469   .     S
C61    H62     1.084   .     S
C61    C63     1.398   .     D
C61    C70     1.398   .     S
C63    H64     1.082   .     S
C63    C65     1.409   .     S
C65    C11     1.511   1_455 S
C65    C66     1.409   .     D
C66    H67     1.082   .     S
C66    C68     1.397   .     S
C68    H69     1.083   .     S
C68    C70     1.400   .     D
C71    N72     1.157   .     T
C73    C74     1.415   .     S
C73    C89     1.450   .     S
C73    C92     1.409   .     D
C74    C75     1.498   .     S
C75    C76     1.340   .     D
C75    H77     1.085   .     S
C76    H78     1.083   .     S
C76    C88     1.469   .     S
C79    H80     1.084   .     S
C79    C81     1.398   .     S
C79    C88     1.398   .     D
C81    H82     1.082   .     S
C81    C83     1.409   .     D
C83    C84     1.409   .     S
C84    H85     1.082   .     S
C84    C86     1.397   .     D
C86    H87     1.083   .     S
C86    C88     1.400   .     S
C89    N90     1.157   .     T
C91    C92     1.415   .     S
C91    C107    1.450   .     S
C92    C93     1.498   .     S
C93    C94     1.340   .     D
C93    H95     1.085   .     S
C94    H96     1.083   .     S
C94    C106    1.469   .     S
C97    H98     1.084   .     S
C97    C99     1.398   .     D
C97    C106    1.398   .     S
C99    H100    1.082   .     S
C99    C101    1.409   .     S
C101   C47     1.511   1_565 S
C101   C102    1.409   .     D
C102   H103    1.082   .     S
C102   C104    1.397   .     S
C104   H105    1.083   .     S
C104   C106    1.400   .     D
C107   N108    1.157   .     T
