data_164
_audit_creation_date              2023-09-08
_audit_creation_method            'Materials Studio'
_symmetry_space_group_name_H-M    'P1'
_symmetry_Int_Tables_number       1
_symmetry_cell_setting            triclinic
loop_
_symmetry_equiv_pos_as_xyz
  x,y,z
_cell_length_a                    38.7441
_cell_length_b                    38.7441
_cell_length_c                    3.4690
_cell_angle_alpha                 90.0000
_cell_angle_beta                  90.0000
_cell_angle_gamma                 120.0000
loop_
_atom_site_label
_atom_site_type_symbol
_atom_site_fract_x
_atom_site_fract_y
_atom_site_fract_z
_atom_site_U_iso_or_equiv
_atom_site_adp_type
_atom_site_occupancy
C1     C     0.68765   0.37554   0.50000   0.00000  Uiso   1.00
C2     C     0.70968   0.35492   0.50000   0.00000  Uiso   1.00
C3     C     0.75535   0.38042   0.50000   0.00000  Uiso   1.00
C4     C     0.78347   0.36958   0.50000   0.00000  Uiso   1.00
H5     H     0.76725   0.41192   0.50000   0.00000  Uiso   1.00
H6     H     0.77599   0.33920   0.50000   0.00000  Uiso   1.00
C7     C     0.85267   0.38163   0.50000   0.00000  Uiso   1.00
H8     H     0.84024   0.34960   0.50000   0.00000  Uiso   1.00
C9     C     0.89408   0.40604   0.50000   0.00000  Uiso   1.00
H10    H     0.91093   0.39088   0.50000   0.00000  Uiso   1.00
C11    C     0.91229   0.44808   0.50000   0.00000  Uiso   1.00
C12    C     0.88649   0.46407   0.50000   0.00000  Uiso   1.00
H13    H     0.89729   0.49559   0.50000   0.00000  Uiso   1.00
C14    C     0.84505   0.43957   0.50000   0.00000  Uiso   1.00
H15    H     0.82764   0.45425   0.50000   0.00000  Uiso   1.00
C16    C     0.82742   0.39781   0.50000   0.00000  Uiso   1.00
C17    C     0.97552   0.51666   0.50000   0.00000  Uiso   1.00
H18    H     0.95859   0.53175   0.50000   0.00000  Uiso   1.00
C19    C     0.01693   0.54117   0.50000   0.00000  Uiso   1.00
H20    H     0.02777   0.57270   0.50000   0.00000  Uiso   1.00
C21    C     0.04271   0.52528   0.50000   0.00000  Uiso   1.00
C22    C     0.71008   0.41864   0.50000   0.00000  Uiso   1.00
N23    N     0.72908   0.45312   0.50000   0.00000  Uiso   1.00
C24    C     0.62446   0.31211   0.50000   0.00000  Uiso   1.00
C25    C     0.64508   0.35476   0.50000   0.00000  Uiso   1.00
C26    C     0.61958   0.37493   0.50000   0.00000  Uiso   1.00
C27    C     0.63042   0.41389   0.50000   0.00000  Uiso   1.00
H28    H     0.58808   0.35533   0.50000   0.00000  Uiso   1.00
H29    H     0.66080   0.43679   0.50000   0.00000  Uiso   1.00
C30    C     0.61837   0.47104   0.50000   0.00000  Uiso   1.00
H31    H     0.65040   0.49064   0.50000   0.00000  Uiso   1.00
C32    C     0.59396   0.48804   0.50000   0.00000  Uiso   1.00
H33    H     0.60912   0.52005   0.50000   0.00000  Uiso   1.00
C34    C     0.55192   0.46421   0.50000   0.00000  Uiso   1.00
C35    C     0.53593   0.42242   0.50000   0.00000  Uiso   1.00
H36    H     0.50441   0.40170   0.50000   0.00000  Uiso   1.00
C37    C     0.56043   0.40548   0.50000   0.00000  Uiso   1.00
H38    H     0.54575   0.37339   0.50000   0.00000  Uiso   1.00
C39    C     0.60219   0.42961   0.50000   0.00000  Uiso   1.00
C40    C     0.48334   0.45886   0.50000   0.00000  Uiso   1.00
H41    H     0.46825   0.42684   0.50000   0.00000  Uiso   1.00
C42    C     0.45883   0.47576   0.50000   0.00000  Uiso   1.00
H43    H     0.42730   0.45507   0.50000   0.00000  Uiso   1.00
C44    C     0.47472   0.51743   0.50000   0.00000  Uiso   1.00
C45    C     0.58136   0.29144   0.50000   0.00000  Uiso   1.00
N46    N     0.54688   0.27596   0.50000   0.00000  Uiso   1.00
C47    C     0.68789   0.31235   0.50000   0.00000  Uiso   1.00
C48    C     0.64524   0.29032   0.50000   0.00000  Uiso   1.00
C49    C     0.62507   0.24465   0.50000   0.00000  Uiso   1.00
C50    C     0.58611   0.21653   0.50000   0.00000  Uiso   1.00
H51    H     0.64467   0.23275   0.50000   0.00000  Uiso   1.00
H52    H     0.56321   0.22401   0.50000   0.00000  Uiso   1.00
C53    C     0.52896   0.14733   0.50000   0.00000  Uiso   1.00
H54    H     0.50936   0.15976   0.50000   0.00000  Uiso   1.00
C55    C     0.51196   0.10592   0.50000   0.00000  Uiso   1.00
H56    H     0.47995   0.08907   0.50000   0.00000  Uiso   1.00
C57    C     0.53579   0.08771   0.50000   0.00000  Uiso   1.00
C58    C     0.57758   0.11351   0.50000   0.00000  Uiso   1.00
H59    H     0.59830   0.10271   0.50000   0.00000  Uiso   1.00
C60    C     0.59452   0.15495   0.50000   0.00000  Uiso   1.00
H61    H     0.62661   0.17236   0.50000   0.00000  Uiso   1.00
C62    C     0.57039   0.17258   0.50000   0.00000  Uiso   1.00
C63    C     0.54114   0.02448   0.50000   0.00000  Uiso   1.00
H64    H     0.57316   0.04141   0.50000   0.00000  Uiso   1.00
C65    C     0.52424   0.98307   0.50000   0.00000  Uiso   1.00
H66    H     0.54493   0.97223   0.50000   0.00000  Uiso   1.00
C67    C     0.48257   0.95729   0.50000   0.00000  Uiso   1.00
C68    C     0.70856   0.28992   0.50000   0.00000  Uiso   1.00
N69    N     0.72404   0.27092   0.50000   0.00000  Uiso   1.00
C70    C     0.31235   0.62446   0.50000   0.00000  Uiso   1.00
C71    C     0.29032   0.64508   0.50000   0.00000  Uiso   1.00
C72    C     0.24465   0.61958   0.50000   0.00000  Uiso   1.00
C73    C     0.21653   0.63042   0.50000   0.00000  Uiso   1.00
H74    H     0.23275   0.58808   0.50000   0.00000  Uiso   1.00
H75    H     0.22401   0.66080   0.50000   0.00000  Uiso   1.00
C76    C     0.14733   0.61837   0.50000   0.00000  Uiso   1.00
H77    H     0.15976   0.65040   0.50000   0.00000  Uiso   1.00
C78    C     0.10592   0.59396   0.50000   0.00000  Uiso   1.00
H79    H     0.08907   0.60912   0.50000   0.00000  Uiso   1.00
C80    C     0.08771   0.55192   0.50000   0.00000  Uiso   1.00
C81    C     0.11351   0.53593   0.50000   0.00000  Uiso   1.00
H82    H     0.10271   0.50441   0.50000   0.00000  Uiso   1.00
C83    C     0.15495   0.56043   0.50000   0.00000  Uiso   1.00
H84    H     0.17236   0.54575   0.50000   0.00000  Uiso   1.00
C85    C     0.17258   0.60219   0.50000   0.00000  Uiso   1.00
C86    C     0.02448   0.48334   0.50000   0.00000  Uiso   1.00
H87    H     0.04141   0.46825   0.50000   0.00000  Uiso   1.00
C88    C     0.98307   0.45883   0.50000   0.00000  Uiso   1.00
H89    H     0.97223   0.42730   0.50000   0.00000  Uiso   1.00
C90    C     0.95729   0.47472   0.50000   0.00000  Uiso   1.00
C91    C     0.28992   0.58136   0.50000   0.00000  Uiso   1.00
N92    N     0.27092   0.54688   0.50000   0.00000  Uiso   1.00
C93    C     0.37554   0.68789   0.50000   0.00000  Uiso   1.00
C94    C     0.35492   0.64524   0.50000   0.00000  Uiso   1.00
C95    C     0.38042   0.62507   0.50000   0.00000  Uiso   1.00
C96    C     0.36958   0.58611   0.50000   0.00000  Uiso   1.00
H97    H     0.41192   0.64467   0.50000   0.00000  Uiso   1.00
H98    H     0.33920   0.56321   0.50000   0.00000  Uiso   1.00
C99    C     0.38163   0.52896   0.50000   0.00000  Uiso   1.00
H100   H     0.34960   0.50936   0.50000   0.00000  Uiso   1.00
C101   C     0.40604   0.51196   0.50000   0.00000  Uiso   1.00
H102   H     0.39088   0.47995   0.50000   0.00000  Uiso   1.00
C103   C     0.44808   0.53579   0.50000   0.00000  Uiso   1.00
C104   C     0.46407   0.57758   0.50000   0.00000  Uiso   1.00
H105   H     0.49559   0.59830   0.50000   0.00000  Uiso   1.00
C106   C     0.43957   0.59452   0.50000   0.00000  Uiso   1.00
H107   H     0.45425   0.62661   0.50000   0.00000  Uiso   1.00
C108   C     0.39781   0.57039   0.50000   0.00000  Uiso   1.00
C109   C     0.51666   0.54114   0.50000   0.00000  Uiso   1.00
H110   H     0.53175   0.57316   0.50000   0.00000  Uiso   1.00
C111   C     0.54117   0.52424   0.50000   0.00000  Uiso   1.00
H112   H     0.57270   0.54493   0.50000   0.00000  Uiso   1.00
C113   C     0.52528   0.48257   0.50000   0.00000  Uiso   1.00
C114   C     0.41864   0.70856   0.50000   0.00000  Uiso   1.00
N115   N     0.45312   0.72404   0.50000   0.00000  Uiso   1.00
C116   C     0.31211   0.68765   0.50000   0.00000  Uiso   1.00
C117   C     0.35476   0.70968   0.50000   0.00000  Uiso   1.00
C118   C     0.37493   0.75535   0.50000   0.00000  Uiso   1.00
C119   C     0.41389   0.78347   0.50000   0.00000  Uiso   1.00
H120   H     0.35533   0.76725   0.50000   0.00000  Uiso   1.00
H121   H     0.43679   0.77599   0.50000   0.00000  Uiso   1.00
C122   C     0.47104   0.85267   0.50000   0.00000  Uiso   1.00
H123   H     0.49064   0.84024   0.50000   0.00000  Uiso   1.00
C124   C     0.48804   0.89408   0.50000   0.00000  Uiso   1.00
H125   H     0.52005   0.91093   0.50000   0.00000  Uiso   1.00
C126   C     0.46421   0.91229   0.50000   0.00000  Uiso   1.00
C127   C     0.42242   0.88649   0.50000   0.00000  Uiso   1.00
H128   H     0.40170   0.89729   0.50000   0.00000  Uiso   1.00
C129   C     0.40548   0.84505   0.50000   0.00000  Uiso   1.00
H130   H     0.37339   0.82764   0.50000   0.00000  Uiso   1.00
C131   C     0.42961   0.82742   0.50000   0.00000  Uiso   1.00
C132   C     0.45886   0.97552   0.50000   0.00000  Uiso   1.00
H133   H     0.42684   0.95859   0.50000   0.00000  Uiso   1.00
C134   C     0.47576   0.01693   0.50000   0.00000  Uiso   1.00
H135   H     0.45507   0.02777   0.50000   0.00000  Uiso   1.00
C136   C     0.51743   0.04271   0.50000   0.00000  Uiso   1.00
C137   C     0.29144   0.71008   0.50000   0.00000  Uiso   1.00
N138   N     0.27596   0.72908   0.50000   0.00000  Uiso   1.00
loop_
_geom_bond_atom_site_label_1
_geom_bond_atom_site_label_2
_geom_bond_distance
_geom_bond_site_symmetry_2
_ccdc_geom_bond_type
C1     C2      1.431   .     D
C1     C22     1.447   .     S
C1     C25     1.429   .     S
C2     C3      1.536   .     S
C2     C47     1.429   .     S
C3     C4      1.349   .     D
C3     H5      1.067   .     S
C4     H6      1.062   .     S
C4     C16     1.494   .     S
C7     H8      1.084   .     S
C7     C9      1.397   .     S
C7     C16     1.401   .     D
C9     H10     1.075   .     S
C9     C11     1.415   .     D
C11    C12     1.415   .     S
C11    C90     1.518   .     S
C12    H13     1.075   .     S
C12    C14     1.398   .     D
C14    H15     1.078   .     S
C14    C16     1.407   .     S
C17    H18     1.075   .     S
C17    C19     1.397   1_655 S
C17    C90     1.411   .     D
C19    C17     1.397   1_455 S
C19    H20     1.075   .     S
C19    C21     1.411   .     D
C21    C80     1.518   .     S
C21    C86     1.411   .     S
C22    N23     1.159   .     T
C24    C25     1.431   .     D
C24    C45     1.447   .     S
C24    C48     1.429   .     S
C25    C26     1.536   .     S
C26    C27     1.349   .     D
C26    H28     1.067   .     S
C27    H29     1.062   .     S
C27    C39     1.494   .     S
C30    H31     1.084   .     S
C30    C32     1.397   .     D
C30    C39     1.401   .     S
C32    H33     1.075   .     S
C32    C34     1.415   .     S
C34    C35     1.415   .     D
C34    C113    1.518   .     S
C35    H36     1.075   .     S
C35    C37     1.398   .     S
C37    H38     1.078   .     S
C37    C39     1.407   .     D
C40    H41     1.075   .     S
C40    C42     1.397   .     D
C40    C113    1.411   .     S
C42    H43     1.075   .     S
C42    C44     1.411   .     S
C44    C103    1.518   .     S
C44    C109    1.411   .     D
C45    N46     1.159   .     T
C47    C48     1.431   .     D
C47    C68     1.447   .     S
C48    C49     1.536   .     S
C49    C50     1.349   .     D
C49    H51     1.067   .     S
C50    H52     1.062   .     S
C50    C62     1.494   .     S
C53    H54     1.084   .     S
C53    C55     1.397   .     S
C53    C62     1.401   .     D
C55    H56     1.075   .     S
C55    C57     1.415   .     D
C57    C58     1.415   .     S
C57    C136    1.518   .     S
C58    H59     1.075   .     S
C58    C60     1.398   .     D
C60    H61     1.078   .     S
C60    C62     1.407   .     S
C63    H64     1.075   .     S
C63    C65     1.397   1_545 S
C63    C136    1.411   .     D
C65    C63     1.397   1_565 S
C65    H66     1.075   .     S
C65    C67     1.411   .     D
C67    C126    1.518   .     S
C67    C132    1.411   .     S
C68    N69     1.159   .     T
C70    C71     1.431   .     S
C70    C91     1.447   .     S
C70    C94     1.429   .     D
C71    C72     1.536   .     S
C71    C116    1.429   .     D
C72    C73     1.349   .     D
C72    H74     1.067   .     S
C73    H75     1.062   .     S
C73    C85     1.494   .     S
C76    H77     1.084   .     S
C76    C78     1.397   .     S
C76    C85     1.401   .     D
C78    H79     1.075   .     S
C78    C80     1.415   .     D
C80    C81     1.415   .     S
C81    H82     1.075   .     S
C81    C83     1.398   .     D
C83    H84     1.078   .     S
C83    C85     1.407   .     S
C86    H87     1.075   .     S
C86    C88     1.397   1_455 D
C88    C86     1.397   1_655 D
C88    H89     1.075   .     S
C88    C90     1.411   .     S
C91    N92     1.159   .     T
C93    C94     1.431   .     S
C93    C114    1.447   .     S
C93    C117    1.429   .     D
C94    C95     1.536   .     S
C95    C96     1.349   .     D
C95    H97     1.067   .     S
C96    H98     1.062   .     S
C96    C108    1.494   .     S
C99    H100    1.084   .     S
C99    C101    1.397   .     S
C99    C108    1.401   .     D
C101   H102    1.075   .     S
C101   C103    1.415   .     D
C103   C104    1.415   .     S
C104   H105    1.075   .     S
C104   C106    1.398   .     D
C106   H107    1.078   .     S
C106   C108    1.407   .     S
C109   H110    1.075   .     S
C109   C111    1.397   .     S
C111   H112    1.075   .     S
C111   C113    1.411   .     D
C114   N115    1.159   .     T
C116   C117    1.431   .     S
C116   C137    1.447   .     S
C117   C118    1.536   .     S
C118   C119    1.349   .     D
C118   H120    1.067   .     S
C119   H121    1.062   .     S
C119   C131    1.494   .     S
C122   H123    1.084   .     S
C122   C124    1.397   .     S
C122   C131    1.401   .     D
C124   H125    1.075   .     S
C124   C126    1.415   .     D
C126   C127    1.415   .     S
C127   H128    1.075   .     S
C127   C129    1.398   .     D
C129   H130    1.078   .     S
C129   C131    1.407   .     S
C132   H133    1.075   .     S
C132   C134    1.397   1_565 D
C134   C132    1.397   1_545 D
C134   H135    1.075   .     S
C134   C136    1.411   .     S
C137   N138    1.159   .     T
