data_165
_audit_creation_date              2023-09-08
_audit_creation_method            'Materials Studio'
_symmetry_space_group_name_H-M    'P1'
_symmetry_Int_Tables_number       1
_symmetry_cell_setting            triclinic
loop_
_symmetry_equiv_pos_as_xyz
  x,y,z
_cell_length_a                    44.4000
_cell_length_b                    44.4000
_cell_length_c                    5.6000
_cell_angle_alpha                 90.0000
_cell_angle_beta                  90.0000
_cell_angle_gamma                 120.0000
loop_
_atom_site_label
_atom_site_type_symbol
_atom_site_fract_x
_atom_site_fract_y
_atom_site_fract_z
_atom_site_U_iso_or_equiv
_atom_site_adp_type
_atom_site_occupancy
C1     C     0.67464   0.30653   0.12266   0.00000  Uiso   1.00
C2     C     0.70205   0.34143   0.12239   0.00000  Uiso   1.00
C3     C     0.87550   0.39408   0.25886   0.00000  Uiso   1.00
C4     C     0.91179   0.41313   0.22989   0.00000  Uiso   1.00
C5     C     0.92670   0.43695   0.03986   0.00000  Uiso   1.00
C6     C     0.90470   0.44109  -0.12183   0.00000  Uiso   1.00
C7     C     0.86844   0.42212  -0.09176   0.00000  Uiso   1.00
C8     C     0.85314   0.39838   0.09972   0.00000  Uiso   1.00
C9     C     0.96310   0.45645   0.01351   0.00000  Uiso   1.00
C10    C     0.97871   0.44037  -0.11346   0.00000  Uiso   1.00
C11    C     0.01477   0.45752  -0.14646   0.00000  Uiso   1.00
C12    C     0.03614   0.49104  -0.05186   0.00000  Uiso   1.00
C13    C     0.02018   0.50693   0.07446   0.00000  Uiso   1.00
C14    C     0.98371   0.49074   0.10915   0.00000  Uiso   1.00
C15    C     0.07260   0.50823  -0.08256   0.00000  Uiso   1.00
C16    C     0.09161   0.49140  -0.02785   0.00000  Uiso   1.00
C17    C     0.12793   0.50868  -0.05495   0.00000  Uiso   1.00
C18    C     0.14678   0.54348  -0.13734   0.00000  Uiso   1.00
C19    C     0.12748   0.56002  -0.19466   0.00000  Uiso   1.00
C20    C     0.09116   0.54280  -0.16737   0.00000  Uiso   1.00
C21    C     0.81674   0.37950   0.13110   0.00000  Uiso   1.00
O22    O     0.80320   0.34994   0.22458   0.00000  Uiso   1.00
N23    N     0.79719   0.39378   0.06566   0.00000  Uiso   1.00
N24    N     0.76356   0.38067   0.07045   0.00000  Uiso   1.00
C25    C     0.73679   0.34870   0.12300   0.00000  Uiso   1.00
N26    N     0.20246   0.59608  -0.16470   0.00000  Uiso   1.00
O27    O     0.19817   0.54307  -0.17090   0.00000  Uiso   1.00
C28    C     0.18342   0.56081  -0.15951   0.00000  Uiso   1.00
C29    C     0.26337   0.61141  -0.19344   0.00000  Uiso   1.00
N30    N     0.23603   0.61679  -0.17805   0.00000  Uiso   1.00
C31    C     0.30633   0.67433  -0.19849   0.00000  Uiso   1.00
C32    C     0.29802   0.63915  -0.19780   0.00000  Uiso   1.00
N33    N     0.98183   0.54356   0.34866   0.00000  Uiso   1.00
C34    C     0.95177   0.54743   0.45047   0.00000  Uiso   1.00
C35    C     0.95921   0.58322   0.55372   0.00000  Uiso   1.00
C36    C     0.92921   0.58015   0.71379   0.00000  Uiso   1.00
C37    C     0.93822   0.61462   0.84184   0.00000  Uiso   1.00
C38    C     0.90855   0.61064   1.00865   0.00000  Uiso   1.00
C39    C     0.91808   0.64436   1.14890   0.00000  Uiso   1.00
C40    C     0.88831   0.64008   1.31588   0.00000  Uiso   1.00
C41    C     0.89792   0.67350   1.46028   0.00000  Uiso   1.00
C42    C     0.86799   0.66916   1.62583   0.00000  Uiso   1.00
C43    C     0.87758   0.70246   1.77173   0.00000  Uiso   1.00
C44    C     0.84764   0.69799   1.93756   0.00000  Uiso   1.00
C45    C     0.85712   0.73102   2.08397   0.00000  Uiso   1.00
C46    C     0.54180   0.03452   0.23585   0.00000  Uiso   1.00
H47    H     0.68053   0.28700   0.12341   0.00000  Uiso   1.00
H48    H     0.86560   0.37718   0.39946   0.00000  Uiso   1.00
H49    H     0.92723   0.40960   0.34907   0.00000  Uiso   1.00
H50    H     0.91489   0.45802  -0.26186   0.00000  Uiso   1.00
H51    H     0.85333   0.42577  -0.21302   0.00000  Uiso   1.00
H52    H     0.96397   0.41595  -0.18366   0.00000  Uiso   1.00
H53    H     0.02525   0.44527  -0.24112   0.00000  Uiso   1.00
H54    H     0.03615   0.53093   0.14124   0.00000  Uiso   1.00
H55    H     0.07920   0.46641   0.03474   0.00000  Uiso   1.00
H56    H     0.14049   0.49543  -0.01121   0.00000  Uiso   1.00
H57    H     0.13954   0.58491  -0.25852   0.00000  Uiso   1.00
H58    H     0.07837   0.55582  -0.21125   0.00000  Uiso   1.00
H59    H     0.81008   0.41752   0.00826   0.00000  Uiso   1.00
H60    H     0.74166   0.32906   0.16033   0.00000  Uiso   1.00
H61    H     0.18931   0.60804  -0.15442   0.00000  Uiso   1.00
H62    H     0.25899   0.58659  -0.19965   0.00000  Uiso   1.00
H63    H     0.28665   0.68001  -0.19837   0.00000  Uiso   1.00
C64    C     0.00077   0.57176   0.16577   0.00000  Uiso   1.00
H65    H     0.93887   0.52794   0.59083   0.00000  Uiso   1.00
H66    H     0.93194   0.54106   0.31290   0.00000  Uiso   1.00
H67    H     0.96298   0.60090   0.40642   0.00000  Uiso   1.00
H68    H     0.98307   0.59500   0.65775   0.00000  Uiso   1.00
H69    H     0.92319   0.56030   0.84994   0.00000  Uiso   1.00
H70    H     0.90603   0.57174   0.60384   0.00000  Uiso   1.00
H71    H     0.94349   0.63458   0.70821   0.00000  Uiso   1.00
H72    H     0.96178   0.62318   0.94796   0.00000  Uiso   1.00
H73    H     0.90250   0.58976   1.13639   0.00000  Uiso   1.00
H74    H     0.88530   0.60326   0.90160   0.00000  Uiso   1.00
H75    H     0.92415   0.66535   1.02231   0.00000  Uiso   1.00
H76    H     0.94130   0.65163   1.25595   0.00000  Uiso   1.00
H77    H     0.88199   0.61878   1.44041   0.00000  Uiso   1.00
H78    H     0.86522   0.63317   1.20840   0.00000  Uiso   1.00
H79    H     0.90442   0.69487   1.33617   0.00000  Uiso   1.00
H80    H     0.92090   0.68028   1.56866   0.00000  Uiso   1.00
H81    H     0.86139   0.64768   1.74916   0.00000  Uiso   1.00
H82    H     0.84506   0.66253   1.51721   0.00000  Uiso   1.00
H83    H     0.88406   0.72394   1.64856   0.00000  Uiso   1.00
H84    H     0.90055   0.70916   1.88006   0.00000  Uiso   1.00
H85    H     0.84098   0.67654   2.06119   0.00000  Uiso   1.00
H86    H     0.82465   0.69151   1.83003   0.00000  Uiso   1.00
H87    H     0.86246   0.75262   1.96527   0.00000  Uiso   1.00
H88    H     0.88000   0.73824   2.19399   0.00000  Uiso   1.00
H89    H     0.83550   0.72625   2.20073   0.00000  Uiso   1.00
H90    H     0.53829   0.04962   0.37630   0.00000  Uiso   1.00
H91    H     0.55928   0.05320   0.10330   0.00000  Uiso   1.00
C92    C     0.00572   0.54679   0.55116   0.00000  Uiso   1.00
H93    H     0.98295   0.57017   0.02649   0.00000  Uiso   1.00
H94    H     0.02192   0.57045   0.07956   0.00000  Uiso   1.00
H95    H     0.01239   0.59768   0.24451   0.00000  Uiso   1.00
H96    H     0.99110   0.52899   0.69534   0.00000  Uiso   1.00
H97    H     0.01940   0.57302   0.62466   0.00000  Uiso   1.00
H98    H     0.02567   0.54082   0.50028   0.00000  Uiso   1.00
C99    C     0.69347   0.36811   0.12266   0.00000  Uiso   1.00
C100   C     0.65857   0.36062   0.12239   0.00000  Uiso   1.00
C101   C     0.60592   0.48142   0.25886   0.00000  Uiso   1.00
C102   C     0.58687   0.49866   0.22989   0.00000  Uiso   1.00
C103   C     0.56305   0.48975   0.03986   0.00000  Uiso   1.00
C104   C     0.55891   0.46361  -0.12183   0.00000  Uiso   1.00
C105   C     0.57788   0.44632  -0.09176   0.00000  Uiso   1.00
C106   C     0.60162   0.45476   0.09972   0.00000  Uiso   1.00
C107   C     0.54355   0.50665   0.01351   0.00000  Uiso   1.00
C108   C     0.55963   0.53834  -0.11346   0.00000  Uiso   1.00
C109   C     0.54248   0.55725  -0.14646   0.00000  Uiso   1.00
C110   C     0.50896   0.54510  -0.05186   0.00000  Uiso   1.00
C111   C     0.49307   0.51325   0.07446   0.00000  Uiso   1.00
C112   C     0.50926   0.49297   0.10915   0.00000  Uiso   1.00
C113   C     0.49177   0.56437  -0.08256   0.00000  Uiso   1.00
C114   C     0.50860   0.60021  -0.02785   0.00000  Uiso   1.00
C115   C     0.49132   0.61925  -0.05495   0.00000  Uiso   1.00
C116   C     0.45652   0.60330  -0.13734   0.00000  Uiso   1.00
C117   C     0.43998   0.56746  -0.19466   0.00000  Uiso   1.00
C118   C     0.45720   0.54836  -0.16737   0.00000  Uiso   1.00
C119   C     0.62050   0.43724   0.13110   0.00000  Uiso   1.00
O120   O     0.65006   0.45326   0.22458   0.00000  Uiso   1.00
N121   N     0.60622   0.40341   0.06566   0.00000  Uiso   1.00
N122   N     0.61933   0.38289   0.07045   0.00000  Uiso   1.00
C123   C     0.65130   0.38809   0.12300   0.00000  Uiso   1.00
N124   N     0.40392   0.60638  -0.16470   0.00000  Uiso   1.00
O125   O     0.45693   0.65510  -0.17090   0.00000  Uiso   1.00
C126   C     0.43919   0.62261  -0.15951   0.00000  Uiso   1.00
C127   C     0.38859   0.65196  -0.19344   0.00000  Uiso   1.00
N128   N     0.38321   0.61924  -0.17805   0.00000  Uiso   1.00
C129   C     0.32567   0.63200  -0.19849   0.00000  Uiso   1.00
C130   C     0.36085   0.65887  -0.19780   0.00000  Uiso   1.00
N131   N     0.45644   0.43827   0.34866   0.00000  Uiso   1.00
C132   C     0.45257   0.40434   0.45047   0.00000  Uiso   1.00
C133   C     0.41678   0.37599   0.55372   0.00000  Uiso   1.00
C134   C     0.41985   0.34906   0.71379   0.00000  Uiso   1.00
C135   C     0.38538   0.32360   0.84184   0.00000  Uiso   1.00
C136   C     0.38936   0.29791   1.00865   0.00000  Uiso   1.00
C137   C     0.35564   0.27372   1.14890   0.00000  Uiso   1.00
C138   C     0.35992   0.24823   1.31588   0.00000  Uiso   1.00
C139   C     0.32650   0.22442   1.46028   0.00000  Uiso   1.00
C140   C     0.33084   0.19883   1.62583   0.00000  Uiso   1.00
C141   C     0.29754   0.17512   1.77173   0.00000  Uiso   1.00
C142   C     0.30201   0.14965   1.93756   0.00000  Uiso   1.00
C143   C     0.26898   0.12610   2.08397   0.00000  Uiso   1.00
C144   C     0.96548   0.50728   0.23585   0.00000  Uiso   1.00
H145   H     0.71300   0.39353   0.12341   0.00000  Uiso   1.00
H146   H     0.62282   0.48842   0.39946   0.00000  Uiso   1.00
H147   H     0.59040   0.51763   0.34907   0.00000  Uiso   1.00
H148   H     0.54198   0.45687  -0.26186   0.00000  Uiso   1.00
H149   H     0.57423   0.42756  -0.21302   0.00000  Uiso   1.00
H150   H     0.58405   0.54802  -0.18366   0.00000  Uiso   1.00
H151   H     0.55473   0.57998  -0.24112   0.00000  Uiso   1.00
H152   H     0.46907   0.50522   0.14124   0.00000  Uiso   1.00
H153   H     0.53359   0.61279   0.03474   0.00000  Uiso   1.00
H154   H     0.50457   0.64506  -0.01121   0.00000  Uiso   1.00
H155   H     0.41509   0.55463  -0.25852   0.00000  Uiso   1.00
H156   H     0.44418   0.52255  -0.21125   0.00000  Uiso   1.00
H157   H     0.58248   0.39256   0.00826   0.00000  Uiso   1.00
H158   H     0.67094   0.41260   0.16033   0.00000  Uiso   1.00
H159   H     0.39196   0.58127  -0.15442   0.00000  Uiso   1.00
H160   H     0.41341   0.67240  -0.19965   0.00000  Uiso   1.00
H161   H     0.31999   0.60664  -0.19837   0.00000  Uiso   1.00
C162   C     0.42824   0.42901   0.16577   0.00000  Uiso   1.00
H163   H     0.47206   0.41093   0.59083   0.00000  Uiso   1.00
H164   H     0.45894   0.39088   0.31290   0.00000  Uiso   1.00
H165   H     0.39910   0.36208   0.40642   0.00000  Uiso   1.00
H166   H     0.40500   0.38807   0.65775   0.00000  Uiso   1.00
H167   H     0.43970   0.36289   0.84994   0.00000  Uiso   1.00
H168   H     0.42826   0.33429   0.60384   0.00000  Uiso   1.00
H169   H     0.36542   0.30891   0.70821   0.00000  Uiso   1.00
H170   H     0.37682   0.33860   0.94796   0.00000  Uiso   1.00
H171   H     0.41024   0.31274   1.13639   0.00000  Uiso   1.00
H172   H     0.39674   0.28204   0.90160   0.00000  Uiso   1.00
H173   H     0.33465   0.25880   1.02231   0.00000  Uiso   1.00
H174   H     0.34837   0.28967   1.25595   0.00000  Uiso   1.00
H175   H     0.38122   0.26321   1.44041   0.00000  Uiso   1.00
H176   H     0.36683   0.23205   1.20840   0.00000  Uiso   1.00
H177   H     0.30513   0.20955   1.33617   0.00000  Uiso   1.00
H178   H     0.31972   0.24062   1.56866   0.00000  Uiso   1.00
H179   H     0.35232   0.21371   1.74916   0.00000  Uiso   1.00
H180   H     0.33747   0.18253   1.51721   0.00000  Uiso   1.00
H181   H     0.27606   0.16012   1.64856   0.00000  Uiso   1.00
H182   H     0.29084   0.19139   1.88006   0.00000  Uiso   1.00
H183   H     0.32346   0.16444   2.06119   0.00000  Uiso   1.00
H184   H     0.30849   0.13314   1.83003   0.00000  Uiso   1.00
H185   H     0.24738   0.10984   1.96527   0.00000  Uiso   1.00
H186   H     0.26176   0.14176   2.19399   0.00000  Uiso   1.00
H187   H     0.27375   0.10925   2.20073   0.00000  Uiso   1.00
H188   H     0.95038   0.48867   0.37630   0.00000  Uiso   1.00
H189   H     0.94680   0.50608   0.10330   0.00000  Uiso   1.00
C190   C     0.45321   0.45893   0.55116   0.00000  Uiso   1.00
H191   H     0.42983   0.41278   0.02649   0.00000  Uiso   1.00
H192   H     0.42955   0.45147   0.07956   0.00000  Uiso   1.00
H193   H     0.40232   0.41471   0.24451   0.00000  Uiso   1.00
H194   H     0.47101   0.46211   0.69534   0.00000  Uiso   1.00
H195   H     0.42698   0.44638   0.62466   0.00000  Uiso   1.00
H196   H     0.45918   0.48485   0.50028   0.00000  Uiso   1.00
C197   C     0.63189   0.32536   0.12266   0.00000  Uiso   1.00
C198   C     0.63938   0.29795   0.12239   0.00000  Uiso   1.00
C199   C     0.51858   0.12450   0.25886   0.00000  Uiso   1.00
C200   C     0.50134   0.08821   0.22989   0.00000  Uiso   1.00
C201   C     0.51025   0.07330   0.03986   0.00000  Uiso   1.00
C202   C     0.53639   0.09530  -0.12183   0.00000  Uiso   1.00
C203   C     0.55368   0.13156  -0.09176   0.00000  Uiso   1.00
C204   C     0.54524   0.14686   0.09972   0.00000  Uiso   1.00
C205   C     0.49335   0.03690   0.01351   0.00000  Uiso   1.00
C206   C     0.46166   0.02129  -0.11346   0.00000  Uiso   1.00
C207   C     0.44275   0.98523  -0.14646   0.00000  Uiso   1.00
C208   C     0.45490   0.96386  -0.05186   0.00000  Uiso   1.00
C209   C     0.48675   0.97982   0.07446   0.00000  Uiso   1.00
C210   C     0.50703   0.01629   0.10915   0.00000  Uiso   1.00
C211   C     0.43563   0.92740  -0.08256   0.00000  Uiso   1.00
C212   C     0.39979   0.90839  -0.02785   0.00000  Uiso   1.00
C213   C     0.38075   0.87207  -0.05495   0.00000  Uiso   1.00
C214   C     0.39670   0.85322  -0.13734   0.00000  Uiso   1.00
C215   C     0.43254   0.87252  -0.19466   0.00000  Uiso   1.00
C216   C     0.45164   0.90884  -0.16737   0.00000  Uiso   1.00
C217   C     0.56276   0.18326   0.13110   0.00000  Uiso   1.00
O218   O     0.54674   0.19680   0.22458   0.00000  Uiso   1.00
N219   N     0.59659   0.20281   0.06566   0.00000  Uiso   1.00
N220   N     0.61711   0.23644   0.07045   0.00000  Uiso   1.00
C221   C     0.61191   0.26321   0.12300   0.00000  Uiso   1.00
N222   N     0.39362   0.79754  -0.16470   0.00000  Uiso   1.00
O223   O     0.34490   0.80183  -0.17090   0.00000  Uiso   1.00
C224   C     0.37739   0.81658  -0.15951   0.00000  Uiso   1.00
C225   C     0.34804   0.73663  -0.19344   0.00000  Uiso   1.00
N226   N     0.38076   0.76397  -0.17805   0.00000  Uiso   1.00
C227   C     0.36800   0.69367  -0.19849   0.00000  Uiso   1.00
C228   C     0.34113   0.70198  -0.19780   0.00000  Uiso   1.00
N229   N     0.56173   0.01817   0.34866   0.00000  Uiso   1.00
C230   C     0.59566   0.04823   0.45047   0.00000  Uiso   1.00
C231   C     0.62401   0.04079   0.55372   0.00000  Uiso   1.00
C232   C     0.65094   0.07079   0.71379   0.00000  Uiso   1.00
C233   C     0.67640   0.06178   0.84184   0.00000  Uiso   1.00
C234   C     0.70209   0.09145   1.00865   0.00000  Uiso   1.00
C235   C     0.72628   0.08192   1.14890   0.00000  Uiso   1.00
C236   C     0.75177   0.11169   1.31588   0.00000  Uiso   1.00
C237   C     0.77558   0.10208   1.46028   0.00000  Uiso   1.00
C238   C     0.80117   0.13201   1.62583   0.00000  Uiso   1.00
C239   C     0.82488   0.12242   1.77173   0.00000  Uiso   1.00
C240   C     0.85035   0.15236   1.93756   0.00000  Uiso   1.00
C241   C     0.87390   0.14288   2.08397   0.00000  Uiso   1.00
C242   C     0.49272   0.45820   0.23585   0.00000  Uiso   1.00
H243   H     0.60647   0.31947   0.12341   0.00000  Uiso   1.00
H244   H     0.51158   0.13440   0.39946   0.00000  Uiso   1.00
H245   H     0.48237   0.07277   0.34907   0.00000  Uiso   1.00
H246   H     0.54313   0.08511  -0.26186   0.00000  Uiso   1.00
H247   H     0.57244   0.14667  -0.21302   0.00000  Uiso   1.00
H248   H     0.45198   0.03603  -0.18366   0.00000  Uiso   1.00
H249   H     0.42002   0.97475  -0.24112   0.00000  Uiso   1.00
H250   H     0.49478   0.96385   0.14124   0.00000  Uiso   1.00
H251   H     0.38721   0.92080   0.03474   0.00000  Uiso   1.00
H252   H     0.35494   0.85951  -0.01121   0.00000  Uiso   1.00
H253   H     0.44537   0.86046  -0.25852   0.00000  Uiso   1.00
H254   H     0.47745   0.92163  -0.21125   0.00000  Uiso   1.00
H255   H     0.60744   0.18992   0.00826   0.00000  Uiso   1.00
H256   H     0.58740   0.25834   0.16033   0.00000  Uiso   1.00
H257   H     0.41873   0.81069  -0.15442   0.00000  Uiso   1.00
H258   H     0.32760   0.74101  -0.19965   0.00000  Uiso   1.00
H259   H     0.39336   0.71335  -0.19837   0.00000  Uiso   1.00
C260   C     0.57099   0.99923   0.16577   0.00000  Uiso   1.00
H261   H     0.58907   0.06113   0.59083   0.00000  Uiso   1.00
H262   H     0.60912   0.06806   0.31290   0.00000  Uiso   1.00
H263   H     0.63792   0.03702   0.40642   0.00000  Uiso   1.00
H264   H     0.61193   0.01693   0.65775   0.00000  Uiso   1.00
H265   H     0.63711   0.07681   0.84994   0.00000  Uiso   1.00
H266   H     0.66571   0.09397   0.60384   0.00000  Uiso   1.00
H267   H     0.69109   0.05651   0.70821   0.00000  Uiso   1.00
H268   H     0.66140   0.03822   0.94796   0.00000  Uiso   1.00
H269   H     0.68726   0.09750   1.13639   0.00000  Uiso   1.00
H270   H     0.71796   0.11470   0.90160   0.00000  Uiso   1.00
H271   H     0.74120   0.07585   1.02231   0.00000  Uiso   1.00
H272   H     0.71033   0.05870   1.25595   0.00000  Uiso   1.00
H273   H     0.73679   0.11801   1.44041   0.00000  Uiso   1.00
H274   H     0.76795   0.13478   1.20840   0.00000  Uiso   1.00
H275   H     0.79045   0.09558   1.33617   0.00000  Uiso   1.00
H276   H     0.75938   0.07910   1.56866   0.00000  Uiso   1.00
H277   H     0.78629   0.13861   1.74916   0.00000  Uiso   1.00
H278   H     0.81747   0.15494   1.51721   0.00000  Uiso   1.00
H279   H     0.83988   0.11594   1.64856   0.00000  Uiso   1.00
H280   H     0.80861   0.09945   1.88006   0.00000  Uiso   1.00
H281   H     0.83556   0.15902   2.06119   0.00000  Uiso   1.00
H282   H     0.86686   0.17535   1.83003   0.00000  Uiso   1.00
H283   H     0.89016   0.13754   1.96527   0.00000  Uiso   1.00
H284   H     0.85824   0.12000   2.19399   0.00000  Uiso   1.00
H285   H     0.89075   0.16450   2.20073   0.00000  Uiso   1.00
H286   H     0.51133   0.46171   0.37630   0.00000  Uiso   1.00
H287   H     0.49392   0.44072   0.10330   0.00000  Uiso   1.00
C288   C     0.54107   0.99428   0.55116   0.00000  Uiso   1.00
H289   H     0.58722   0.01705   0.02649   0.00000  Uiso   1.00
H290   H     0.54853   0.97808   0.07956   0.00000  Uiso   1.00
H291   H     0.58529   0.98761   0.24451   0.00000  Uiso   1.00
H292   H     0.53789   0.00890   0.69534   0.00000  Uiso   1.00
H293   H     0.55362   0.98060   0.62466   0.00000  Uiso   1.00
H294   H     0.51515   0.97433   0.50028   0.00000  Uiso   1.00
loop_
_geom_bond_atom_site_label_1
_geom_bond_atom_site_label_2
_geom_bond_distance
_geom_bond_site_symmetry_2
_ccdc_geom_bond_type
C1     C2      1.413   .     D
C1     H47     1.023   .     S
C1     C198    1.414   .     S
C2     C25     1.409   .     S
C2     C99     1.414   .     S
C3     C4      1.405   .     S
C3     C8      1.416   .     D
C3     H48     1.023   .     S
C4     C5      1.410   .     D
C4     H49     1.023   .     S
C5     C6      1.410   .     S
C5     C9      1.409   .     S
C6     C7      1.405   .     D
C6     H50     1.022   .     S
C7     C8      1.416   .     S
C7     H51     1.023   .     S
C8     C21     1.411   .     S
C9     C10     1.411   .     D
C9     C14     1.431   .     S
C10    C11     1.399   1_655 S
C10    H52     1.024   .     S
C11    C10     1.399   1_455 S
C11    C12     1.408   .     D
C11    H53     1.023   .     S
C12    C13     1.414   .     S
C12    C15     1.413   .     S
C13    C14     1.419   1_455 D
C13    H54     1.011   .     S
C14    C13     1.419   1_655 D
C14    C144    1.514   .     S
C15    C16     1.413   .     D
C15    C20     1.413   .     S
C16    C17     1.405   .     S
C16    H55     1.023   .     S
C17    C18     1.417   .     D
C17    H56     1.022   .     S
C18    C19     1.416   .     S
C18    C28     1.415   .     S
C19    C20     1.406   .     D
C19    H57     1.022   .     S
C20    H58     1.022   .     S
C21    O22     1.253   .     D
C21    N23     1.357   .     S
N23    N24     1.304   .     S
N23    H59     0.969   .     S
N24    C25     1.352   .     D
C25    H60     1.020   .     S
N26    C28     1.358   .     S
N26    N30     1.305   .     S
N26    H61     0.968   .     S
O27    C28     1.253   .     D
C29    N30     1.352   .     D
C29    C32     1.411   .     S
C29    H62     1.019   .     S
C31    C32     1.414   .     D
C31    H63     1.023   .     S
C31    C228    1.413   .     S
C32    C129    1.413   .     S
N33    C34     1.538   .     S
N33    C64     1.507   1_655 S
N33    C92     1.510   1_655 S
N33    C144    1.533   .     S
C34    C35     1.563   .     S
C34    H65     1.095   .     S
C34    H66     1.095   .     S
C35    C36     1.554   .     S
C35    H67     1.092   .     S
C35    H68     1.087   .     S
C36    C37     1.551   .     S
C36    H69     1.093   .     S
C36    H70     1.092   .     S
C37    C38     1.551   .     S
C37    H71     1.092   .     S
C37    H72     1.093   .     S
C38    C39     1.550   .     S
C38    H73     1.093   .     S
C38    H74     1.093   .     S
C39    C40     1.551   .     S
C39    H75     1.092   .     S
C39    H76     1.093   .     S
C40    C41     1.551   .     S
C40    H77     1.093   .     S
C40    H78     1.092   .     S
C41    C42     1.551   .     S
C41    H79     1.092   .     S
C41    H80     1.092   .     S
C42    C43     1.551   .     S
C42    H81     1.092   .     S
C42    H82     1.092   .     S
C43    C44     1.551   .     S
C43    H83     1.093   .     S
C43    H84     1.092   .     S
C44    C45     1.544   .     S
C44    H85     1.092   .     S
C44    H86     1.093   .     S
C45    H87     1.091   .     S
C45    H88     1.090   .     S
C45    H89     1.091   .     S
C46    H90     1.094   .     S
C46    H91     1.094   .     S
C46    C210    1.514   .     S
C46    N229    1.533   .     S
C64    N33     1.507   1_455 S
C64    H93     1.088   1_455 S
C64    H94     1.083   .     S
C64    H95     1.091   .     S
C92    N33     1.510   1_455 S
C92    H96     1.089   1_455 S
C92    H97     1.090   .     S
C92    H98     1.082   .     S
H93    C64     1.088   1_655 S
H96    C92     1.089   1_655 S
C99    C100    1.413   .     D
C99    H145    1.023   .     S
C100   C123    1.409   .     S
C100   C197    1.414   .     S
C101   C102    1.405   .     D
C101   C106    1.416   .     S
C101   H146    1.023   .     S
C102   C103    1.410   .     S
C102   H147    1.023   .     S
C103   C104    1.410   .     D
C103   C107    1.409   .     S
C104   C105    1.405   .     S
C104   H148    1.022   .     S
C105   C106    1.416   .     D
C105   H149    1.023   .     S
C106   C119    1.411   .     S
C107   C108    1.411   .     S
C107   C112    1.431   .     D
C108   C109    1.399   .     D
C108   H150    1.024   .     S
C109   C110    1.408   .     S
C109   H151    1.023   .     S
C110   C111    1.414   .     D
C110   C113    1.413   .     S
C111   C112    1.419   .     S
C111   H152    1.011   .     S
C112   C242    1.514   .     S
C113   C114    1.413   .     D
C113   C118    1.413   .     S
C114   C115    1.405   .     S
C114   H153    1.023   .     S
C115   C116    1.417   .     D
C115   H154    1.022   .     S
C116   C117    1.416   .     S
C116   C126    1.415   .     S
C117   C118    1.406   .     D
C117   H155    1.022   .     S
C118   H156    1.022   .     S
C119   O120    1.253   .     D
C119   N121    1.357   .     S
N121   N122    1.304   .     S
N121   H157    0.969   .     S
N122   C123    1.352   .     D
C123   H158    1.020   .     S
N124   C126    1.358   .     S
N124   N128    1.305   .     S
N124   H159    0.968   .     S
O125   C126    1.253   .     D
C127   N128    1.352   .     D
C127   C130    1.411   .     S
C127   H160    1.019   .     S
C129   C130    1.414   .     D
C129   H161    1.023   .     S
C130   C227    1.413   .     S
N131   C132    1.538   .     S
N131   C162    1.507   .     S
N131   C190    1.510   .     S
N131   C242    1.533   .     S
C132   C133    1.563   .     S
C132   H163    1.095   .     S
C132   H164    1.095   .     S
C133   C134    1.554   .     S
C133   H165    1.092   .     S
C133   H166    1.087   .     S
C134   C135    1.551   .     S
C134   H167    1.093   .     S
C134   H168    1.092   .     S
C135   C136    1.551   .     S
C135   H169    1.092   .     S
C135   H170    1.093   .     S
C136   C137    1.550   .     S
C136   H171    1.093   .     S
C136   H172    1.093   .     S
C137   C138    1.551   .     S
C137   H173    1.092   .     S
C137   H174    1.093   .     S
C138   C139    1.551   .     S
C138   H175    1.093   .     S
C138   H176    1.092   .     S
C139   C140    1.551   .     S
C139   H177    1.092   .     S
C139   H178    1.092   .     S
C140   C141    1.551   .     S
C140   H179    1.092   .     S
C140   H180    1.092   .     S
C141   C142    1.551   .     S
C141   H181    1.093   .     S
C141   H182    1.092   .     S
C142   C143    1.544   .     S
C142   H183    1.092   .     S
C142   H184    1.093   .     S
C143   H185    1.091   .     S
C143   H186    1.090   .     S
C143   H187    1.091   .     S
C144   H188    1.094   .     S
C144   H189    1.094   .     S
C162   H191    1.088   .     S
C162   H192    1.083   .     S
C162   H193    1.091   .     S
C190   H194    1.089   .     S
C190   H195    1.090   .     S
C190   H196    1.082   .     S
C197   C198    1.413   .     D
C197   H243    1.023   .     S
C198   C221    1.409   .     S
C199   C200    1.405   .     D
C199   C204    1.416   .     S
C199   H244    1.023   .     S
C200   C201    1.410   .     S
C200   H245    1.023   .     S
C201   C202    1.410   .     D
C201   C205    1.409   .     S
C202   C203    1.405   .     S
C202   H246    1.022   .     S
C203   C204    1.416   .     D
C203   H247    1.023   .     S
C204   C217    1.411   .     S
C205   C206    1.411   .     S
C205   C210    1.431   .     D
C206   C207    1.399   1_545 D
C206   H248    1.024   .     S
C207   C206    1.399   1_565 D
C207   C208    1.408   .     S
C207   H249    1.023   .     S
C208   C209    1.414   .     D
C208   C211    1.413   .     S
C209   C210    1.419   1_565 S
C209   H250    1.011   .     S
C210   C209    1.419   1_545 S
C211   C212    1.413   .     D
C211   C216    1.413   .     S
C212   C213    1.405   .     S
C212   H251    1.023   .     S
C213   C214    1.417   .     D
C213   H252    1.022   .     S
C214   C215    1.416   .     S
C214   C224    1.415   .     S
C215   C216    1.406   .     D
C215   H253    1.022   .     S
C216   H254    1.022   .     S
C217   O218    1.253   .     D
C217   N219    1.357   .     S
N219   N220    1.304   .     S
N219   H255    0.969   .     S
N220   C221    1.352   .     D
C221   H256    1.020   .     S
N222   C224    1.358   .     S
N222   N226    1.305   .     S
N222   H257    0.968   .     S
O223   C224    1.253   .     D
C225   N226    1.352   .     D
C225   C228    1.411   .     S
C225   H258    1.019   .     S
C227   C228    1.414   .     D
C227   H259    1.023   .     S
N229   C230    1.538   .     S
N229   C260    1.507   1_545 S
N229   C288    1.510   1_545 S
C230   C231    1.563   .     S
C230   H261    1.095   .     S
C230   H262    1.095   .     S
C231   C232    1.554   .     S
C231   H263    1.092   .     S
C231   H264    1.087   .     S
C232   C233    1.551   .     S
C232   H265    1.093   .     S
C232   H266    1.092   .     S
C233   C234    1.551   .     S
C233   H267    1.092   .     S
C233   H268    1.093   .     S
C234   C235    1.550   .     S
C234   H269    1.093   .     S
C234   H270    1.093   .     S
C235   C236    1.551   .     S
C235   H271    1.092   .     S
C235   H272    1.093   .     S
C236   C237    1.551   .     S
C236   H273    1.093   .     S
C236   H274    1.092   .     S
C237   C238    1.551   .     S
C237   H275    1.092   .     S
C237   H276    1.092   .     S
C238   C239    1.551   .     S
C238   H277    1.092   .     S
C238   H278    1.092   .     S
C239   C240    1.551   .     S
C239   H279    1.093   .     S
C239   H280    1.092   .     S
C240   C241    1.544   .     S
C240   H281    1.092   .     S
C240   H282    1.093   .     S
C241   H283    1.091   .     S
C241   H284    1.090   .     S
C241   H285    1.091   .     S
C242   H286    1.094   .     S
C242   H287    1.094   .     S
C260   N229    1.507   1_565 S
C260   H289    1.088   1_565 S
C260   H290    1.083   .     S
C260   H291    1.091   .     S
C288   N229    1.510   1_565 S
C288   H292    1.089   1_565 S
C288   H293    1.090   .     S
C288   H294    1.082   .     S
H289   C260    1.088   1_545 S
H292   C288    1.089   1_545 S
