data_166
_audit_creation_date              2023-09-08
_audit_creation_method            'Materials Studio'
_symmetry_space_group_name_H-M    'P1'
_symmetry_Int_Tables_number       1
_symmetry_cell_setting            triclinic
loop_
_symmetry_equiv_pos_as_xyz
  x,y,z
_cell_length_a                    44.7430
_cell_length_b                    44.7430
_cell_length_c                    3.5235
_cell_angle_alpha                 90.0000
_cell_angle_beta                  90.0000
_cell_angle_gamma                 120.0000
loop_
_atom_site_label
_atom_site_type_symbol
_atom_site_fract_x
_atom_site_fract_y
_atom_site_fract_z
_atom_site_U_iso_or_equiv
_atom_site_adp_type
_atom_site_occupancy
C1     C     0.31738   0.68658   0.50000   0.00000  Uiso   1.00
C2     C     0.29700   0.65051   0.50000   0.00000  Uiso   1.00
C3     C     0.36639   0.62531   0.50000   0.00000  Uiso   1.00
C4     C     0.40253   0.64105   0.50000   0.00000  Uiso   1.00
C5     C     0.41852   0.62109   0.50000   0.00000  Uiso   1.00
C6     C     0.39856   0.58490   0.50000   0.00000  Uiso   1.00
C7     C     0.36261   0.56915   0.50000   0.00000  Uiso   1.00
C8     C     0.34668   0.58911   0.50000   0.00000  Uiso   1.00
N9     N     0.43634   0.85046   0.50000   0.00000  Uiso   1.00
C10    C     0.46216   0.55347   0.50000   0.00000  Uiso   1.00
C11    C     0.49805   0.56824   0.50000   0.00000  Uiso   1.00
C12    C     0.51294   0.54724   0.50000   0.00000  Uiso   1.00
C13    C     0.49213   0.51111   0.50000   0.00000  Uiso   1.00
C14    C     0.45605   0.49652   0.50000   0.00000  Uiso   1.00
C15    C     0.44122   0.51752   0.50000   0.00000  Uiso   1.00
C16    C     0.55273   0.42389   0.50000   0.00000  Uiso   1.00
H17    H     0.30426   0.70282   0.50000   0.00000  Uiso   1.00
H18    H     0.41888   0.67041   0.50000   0.00000  Uiso   1.00
H19    H     0.44788   0.63416   0.50000   0.00000  Uiso   1.00
H20    H     0.34619   0.53979   0.50000   0.00000  Uiso   1.00
H21    H     0.31726   0.57611   0.50000   0.00000  Uiso   1.00
H22    H     0.51520   0.59753   0.50000   0.00000  Uiso   1.00
H23    H     0.54218   0.55945   0.50000   0.00000  Uiso   1.00
H24    H     0.43878   0.46722   0.50000   0.00000  Uiso   1.00
H25    H     0.41193   0.50531   0.50000   0.00000  Uiso   1.00
H26    H     0.53467   0.39471   0.50000   0.00000  Uiso   1.00
C27    C     0.31342   0.63080   0.50000   0.00000  Uiso   1.00
C28    C     0.34949   0.64649   0.50000   0.00000  Uiso   1.00
C29    C     0.37469   0.74108   0.50000   0.00000  Uiso   1.00
C30    C     0.35895   0.76148   0.50000   0.00000  Uiso   1.00
C31    C     0.37891   0.79743   0.50000   0.00000  Uiso   1.00
C32    C     0.41510   0.81366   0.50000   0.00000  Uiso   1.00
C33    C     0.43085   0.79346   0.50000   0.00000  Uiso   1.00
C34    C     0.41089   0.75757   0.50000   0.00000  Uiso   1.00
N35    N     0.14954   0.58588   0.50000   0.00000  Uiso   1.00
C36    C     0.44653   0.90869   0.50000   0.00000  Uiso   1.00
C37    C     0.43176   0.92981   0.50000   0.00000  Uiso   1.00
C38    C     0.45276   0.96570   0.50000   0.00000  Uiso   1.00
C39    C     0.48889   0.98102   0.50000   0.00000  Uiso   1.00
C40    C     0.50348   0.95953   0.50000   0.00000  Uiso   1.00
C41    C     0.48248   0.92370   0.50000   0.00000  Uiso   1.00
C42    C     0.57611   0.12884   0.50000   0.00000  Uiso   1.00
H43    H     0.29718   0.60144   0.50000   0.00000  Uiso   1.00
H44    H     0.32959   0.74847   0.50000   0.00000  Uiso   1.00
H45    H     0.36584   0.81372   0.50000   0.00000  Uiso   1.00
H46    H     0.46021   0.80640   0.50000   0.00000  Uiso   1.00
H47    H     0.42389   0.74115   0.50000   0.00000  Uiso   1.00
H48    H     0.40247   0.91767   0.50000   0.00000  Uiso   1.00
H49    H     0.44055   0.98273   0.50000   0.00000  Uiso   1.00
H50    H     0.53278   0.97156   0.50000   0.00000  Uiso   1.00
H51    H     0.49469   0.90662   0.50000   0.00000  Uiso   1.00
H52    H     0.60529   0.13996   0.50000   0.00000  Uiso   1.00
C53    C     0.36920   0.68262   0.50000   0.00000  Uiso   1.00
C54    C     0.35351   0.70300   0.50000   0.00000  Uiso   1.00
C55    C     0.25892   0.63361   0.50000   0.00000  Uiso   1.00
C56    C     0.23852   0.59747   0.50000   0.00000  Uiso   1.00
C57    C     0.20257   0.58148   0.50000   0.00000  Uiso   1.00
C58    C     0.18634   0.60144   0.50000   0.00000  Uiso   1.00
C59    C     0.20654   0.63739   0.50000   0.00000  Uiso   1.00
C60    C     0.24243   0.65332   0.50000   0.00000  Uiso   1.00
N61    N     0.41412   0.56366   0.50000   0.00000  Uiso   1.00
C62    C     0.09131   0.53784   0.50000   0.00000  Uiso   1.00
C63    C     0.07019   0.50195   0.50000   0.00000  Uiso   1.00
C64    C     0.03430   0.48706   0.50000   0.00000  Uiso   1.00
C65    C     0.01898   0.50787   0.50000   0.00000  Uiso   1.00
C66    C     0.04047   0.54395   0.50000   0.00000  Uiso   1.00
C67    C     0.07630   0.55878   0.50000   0.00000  Uiso   1.00
C68    C     0.87116   0.44727   0.50000   0.00000  Uiso   1.00
H69    H     0.39856   0.69574   0.50000   0.00000  Uiso   1.00
H70    H     0.25153   0.58112   0.50000   0.00000  Uiso   1.00
H71    H     0.18628   0.55212   0.50000   0.00000  Uiso   1.00
H72    H     0.19360   0.65381   0.50000   0.00000  Uiso   1.00
H73    H     0.25885   0.68274   0.50000   0.00000  Uiso   1.00
H74    H     0.08233   0.48480   0.50000   0.00000  Uiso   1.00
H75    H     0.01727   0.45782   0.50000   0.00000  Uiso   1.00
H76    H     0.02844   0.56122   0.50000   0.00000  Uiso   1.00
H77    H     0.09338   0.58807   0.50000   0.00000  Uiso   1.00
H78    H     0.86004   0.46533   0.50000   0.00000  Uiso   1.00
C79    C     0.68262   0.31342   0.50000   0.00000  Uiso   1.00
C80    C     0.70300   0.34949   0.50000   0.00000  Uiso   1.00
C81    C     0.63361   0.37469   0.50000   0.00000  Uiso   1.00
C82    C     0.59747   0.35895   0.50000   0.00000  Uiso   1.00
C83    C     0.58148   0.37891   0.50000   0.00000  Uiso   1.00
C84    C     0.60144   0.41510   0.50000   0.00000  Uiso   1.00
C85    C     0.63739   0.43085   0.50000   0.00000  Uiso   1.00
C86    C     0.65332   0.41089   0.50000   0.00000  Uiso   1.00
N87    N     0.56366   0.14954   0.50000   0.00000  Uiso   1.00
C88    C     0.53784   0.44653   0.50000   0.00000  Uiso   1.00
C89    C     0.50195   0.43176   0.50000   0.00000  Uiso   1.00
C90    C     0.48706   0.45276   0.50000   0.00000  Uiso   1.00
C91    C     0.50787   0.48889   0.50000   0.00000  Uiso   1.00
C92    C     0.54395   0.50348   0.50000   0.00000  Uiso   1.00
C93    C     0.55878   0.48248   0.50000   0.00000  Uiso   1.00
C94    C     0.44727   0.57611   0.50000   0.00000  Uiso   1.00
H95    H     0.69574   0.29718   0.50000   0.00000  Uiso   1.00
H96    H     0.58112   0.32959   0.50000   0.00000  Uiso   1.00
H97    H     0.55212   0.36584   0.50000   0.00000  Uiso   1.00
H98    H     0.65381   0.46021   0.50000   0.00000  Uiso   1.00
H99    H     0.68274   0.42389   0.50000   0.00000  Uiso   1.00
H100   H     0.48480   0.40247   0.50000   0.00000  Uiso   1.00
H101   H     0.45782   0.44055   0.50000   0.00000  Uiso   1.00
H102   H     0.56122   0.53278   0.50000   0.00000  Uiso   1.00
H103   H     0.58807   0.49469   0.50000   0.00000  Uiso   1.00
H104   H     0.46533   0.60529   0.50000   0.00000  Uiso   1.00
C105   C     0.68658   0.36920   0.50000   0.00000  Uiso   1.00
C106   C     0.65051   0.35351   0.50000   0.00000  Uiso   1.00
C107   C     0.62531   0.25892   0.50000   0.00000  Uiso   1.00
C108   C     0.64105   0.23852   0.50000   0.00000  Uiso   1.00
C109   C     0.62109   0.20257   0.50000   0.00000  Uiso   1.00
C110   C     0.58490   0.18634   0.50000   0.00000  Uiso   1.00
C111   C     0.56915   0.20654   0.50000   0.00000  Uiso   1.00
C112   C     0.58911   0.24243   0.50000   0.00000  Uiso   1.00
N113   N     0.85046   0.41412   0.50000   0.00000  Uiso   1.00
C114   C     0.55347   0.09131   0.50000   0.00000  Uiso   1.00
C115   C     0.56824   0.07019   0.50000   0.00000  Uiso   1.00
C116   C     0.54724   0.03430   0.50000   0.00000  Uiso   1.00
C117   C     0.51111   0.01898   0.50000   0.00000  Uiso   1.00
C118   C     0.49652   0.04047   0.50000   0.00000  Uiso   1.00
C119   C     0.51752   0.07630   0.50000   0.00000  Uiso   1.00
C120   C     0.42389   0.87116   0.50000   0.00000  Uiso   1.00
H121   H     0.70282   0.39856   0.50000   0.00000  Uiso   1.00
H122   H     0.67041   0.25153   0.50000   0.00000  Uiso   1.00
H123   H     0.63416   0.18628   0.50000   0.00000  Uiso   1.00
H124   H     0.53979   0.19360   0.50000   0.00000  Uiso   1.00
H125   H     0.57611   0.25885   0.50000   0.00000  Uiso   1.00
H126   H     0.59753   0.08233   0.50000   0.00000  Uiso   1.00
H127   H     0.55945   0.01727   0.50000   0.00000  Uiso   1.00
H128   H     0.46722   0.02844   0.50000   0.00000  Uiso   1.00
H129   H     0.50531   0.09338   0.50000   0.00000  Uiso   1.00
H130   H     0.39471   0.86004   0.50000   0.00000  Uiso   1.00
C131   C     0.63080   0.31738   0.50000   0.00000  Uiso   1.00
C132   C     0.64649   0.29700   0.50000   0.00000  Uiso   1.00
C133   C     0.74108   0.36639   0.50000   0.00000  Uiso   1.00
C134   C     0.76148   0.40253   0.50000   0.00000  Uiso   1.00
C135   C     0.79743   0.41852   0.50000   0.00000  Uiso   1.00
C136   C     0.81366   0.39856   0.50000   0.00000  Uiso   1.00
C137   C     0.79346   0.36261   0.50000   0.00000  Uiso   1.00
C138   C     0.75757   0.34668   0.50000   0.00000  Uiso   1.00
N139   N     0.58588   0.43634   0.50000   0.00000  Uiso   1.00
C140   C     0.90869   0.46216   0.50000   0.00000  Uiso   1.00
C141   C     0.92981   0.49805   0.50000   0.00000  Uiso   1.00
C142   C     0.96570   0.51294   0.50000   0.00000  Uiso   1.00
C143   C     0.98102   0.49213   0.50000   0.00000  Uiso   1.00
C144   C     0.95953   0.45605   0.50000   0.00000  Uiso   1.00
C145   C     0.92370   0.44122   0.50000   0.00000  Uiso   1.00
C146   C     0.12884   0.55273   0.50000   0.00000  Uiso   1.00
H147   H     0.60144   0.30426   0.50000   0.00000  Uiso   1.00
H148   H     0.74847   0.41888   0.50000   0.00000  Uiso   1.00
H149   H     0.81372   0.44788   0.50000   0.00000  Uiso   1.00
H150   H     0.80640   0.34619   0.50000   0.00000  Uiso   1.00
H151   H     0.74115   0.31726   0.50000   0.00000  Uiso   1.00
H152   H     0.91767   0.51520   0.50000   0.00000  Uiso   1.00
H153   H     0.98273   0.54218   0.50000   0.00000  Uiso   1.00
H154   H     0.97156   0.43878   0.50000   0.00000  Uiso   1.00
H155   H     0.90662   0.41193   0.50000   0.00000  Uiso   1.00
H156   H     0.13996   0.53467   0.50000   0.00000  Uiso   1.00
loop_
_geom_bond_atom_site_label_1
_geom_bond_atom_site_label_2
_geom_bond_distance
_geom_bond_site_symmetry_2
_ccdc_geom_bond_type
C1     C2      1.402   .     D
C1     H17     1.140   .     S
C1     C54     1.402   .     S
C2     C27     1.402   .     S
C2     C55     1.479   .     S
C3     C4      1.404   .     D
C3     C8      1.405   .     S
C3     C28     1.479   .     S
C4     C5      1.396   .     S
C4     H18     1.140   .     S
C5     C6      1.405   .     D
C5     H19     1.140   .     S
C6     C7      1.397   .     S
C6     N61     1.432   .     S
C7     C8      1.394   .     D
C7     H20     1.140   .     S
C8     H21     1.143   .     S
N9     C32     1.432   .     S
N9     C120    1.298   .     D
C10    C11     1.398   .     D
C10    C15     1.399   .     S
C10    C94     1.465   .     S
C11    C12     1.397   .     S
C11    H22     1.140   .     S
C12    C13     1.405   .     D
C12    H23     1.138   .     S
C13    C14     1.407   .     S
C13    C91     1.478   .     S
C14    C15     1.395   .     D
C14    H24     1.141   .     S
C15    H25     1.140   .     S
C16    H26     1.141   .     S
C16    C88     1.465   .     S
C16    N139    1.298   .     D
C27    C28     1.402   .     D
C27    H43     1.140   .     S
C28    C53     1.402   .     S
C29    C30     1.404   .     D
C29    C34     1.405   .     S
C29    C54     1.479   .     S
C30    C31     1.396   .     S
C30    H44     1.140   .     S
C31    C32     1.405   .     D
C31    H45     1.140   .     S
C32    C33     1.397   .     S
C33    C34     1.394   .     D
C33    H46     1.140   .     S
C34    H47     1.143   .     S
N35    C58     1.432   .     S
N35    C146    1.298   .     D
C36    C37     1.398   .     D
C36    C41     1.399   .     S
C36    C120    1.465   .     S
C37    C38     1.397   .     S
C37    H48     1.140   .     S
C38    C39     1.405   .     D
C38    H49     1.138   .     S
C39    C40     1.407   .     S
C39    C117    1.478   1_565 S
C40    C41     1.395   .     D
C40    H50     1.141   .     S
C41    H51     1.140   .     S
C42    H52     1.141   .     S
C42    N87     1.298   .     D
C42    C114    1.465   .     S
C53    C54     1.402   .     D
C53    H69     1.140   .     S
C55    C56     1.404   .     S
C55    C60     1.405   .     D
C56    C57     1.396   .     D
C56    H70     1.140   .     S
C57    C58     1.405   .     S
C57    H71     1.140   .     S
C58    C59     1.397   .     D
C59    C60     1.394   .     S
C59    H72     1.140   .     S
C60    H73     1.143   .     S
N61    C94     1.298   .     D
C62    C63     1.398   .     S
C62    C67     1.399   .     D
C62    C146    1.465   .     S
C63    C64     1.397   .     D
C63    H74     1.140   .     S
C64    C65     1.405   .     S
C64    H75     1.138   .     S
C65    C66     1.407   .     D
C65    C143    1.478   1_455 S
C66    C67     1.395   .     S
C66    H76     1.141   .     S
C67    H77     1.140   .     S
C68    H78     1.141   .     S
C68    N113    1.298   .     D
C68    C140    1.465   .     S
C79    C80     1.402   .     S
C79    H95     1.140   .     S
C79    C132    1.402   .     D
C80    C105    1.402   .     D
C80    C133    1.479   .     S
C81    C82     1.404   .     D
C81    C86     1.405   .     S
C81    C106    1.479   .     S
C82    C83     1.396   .     S
C82    H96     1.140   .     S
C83    C84     1.405   .     D
C83    H97     1.140   .     S
C84    C85     1.397   .     S
C84    N139    1.432   .     S
C85    C86     1.394   .     D
C85    H98     1.140   .     S
C86    H99     1.143   .     S
N87    C110    1.432   .     S
C88    C89     1.398   .     D
C88    C93     1.399   .     S
C89    C90     1.397   .     S
C89    H100    1.140   .     S
C90    C91     1.405   .     D
C90    H101    1.138   .     S
C91    C92     1.407   .     S
C92    C93     1.395   .     D
C92    H102    1.141   .     S
C93    H103    1.140   .     S
C94    H104    1.141   .     S
C105   C106    1.402   .     S
C105   H121    1.140   .     S
C106   C131    1.402   .     D
C107   C108    1.404   .     D
C107   C112    1.405   .     S
C107   C132    1.479   .     S
C108   C109    1.396   .     S
C108   H122    1.140   .     S
C109   C110    1.405   .     D
C109   H123    1.140   .     S
C110   C111    1.397   .     S
C111   C112    1.394   .     D
C111   H124    1.140   .     S
C112   H125    1.143   .     S
N113   C136    1.432   .     S
C114   C115    1.398   .     D
C114   C119    1.399   .     S
C115   C116    1.397   .     S
C115   H126    1.140   .     S
C116   C117    1.405   .     D
C116   H127    1.138   .     S
C117   C39     1.478   1_545 S
C117   C118    1.407   .     S
C118   C119    1.395   .     D
C118   H128    1.141   .     S
C119   H129    1.140   .     S
C120   H130    1.141   .     S
C131   C132    1.402   .     S
C131   H147    1.140   .     S
C133   C134    1.404   .     S
C133   C138    1.405   .     D
C134   C135    1.396   .     D
C134   H148    1.140   .     S
C135   C136    1.405   .     S
C135   H149    1.140   .     S
C136   C137    1.397   .     D
C137   C138    1.394   .     S
C137   H150    1.140   .     S
C138   H151    1.143   .     S
C140   C141    1.398   .     S
C140   C145    1.399   .     D
C141   C142    1.397   .     D
C141   H152    1.140   .     S
C142   C143    1.405   .     S
C142   H153    1.138   .     S
C143   C65     1.478   1_655 S
C143   C144    1.407   .     D
C144   C145    1.395   .     S
C144   H154    1.141   .     S
C145   H155    1.140   .     S
C146   H156    1.141   .     S
