data_167
_audit_creation_date              2023-09-08
_audit_creation_method            'Materials Studio'
_symmetry_space_group_name_H-M    'P1'
_symmetry_Int_Tables_number       1
_symmetry_cell_setting            triclinic
loop_
_symmetry_equiv_pos_as_xyz
  x,y,z
_cell_length_a                    49.2099
_cell_length_b                    49.2099
_cell_length_c                    3.5650
_cell_angle_alpha                 90.0000
_cell_angle_beta                  90.0000
_cell_angle_gamma                 120.0000
loop_
_atom_site_label
_atom_site_type_symbol
_atom_site_fract_x
_atom_site_fract_y
_atom_site_fract_z
_atom_site_U_iso_or_equiv
_atom_site_adp_type
_atom_site_occupancy
N1     N     0.13470   0.57163   0.50000   0.00000  Uiso   1.00
N2     N     0.42837   0.56306   0.50000   0.00000  Uiso   1.00
N3     N     0.43694   0.86531   0.50000   0.00000  Uiso   1.00
N4     N     0.85903   0.38644   0.50000   0.00000  Uiso   1.00
N5     N     0.61356   0.47259   0.50000   0.00000  Uiso   1.00
N6     N     0.52741   0.14097   0.50000   0.00000  Uiso   1.00
N7     N     0.00736   0.48426   0.50000   0.00000  Uiso   1.00
N8     N     0.51574   0.52311   0.50000   0.00000  Uiso   1.00
N9     N     0.47689   0.99264   0.50000   0.00000  Uiso   1.00
C10    C     0.99084   0.45249   0.50000   0.00000  Uiso   1.00
C11    C     0.54751   0.53834   0.50000   0.00000  Uiso   1.00
C12    C     0.46166   0.00917   0.50000   0.00000  Uiso   1.00
H13    H     0.00252   0.44022   0.50000   0.00000  Uiso   1.00
H14    H     0.55979   0.56231   0.50000   0.00000  Uiso   1.00
H15    H     0.43769   0.99748   0.50000   0.00000  Uiso   1.00
C16    C     0.15131   0.60340   0.50000   0.00000  Uiso   1.00
C17    C     0.39660   0.54791   0.50000   0.00000  Uiso   1.00
C18    C     0.45209   0.84869   0.50000   0.00000  Uiso   1.00
C19    C     0.10340   0.55129   0.50000   0.00000  Uiso   1.00
C20    C     0.44871   0.55211   0.50000   0.00000  Uiso   1.00
C21    C     0.44789   0.89660   0.50000   0.00000  Uiso   1.00
C22    C     0.07998   0.55991   0.50000   0.00000  Uiso   1.00
C23    C     0.44009   0.52008   0.50000   0.00000  Uiso   1.00
C24    C     0.47993   0.92002   0.50000   0.00000  Uiso   1.00
C25    C     0.04799   0.53670   0.50000   0.00000  Uiso   1.00
C26    C     0.46330   0.51128   0.50000   0.00000  Uiso   1.00
C27    C     0.48872   0.95201   0.50000   0.00000  Uiso   1.00
C28    C     0.03867   0.50460   0.50000   0.00000  Uiso   1.00
C29    C     0.49540   0.53407   0.50000   0.00000  Uiso   1.00
C30    C     0.46593   0.96133   0.50000   0.00000  Uiso   1.00
C31    C     0.06210   0.49599   0.50000   0.00000  Uiso   1.00
C32    C     0.50401   0.56611   0.50000   0.00000  Uiso   1.00
C33    C     0.43389   0.93790   0.50000   0.00000  Uiso   1.00
C34    C     0.09409   0.51919   0.50000   0.00000  Uiso   1.00
C35    C     0.48081   0.57490   0.50000   0.00000  Uiso   1.00
C36    C     0.42510   0.90591   0.50000   0.00000  Uiso   1.00
C37    C     0.83673   0.35569   0.50000   0.00000  Uiso   1.00
C38    C     0.64431   0.48104   0.50000   0.00000  Uiso   1.00
C39    C     0.51896   0.16327   0.50000   0.00000  Uiso   1.00
C40    C     0.89075   0.40078   0.50000   0.00000  Uiso   1.00
C41    C     0.59922   0.48997   0.50000   0.00000  Uiso   1.00
C42    C     0.51004   0.10926   0.50000   0.00000  Uiso   1.00
C43    C     0.90831   0.38523   0.50000   0.00000  Uiso   1.00
C44    C     0.61477   0.52309   0.50000   0.00000  Uiso   1.00
C45    C     0.47691   0.09169   0.50000   0.00000  Uiso   1.00
C46    C     0.94137   0.40243   0.50000   0.00000  Uiso   1.00
C47    C     0.59757   0.53894   0.50000   0.00000  Uiso   1.00
C48    C     0.46106   0.05864   0.50000   0.00000  Uiso   1.00
C49    C     0.95776   0.43565   0.50000   0.00000  Uiso   1.00
C50    C     0.56435   0.52211   0.50000   0.00000  Uiso   1.00
C51    C     0.47789   0.04224   0.50000   0.00000  Uiso   1.00
C52    C     0.93997   0.45104   0.50000   0.00000  Uiso   1.00
C53    C     0.54896   0.48894   0.50000   0.00000  Uiso   1.00
C54    C     0.51106   0.06003   0.50000   0.00000  Uiso   1.00
C55    C     0.90694   0.43379   0.50000   0.00000  Uiso   1.00
C56    C     0.56622   0.47315   0.50000   0.00000  Uiso   1.00
C57    C     0.52685   0.09306   0.50000   0.00000  Uiso   1.00
H58    H     0.13969   0.61574   0.50000   0.00000  Uiso   1.00
H59    H     0.38427   0.52396   0.50000   0.00000  Uiso   1.00
H60    H     0.47604   0.86031   0.50000   0.00000  Uiso   1.00
H61    H     0.08590   0.58293   0.50000   0.00000  Uiso   1.00
H62    H     0.41707   0.50297   0.50000   0.00000  Uiso   1.00
H63    H     0.49703   0.91410   0.50000   0.00000  Uiso   1.00
H64    H     0.11082   0.51269   0.50000   0.00000  Uiso   1.00
H65    H     0.48731   0.59813   0.50000   0.00000  Uiso   1.00
H66    H     0.40187   0.88918   0.50000   0.00000  Uiso   1.00
H67    H     0.03125   0.54319   0.50000   0.00000  Uiso   1.00
H68    H     0.45681   0.48806   0.50000   0.00000  Uiso   1.00
H69    H     0.51194   0.96875   0.50000   0.00000  Uiso   1.00
H70    H     0.05621   0.47298   0.50000   0.00000  Uiso   1.00
H71    H     0.52702   0.58324   0.50000   0.00000  Uiso   1.00
H72    H     0.41676   0.94379   0.50000   0.00000  Uiso   1.00
H73    H     0.84331   0.33902   0.50000   0.00000  Uiso   1.00
H74    H     0.66098   0.50428   0.50000   0.00000  Uiso   1.00
H75    H     0.49572   0.15670   0.50000   0.00000  Uiso   1.00
H76    H     0.89728   0.36135   0.50000   0.00000  Uiso   1.00
H77    H     0.63865   0.53593   0.50000   0.00000  Uiso   1.00
H78    H     0.46407   0.10272   0.50000   0.00000  Uiso   1.00
H79    H     0.89449   0.44531   0.50000   0.00000  Uiso   1.00
H80    H     0.55469   0.44918   0.50000   0.00000  Uiso   1.00
H81    H     0.55082   0.10551   0.50000   0.00000  Uiso   1.00
H82    H     0.95335   0.39040   0.50000   0.00000  Uiso   1.00
H83    H     0.60960   0.56295   0.50000   0.00000  Uiso   1.00
H84    H     0.43705   0.04665   0.50000   0.00000  Uiso   1.00
H85    H     0.95111   0.47502   0.50000   0.00000  Uiso   1.00
H86    H     0.52498   0.47609   0.50000   0.00000  Uiso   1.00
H87    H     0.52391   0.04889   0.50000   0.00000  Uiso   1.00
C88    C     0.36187   0.69236   0.50000   0.00000  Uiso   1.00
C89    C     0.30764   0.66950   0.50000   0.00000  Uiso   1.00
C90    C     0.33050   0.63814   0.50000   0.00000  Uiso   1.00
C91    C     0.63589   0.31240   0.50000   0.00000  Uiso   1.00
C92    C     0.68760   0.32349   0.50000   0.00000  Uiso   1.00
C93    C     0.67651   0.36411   0.50000   0.00000  Uiso   1.00
N94    N     0.35916   0.66384   0.50000   0.00000  Uiso   1.00
N95    N     0.33616   0.69533   0.50000   0.00000  Uiso   1.00
N96    N     0.30468   0.64084   0.50000   0.00000  Uiso   1.00
N97    N     0.64562   0.34321   0.50000   0.00000  Uiso   1.00
N98    N     0.65680   0.30241   0.50000   0.00000  Uiso   1.00
N99    N     0.69759   0.35438   0.50000   0.00000  Uiso   1.00
O100   O     0.39151   0.71690   0.50000   0.00000  Uiso   1.00
O101   O     0.28310   0.67461   0.50000   0.00000  Uiso   1.00
O102   O     0.32539   0.60849   0.50000   0.00000  Uiso   1.00
O103   O     0.60447   0.29304   0.50000   0.00000  Uiso   1.00
O104   O     0.70696   0.31143   0.50000   0.00000  Uiso   1.00
O105   O     0.68857   0.39553   0.50000   0.00000  Uiso   1.00
C106   C     0.40374   0.74855   0.50000   0.00000  Uiso   1.00
C107   C     0.25145   0.65519   0.50000   0.00000  Uiso   1.00
C108   C     0.34481   0.59626   0.50000   0.00000  Uiso   1.00
C109   C     0.23527   0.62209   0.50000   0.00000  Uiso   1.00
C110   C     0.37791   0.61317   0.50000   0.00000  Uiso   1.00
C111   C     0.38683   0.76474   0.50000   0.00000  Uiso   1.00
C112   C     0.20221   0.60485   0.50000   0.00000  Uiso   1.00
C113   C     0.39515   0.59736   0.50000   0.00000  Uiso   1.00
C114   C     0.40264   0.79779   0.50000   0.00000  Uiso   1.00
C115   C     0.18439   0.62021   0.50000   0.00000  Uiso   1.00
C116   C     0.37979   0.56418   0.50000   0.00000  Uiso   1.00
C117   C     0.43583   0.81561   0.50000   0.00000  Uiso   1.00
C118   C     0.20074   0.65343   0.50000   0.00000  Uiso   1.00
C119   C     0.34658   0.54732   0.50000   0.00000  Uiso   1.00
C120   C     0.45268   0.79926   0.50000   0.00000  Uiso   1.00
C121   C     0.23380   0.67048   0.50000   0.00000  Uiso   1.00
C122   C     0.32952   0.56332   0.50000   0.00000  Uiso   1.00
C123   C     0.43668   0.76620   0.50000   0.00000  Uiso   1.00
C124   C     0.58589   0.26127   0.50000   0.00000  Uiso   1.00
C125   C     0.73873   0.32462   0.50000   0.00000  Uiso   1.00
C126   C     0.67538   0.41411   0.50000   0.00000  Uiso   1.00
C127   C     0.76103   0.35696   0.50000   0.00000  Uiso   1.00
C128   C     0.64304   0.40407   0.50000   0.00000  Uiso   1.00
C129   C     0.59593   0.23898   0.50000   0.00000  Uiso   1.00
C130   C     0.79341   0.36738   0.50000   0.00000  Uiso   1.00
C131   C     0.63262   0.42604   0.50000   0.00000  Uiso   1.00
C132   C     0.57396   0.20659   0.50000   0.00000  Uiso   1.00
C133   C     0.80444   0.34575   0.50000   0.00000  Uiso   1.00
C134   C     0.65425   0.45868   0.50000   0.00000  Uiso   1.00
C135   C     0.54132   0.19556   0.50000   0.00000  Uiso   1.00
C136   C     0.78197   0.31333   0.50000   0.00000  Uiso   1.00
C137   C     0.68667   0.46864   0.50000   0.00000  Uiso   1.00
C138   C     0.53137   0.21803   0.50000   0.00000  Uiso   1.00
C139   C     0.74963   0.30312   0.50000   0.00000  Uiso   1.00
C140   C     0.69688   0.44651   0.50000   0.00000  Uiso   1.00
C141   C     0.55350   0.25038   0.50000   0.00000  Uiso   1.00
H142   H     0.24730   0.61029   0.50000   0.00000  Uiso   1.00
H143   H     0.38971   0.63701   0.50000   0.00000  Uiso   1.00
H144   H     0.36299   0.75270   0.50000   0.00000  Uiso   1.00
H145   H     0.19112   0.58085   0.50000   0.00000  Uiso   1.00
H146   H     0.41915   0.61027   0.50000   0.00000  Uiso   1.00
H147   H     0.38973   0.80888   0.50000   0.00000  Uiso   1.00
H148   H     0.18884   0.66553   0.50000   0.00000  Uiso   1.00
H149   H     0.33447   0.52331   0.50000   0.00000  Uiso   1.00
H150   H     0.47669   0.81116   0.50000   0.00000  Uiso   1.00
H151   H     0.24548   0.69443   0.50000   0.00000  Uiso   1.00
H152   H     0.30557   0.55105   0.50000   0.00000  Uiso   1.00
H153   H     0.44895   0.75452   0.50000   0.00000  Uiso   1.00
H154   H     0.75395   0.37313   0.50000   0.00000  Uiso   1.00
H155   H     0.62687   0.38082   0.50000   0.00000  Uiso   1.00
H156   H     0.61918   0.24605   0.50000   0.00000  Uiso   1.00
H157   H     0.80902   0.39099   0.50000   0.00000  Uiso   1.00
H158   H     0.60901   0.41804   0.50000   0.00000  Uiso   1.00
H159   H     0.58197   0.19098   0.50000   0.00000  Uiso   1.00
H160   H     0.78885   0.29685   0.50000   0.00000  Uiso   1.00
H161   H     0.70315   0.49200   0.50000   0.00000  Uiso   1.00
H162   H     0.50800   0.21115   0.50000   0.00000  Uiso   1.00
H163   H     0.73352   0.27972   0.50000   0.00000  Uiso   1.00
H164   H     0.72029   0.45381   0.50000   0.00000  Uiso   1.00
H165   H     0.54619   0.26648   0.50000   0.00000  Uiso   1.00
loop_
_geom_bond_atom_site_label_1
_geom_bond_atom_site_label_2
_geom_bond_distance
_geom_bond_site_symmetry_2
_ccdc_geom_bond_type
N1     C16     1.354   .     D
N1     C19     1.353   .     S
N2     C17     1.354   .     D
N2     C20     1.353   .     S
N3     C18     1.354   .     D
N3     C21     1.353   .     S
N4     C37     1.354   .     D
N4     C40     1.354   .     S
N5     C38     1.354   .     D
N5     C41     1.354   .     S
N6     C39     1.354   .     D
N6     C42     1.354   .     S
N7     C10     1.354   1_455 D
N7     C28     1.354   .     S
N8     C11     1.354   .     D
N8     C29     1.354   .     S
N9     C12     1.354   1_565 D
N9     C30     1.354   .     S
C10    N7      1.354   1_655 D
C10    H13     1.021   1_655 S
C10    C49     1.410   .     S
C11    H14     1.021   .     S
C11    C50     1.410   .     S
C12    N9      1.354   1_545 D
C12    H15     1.021   1_545 S
C12    C51     1.410   .     S
H13    C10     1.021   1_455 S
H15    C12     1.021   1_565 S
C16    H58     1.021   .     S
C16    C115    1.410   .     S
C17    H59     1.021   .     S
C17    C116    1.410   .     S
C18    H60     1.021   .     S
C18    C117    1.410   .     S
C19    C22     1.413   .     D
C19    C34     1.408   .     S
C20    C23     1.413   .     D
C20    C35     1.408   .     S
C21    C24     1.413   .     D
C21    C36     1.408   .     S
C22    C25     1.409   .     S
C22    H61     1.019   .     S
C23    C26     1.409   .     S
C23    H62     1.019   .     S
C24    C27     1.409   .     S
C24    H63     1.019   .     S
C25    C28     1.408   .     D
C25    H67     1.021   .     S
C26    C29     1.408   .     D
C26    H68     1.021   .     S
C27    C30     1.408   .     D
C27    H69     1.021   .     S
C28    C31     1.413   .     S
C29    C32     1.413   .     S
C30    C33     1.413   .     S
C31    C34     1.409   .     D
C31    H70     1.019   .     S
C32    C35     1.409   .     D
C32    H71     1.019   .     S
C33    C36     1.409   .     D
C33    H72     1.019   .     S
C34    H64     1.022   .     S
C35    H65     1.022   .     S
C36    H66     1.022   .     S
C37    H73     1.021   .     S
C37    C133    1.410   .     S
C38    H74     1.021   .     S
C38    C134    1.410   .     S
C39    H75     1.021   .     S
C39    C135    1.410   .     S
C40    C43     1.412   .     D
C40    C55     1.407   .     S
C41    C44     1.412   .     D
C41    C56     1.407   .     S
C42    C45     1.412   .     D
C42    C57     1.407   .     S
C43    C46     1.409   .     S
C43    H76     1.019   .     S
C44    C47     1.409   .     S
C44    H77     1.019   .     S
C45    C48     1.409   .     S
C45    H78     1.019   .     S
C46    C49     1.416   .     D
C46    H82     1.023   .     S
C47    C50     1.416   .     D
C47    H83     1.023   .     S
C48    C51     1.416   .     D
C48    H84     1.023   .     S
C49    C52     1.415   .     S
C50    C53     1.415   .     S
C51    C54     1.415   .     S
C52    C55     1.408   .     D
C52    H85     1.023   .     S
C53    C56     1.408   .     D
C53    H86     1.023   .     S
C54    C57     1.408   .     D
C54    H87     1.023   .     S
C55    H79     1.022   .     S
C56    H80     1.022   .     S
C57    H81     1.022   .     S
C88    N94     1.342   .     D
C88    N95     1.344   .     S
C88    O100    1.351   .     S
C89    N95     1.342   .     D
C89    N96     1.344   .     S
C89    O101    1.351   .     S
C90    N94     1.344   .     S
C90    N96     1.342   .     D
C90    O102    1.351   .     S
C91    N97     1.342   .     D
C91    N98     1.344   .     S
C91    O103    1.351   .     S
C92    N98     1.342   .     D
C92    N99     1.344   .     S
C92    O104    1.351   .     S
C93    N97     1.344   .     S
C93    N99     1.342   .     D
C93    O105    1.351   .     S
O100   C106    1.360   .     S
O101   C107    1.360   .     S
O102   C108    1.360   .     S
O103   C124    1.360   .     S
O104   C125    1.360   .     S
O105   C126    1.360   .     S
C106   C111    1.411   .     D
C106   C123    1.405   .     S
C107   C109    1.411   .     D
C107   C121    1.405   .     S
C108   C110    1.411   .     D
C108   C122    1.405   .     S
C109   C112    1.409   .     S
C109   H142    1.016   .     S
C110   C113    1.409   .     S
C110   H143    1.016   .     S
C111   C114    1.409   .     S
C111   H144    1.016   .     S
C112   C115    1.415   .     D
C112   H145    1.024   .     S
C113   C116    1.416   .     D
C113   H146    1.024   .     S
C114   C117    1.416   .     D
C114   H147    1.023   .     S
C115   C118    1.416   .     S
C116   C119    1.416   .     S
C117   C120    1.415   .     S
C118   C121    1.409   .     D
C118   H148    1.023   .     S
C119   C122    1.409   .     D
C119   H149    1.023   .     S
C120   C123    1.409   .     D
C120   H150    1.023   .     S
C121   H151    1.021   .     S
C122   H152    1.021   .     S
C123   H153    1.021   .     S
C124   C129    1.411   .     S
C124   C141    1.405   .     D
C125   C127    1.411   .     D
C125   C139    1.405   .     S
C126   C128    1.411   .     D
C126   C140    1.405   .     S
C127   C130    1.409   .     S
C127   H154    1.016   .     S
C128   C131    1.409   .     S
C128   H155    1.016   .     S
C129   C132    1.409   .     D
C129   H156    1.016   .     S
C130   C133    1.416   .     D
C130   H157    1.024   .     S
C131   C134    1.416   .     D
C131   H158    1.024   .     S
C132   C135    1.416   .     S
C132   H159    1.024   .     S
C133   C136    1.416   .     S
C134   C137    1.416   .     S
C135   C138    1.416   .     D
C136   C139    1.409   .     D
C136   H160    1.023   .     S
C137   C140    1.409   .     D
C137   H161    1.023   .     S
C138   C141    1.409   .     S
C138   H162    1.023   .     S
C139   H163    1.021   .     S
C140   H164    1.021   .     S
C141   H165    1.021   .     S
