data_168
_audit_creation_date              2023-09-08
_audit_creation_method            'Materials Studio'
_symmetry_space_group_name_H-M    'P1'
_symmetry_Int_Tables_number       1
_symmetry_cell_setting            triclinic
loop_
_symmetry_equiv_pos_as_xyz
  x,y,z
_cell_length_a                    44.6940
_cell_length_b                    44.4820
_cell_length_c                    4.5380
_cell_angle_alpha                 90.0000
_cell_angle_beta                  90.0000
_cell_angle_gamma                 120.0000
loop_
_atom_site_label
_atom_site_type_symbol
_atom_site_fract_x
_atom_site_fract_y
_atom_site_fract_z
_atom_site_U_iso_or_equiv
_atom_site_adp_type
_atom_site_occupancy
N1     N     0.12781   0.56202   0.35792   0.00000  Uiso   1.00
N2     N     0.87101   0.40935   0.57662   0.00000  Uiso   1.00
C3     C     0.14592   0.59443   0.43636   0.00000  Uiso   1.00
C4     C     0.09107   0.54077   0.39751   0.00000  Uiso   1.00
C5     C     0.06895   0.55476   0.39281   0.00000  Uiso   1.00
C6     C     0.03317   0.53313   0.42267   0.00000  Uiso   1.00
C7     C     0.01867   0.49696   0.45717   0.00000  Uiso   1.00
C8     C     0.04103   0.48317   0.45961   0.00000  Uiso   1.00
C9     C     0.07676   0.50488   0.42725   0.00000  Uiso   1.00
C10    C     0.85339   0.38359   0.75681   0.00000  Uiso   1.00
C11    C     0.90807   0.43023   0.55289   0.00000  Uiso   1.00
C12    C     0.93111   0.42363   0.71334   0.00000  Uiso   1.00
C13    C     0.96690   0.44500   0.67992   0.00000  Uiso   1.00
C14    C     0.98053   0.47378   0.48882   0.00000  Uiso   1.00
C15    C     0.95733   0.48018   0.32837   0.00000  Uiso   1.00
C16    C     0.92160   0.45829   0.35802   0.00000  Uiso   1.00
H17    H     0.13393   0.60682   0.55433   0.00000  Uiso   1.00
H18    H     0.07923   0.58228   0.35976   0.00000  Uiso   1.00
H19    H     0.09361   0.49393   0.42723   0.00000  Uiso   1.00
H20    H     0.01691   0.54479   0.42052   0.00000  Uiso   1.00
H21    H     0.03088   0.45546   0.48174   0.00000  Uiso   1.00
H22    H     0.86615   0.37560   0.91485   0.00000  Uiso   1.00
H23    H     0.92201   0.40217   0.86522   0.00000  Uiso   1.00
H24    H     0.90411   0.46326   0.23020   0.00000  Uiso   1.00
H25    H     0.98399   0.43939   0.80855   0.00000  Uiso   1.00
H26    H     0.96672   0.50212   0.17858   0.00000  Uiso   1.00
C27    C     0.36999   0.69307   0.46292   0.00000  Uiso   1.00
C28    C     0.63690   0.31728   0.44149   0.00000  Uiso   1.00
N29    N     0.35978   0.66525   0.63851   0.00000  Uiso   1.00
N30    N     0.64835   0.35113   0.49396   0.00000  Uiso   1.00
O31    O     0.40531   0.71651   0.43351   0.00000  Uiso   1.00
O32    O     0.60511   0.29791   0.29862   0.00000  Uiso   1.00
C33    C     0.41474   0.74933   0.32090   0.00000  Uiso   1.00
C34    C     0.23579   0.62258   0.13974   0.00000  Uiso   1.00
C35    C     0.20048   0.60178   0.20362   0.00000  Uiso   1.00
C36    C     0.18332   0.61515   0.37320   0.00000  Uiso   1.00
C37    C     0.20221   0.64931   0.48079   0.00000  Uiso   1.00
C38    C     0.23742   0.66991   0.41610   0.00000  Uiso   1.00
C39    C     0.59061   0.26182   0.28896   0.00000  Uiso   1.00
C40    C     0.76043   0.35545   0.55456   0.00000  Uiso   1.00
C41    C     0.79667   0.37383   0.55710   0.00000  Uiso   1.00
C42    C     0.81512   0.36474   0.75325   0.00000  Uiso   1.00
C43    C     0.79666   0.33681   0.94578   0.00000  Uiso   1.00
C44    C     0.76043   0.31858   0.94345   0.00000  Uiso   1.00
H45    H     0.24908   0.61259   0.00704   0.00000  Uiso   1.00
H46    H     0.18644   0.57545   0.11880   0.00000  Uiso   1.00
H47    H     0.18976   0.66001   0.61533   0.00000  Uiso   1.00
H48    H     0.25204   0.69621   0.49843   0.00000  Uiso   1.00
H49    H     0.74696   0.36219   0.39325   0.00000  Uiso   1.00
H50    H     0.81033   0.39470   0.40106   0.00000  Uiso   1.00
H51    H     0.81024   0.32936   1.10028   0.00000  Uiso   1.00
H52    H     0.74632   0.29715   1.09298   0.00000  Uiso   1.00
N53    N     0.42617   0.56097   0.88076   0.00000  Uiso   1.00
N54    N     0.57418   0.45140   0.78141   0.00000  Uiso   1.00
C55    C     0.39271   0.54436   0.90735   0.00000  Uiso   1.00
C56    C     0.44665   0.54440   0.87372   0.00000  Uiso   1.00
C57    C     0.43789   0.51438   1.03925   0.00000  Uiso   1.00
C58    C     0.45836   0.49877   1.02489   0.00000  Uiso   1.00
C59    C     0.48849   0.51355   0.85108   0.00000  Uiso   1.00
C60    C     0.49706   0.54348   0.68555   0.00000  Uiso   1.00
C61    C     0.47639   0.55889   0.69951   0.00000  Uiso   1.00
C62    C     0.60410   0.46525   0.65168   0.00000  Uiso   1.00
C63    C     0.55318   0.46742   0.79778   0.00000  Uiso   1.00
C64    C     0.56790   0.50350   0.83011   0.00000  Uiso   1.00
C65    C     0.54683   0.51841   0.84965   0.00000  Uiso   1.00
C66    C     0.51070   0.49752   0.83778   0.00000  Uiso   1.00
C67    C     0.49606   0.46142   0.80965   0.00000  Uiso   1.00
C68    C     0.51726   0.44655   0.79300   0.00000  Uiso   1.00
H69    H     0.37841   0.51622   0.91098   0.00000  Uiso   1.00
H70    H     0.41609   0.50393   1.18730   0.00000  Uiso   1.00
H71    H     0.48312   0.58189   0.57083   0.00000  Uiso   1.00
H72    H     0.45168   0.47622   1.16020   0.00000  Uiso   1.00
H73    H     0.51930   0.55446   0.54118   0.00000  Uiso   1.00
H74    H     0.61379   0.48951   0.53347   0.00000  Uiso   1.00
H75    H     0.59556   0.51996   0.84704   0.00000  Uiso   1.00
H76    H     0.50585   0.41877   0.76996   0.00000  Uiso   1.00
H77    H     0.55869   0.54620   0.87860   0.00000  Uiso   1.00
H78    H     0.46837   0.44488   0.79513   0.00000  Uiso   1.00
C79    C     0.31252   0.67340   0.33556   0.00000  Uiso   1.00
C80    C     0.68646   0.32262   0.66412   0.00000  Uiso   1.00
N81    N     0.34643   0.69666   0.30520   0.00000  Uiso   1.00
N82    N     0.65573   0.30286   0.53120   0.00000  Uiso   1.00
O83    O     0.28881   0.67829   0.17195   0.00000  Uiso   1.00
O84    O     0.70569   0.30727   0.75044   0.00000  Uiso   1.00
C85    C     0.25424   0.65666   0.24668   0.00000  Uiso   1.00
C86    C     0.36919   0.61516   0.97230   0.00000  Uiso   1.00
C87    C     0.38842   0.59810   0.98233   0.00000  Uiso   1.00
C88    C     0.37312   0.56297   0.90132   0.00000  Uiso   1.00
C89    C     0.33844   0.54523   0.81296   0.00000  Uiso   1.00
C90    C     0.31964   0.56259   0.79693   0.00000  Uiso   1.00
C91    C     0.74193   0.32800   0.75315   0.00000  Uiso   1.00
C92    C     0.63684   0.40310   0.83032   0.00000  Uiso   1.00
C93    C     0.61572   0.41815   0.82332   0.00000  Uiso   1.00
C94    C     0.62533   0.44821   0.65556   0.00000  Uiso   1.00
C95    C     0.65636   0.46292   0.49583   0.00000  Uiso   1.00
C96    C     0.67762   0.44818   0.50696   0.00000  Uiso   1.00
H97    H     0.38095   0.64181   1.04527   0.00000  Uiso   1.00
H98    H     0.41502   0.61202   1.05693   0.00000  Uiso   1.00
H99    H     0.32604   0.51815   0.75094   0.00000  Uiso   1.00
H100   H     0.29301   0.54902   0.72544   0.00000  Uiso   1.00
H101   H     0.62956   0.38032   0.96485   0.00000  Uiso   1.00
H102   H     0.59193   0.40636   0.94977   0.00000  Uiso   1.00
H103   H     0.66439   0.48604   0.36438   0.00000  Uiso   1.00
H104   H     0.70177   0.45986   0.38738   0.00000  Uiso   1.00
N105   N     0.44785   0.87576   0.16763   0.00000  Uiso   1.00
N106   N     0.55394   0.13397   0.13527   0.00000  Uiso   1.00
C107   C     0.45775   0.85553   0.04831   0.00000  Uiso   1.00
C108   C     0.46288   0.91258   0.12496   0.00000  Uiso   1.00
C109   C     0.49456   0.93313  -0.02150   0.00000  Uiso   1.00
C110   C     0.50898   0.96923  -0.03835   0.00000  Uiso   1.00
C111   C     0.49214   0.98549   0.09129   0.00000  Uiso   1.00
C112   C     0.46028   0.96476   0.23384   0.00000  Uiso   1.00
C113   C     0.44600   0.92876   0.25069   0.00000  Uiso   1.00
C114   C     0.53820   0.15056   0.21731   0.00000  Uiso   1.00
C115   C     0.53797   0.09689   0.11227   0.00000  Uiso   1.00
C116   C     0.50238   0.07556   0.05564   0.00000  Uiso   1.00
C117   C     0.48764   0.03945   0.04470   0.00000  Uiso   1.00
C118   C     0.50815   0.02396   0.08738   0.00000  Uiso   1.00
C119   C     0.54394   0.04552   0.13338   0.00000  Uiso   1.00
C120   C     0.55864   0.08161   0.14425   0.00000  Uiso   1.00
H121   H     0.47886   0.86546  -0.10785   0.00000  Uiso   1.00
H122   H     0.50884   0.92185  -0.11701   0.00000  Uiso   1.00
H123   H     0.42199   0.91325   0.36816   0.00000  Uiso   1.00
H124   H     0.53331   0.98447  -0.15301   0.00000  Uiso   1.00
H125   H     0.44693   0.97648   0.34063   0.00000  Uiso   1.00
H126   H     0.51136   0.13639   0.28681   0.00000  Uiso   1.00
H127   H     0.48608   0.08677   0.01636   0.00000  Uiso   1.00
H128   H     0.58611   0.09794   0.18389   0.00000  Uiso   1.00
H129   H     0.46021   0.02359   0.00112   0.00000  Uiso   1.00
H130   H     0.56038   0.03439   0.16881   0.00000  Uiso   1.00
C131   C     0.32586   0.64186   0.66942   0.00000  Uiso   1.00
C132   C     0.67824   0.37048   0.64132   0.00000  Uiso   1.00
N133   N     0.30218   0.64641   0.52325   0.00000  Uiso   1.00
N134   N     0.69745   0.35631   0.72341   0.00000  Uiso   1.00
O135   O     0.31440   0.61323   0.85698   0.00000  Uiso   1.00
O136   O     0.69123   0.40581   0.69331   0.00000  Uiso   1.00
C137   C     0.33496   0.59772   0.86903   0.00000  Uiso   1.00
C138   C     0.40123   0.76954   0.43439   0.00000  Uiso   1.00
C139   C     0.41429   0.80382   0.33945   0.00000  Uiso   1.00
C140   C     0.44140   0.81854   0.13332   0.00000  Uiso   1.00
C141   C     0.45447   0.79809   0.01859   0.00000  Uiso   1.00
C142   C     0.44137   0.76389   0.11434   0.00000  Uiso   1.00
C143   C     0.66789   0.41804   0.66987   0.00000  Uiso   1.00
C144   C     0.60738   0.24580   0.15444   0.00000  Uiso   1.00
C145   C     0.59063   0.20949   0.13110   0.00000  Uiso   1.00
C146   C     0.55668   0.18886   0.23769   0.00000  Uiso   1.00
C147   C     0.53985   0.20510   0.36570   0.00000  Uiso   1.00
C148   C     0.55668   0.24127   0.38844   0.00000  Uiso   1.00
H149   H     0.38166   0.75904   0.60408   0.00000  Uiso   1.00
H150   H     0.40414   0.81931   0.43363   0.00000  Uiso   1.00
H151   H     0.47523   0.80875  -0.14144   0.00000  Uiso   1.00
H152   H     0.45212   0.74853   0.03050   0.00000  Uiso   1.00
H153   H     0.63307   0.26152   0.06461   0.00000  Uiso   1.00
H154   H     0.60377   0.19747   0.02602   0.00000  Uiso   1.00
H155   H     0.51368   0.18979   0.44854   0.00000  Uiso   1.00
H156   H     0.54359   0.25375   0.48544   0.00000  Uiso   1.00
loop_
_geom_bond_atom_site_label_1
_geom_bond_atom_site_label_2
_geom_bond_distance
_geom_bond_site_symmetry_2
_ccdc_geom_bond_type
N1     C3      1.301   .     D
N1     C4      1.439   .     S
N2     C10     1.304   .     D
N2     C11     1.442   .     S
C3     H17     1.083   .     S
C3     C36     1.478   .     S
C4     C5      1.407   .     D
C4     C9      1.398   .     S
C5     C6      1.401   .     S
C5     H18     1.081   .     S
C6     C7      1.410   .     D
C6     H20     1.084   .     S
C7     C8      1.410   .     S
C7     C14     1.494   1_455 S
C8     C9      1.401   .     D
C8     H21     1.084   .     S
C9     H19     1.083   .     S
C10    H22     1.081   .     S
C10    C42     1.481   .     S
C11    C12     1.407   .     D
C11    C16     1.397   .     S
C12    C13     1.402   .     S
C12    H23     1.078   .     S
C13    C14     1.408   .     D
C13    H25     1.085   .     S
C14    C7      1.494   1_655 S
C14    C15     1.408   .     S
C15    C16     1.401   .     D
C15    H26     1.087   .     S
C16    H24     1.082   .     S
C27    N29     1.345   .     D
C27    O31     1.397   .     S
C27    N81     1.347   .     S
C28    N30     1.347   .     D
C28    O32     1.399   .     S
C28    N82     1.351   .     S
N29    C131    1.350   .     S
N30    C132    1.350   .     S
O31    C33     1.398   .     S
O32    C39     1.400   .     S
C33    C138    1.408   .     D
C33    C142    1.394   .     S
C34    C35     1.404   .     S
C34    H45     1.085   .     S
C34    C85     1.401   .     D
C35    C36     1.411   .     D
C35    H46     1.086   .     S
C36    C37     1.406   .     S
C37    C38     1.400   .     D
C37    H47     1.083   .     S
C38    H48     1.082   .     S
C38    C85     1.395   .     S
C39    C144    1.406   .     D
C39    C148    1.398   .     S
C40    C41     1.403   .     S
C40    H49     1.081   .     S
C40    C91     1.406   .     D
C41    C42     1.403   .     D
C41    H50     1.081   .     S
C42    C43     1.401   .     S
C43    C44     1.403   .     D
C43    H51     1.082   .     S
C44    H52     1.080   .     S
C44    C91     1.397   .     S
N53    C55     1.301   .     D
N53    C56     1.434   .     S
N54    C62     1.300   .     D
N54    C63     1.436   .     S
C55    H69     1.084   .     S
C55    C88     1.476   .     S
C56    C57     1.406   .     D
C56    C61     1.397   .     S
C57    C58     1.399   .     S
C57    H70     1.079   .     S
C58    C59     1.408   .     D
C58    H72     1.083   .     S
C59    C60     1.405   .     S
C59    C66     1.485   .     S
C60    C61     1.400   .     D
C60    H73     1.082   .     S
C61    H71     1.082   .     S
C62    H74     1.083   .     S
C62    C94     1.481   .     S
C63    C64     1.405   .     D
C63    C68     1.396   .     S
C64    C65     1.400   .     S
C64    H75     1.079   .     S
C65    C66     1.405   .     D
C65    H77     1.082   .     S
C66    C67     1.404   .     S
C67    C68     1.403   .     D
C67    H78     1.080   .     S
C68    H76     1.081   .     S
C79    N81     1.348   .     D
C79    O83     1.397   .     S
C79    N133    1.351   .     S
C80    N82     1.347   .     D
C80    O84     1.395   .     S
C80    N134    1.350   .     S
O83    C85     1.394   .     S
O84    C91     1.407   .     S
C86    C87     1.403   .     D
C86    H97     1.081   .     S
C86    C137    1.405   .     S
C87    C88     1.405   .     S
C87    H98     1.084   .     S
C88    C89     1.401   .     D
C89    C90     1.398   .     S
C89    H99     1.082   .     S
C90    H100    1.081   .     S
C90    C137    1.396   .     D
C92    C93     1.404   .     D
C92    H101    1.084   .     S
C92    C143    1.405   .     S
C93    C94     1.406   .     S
C93    H102    1.085   .     S
C94    C95     1.404   .     D
C95    C96     1.400   .     S
C95    H103    1.083   .     S
C96    H104    1.081   .     S
C96    C143    1.396   .     D
N105   C107    1.303   .     D
N105   C108    1.439   .     S
N106   C114    1.303   .     D
N106   C115    1.437   .     S
C107   H121    1.082   .     S
C107   C140    1.479   .     S
C108   C109    1.410   .     D
C108   C113    1.398   .     S
C109   C110    1.402   .     S
C109   H122    1.080   .     S
C110   C111    1.407   .     D
C110   H124    1.084   .     S
C111   C112    1.408   .     S
C111   C118    1.489   1_565 S
C112   C113    1.399   .     D
C112   H125    1.083   .     S
C113   H123    1.082   .     S
C114   H126    1.086   .     S
C114   C146    1.479   .     S
C115   C116    1.410   .     D
C115   C120    1.402   .     S
C116   C117    1.399   .     S
C116   H127    1.083   .     S
C117   C118    1.409   .     D
C117   H129    1.084   .     S
C118   C111    1.489   1_545 S
C118   C119    1.410   .     S
C119   C120    1.399   .     D
C119   H130    1.084   .     S
C120   H128    1.084   .     S
C131   N133    1.348   .     D
C131   O135    1.399   .     S
C132   N134    1.347   .     D
C132   O136    1.397   .     S
O135   C137    1.399   .     S
O136   C143    1.401   .     S
C138   C139    1.401   .     S
C138   H149    1.081   .     S
C139   C140    1.407   .     D
C139   H150    1.084   .     S
C140   C141    1.404   .     S
C141   C142    1.398   .     D
C141   H151    1.083   .     S
C142   H152    1.082   .     S
C144   C145    1.404   .     S
C144   H153    1.082   .     S
C145   C146    1.409   .     D
C145   H154    1.083   .     S
C146   C147    1.403   .     S
C147   C148    1.398   .     D
C147   H155    1.085   .     S
C148   H156    1.081   .     S
