data_169
_audit_creation_date              2023-09-08
_audit_creation_method            'Materials Studio'
_symmetry_space_group_name_H-M    'P1'
_symmetry_Int_Tables_number       1
_symmetry_cell_setting            triclinic
loop_
_symmetry_equiv_pos_as_xyz
  x,y,z
_cell_length_a                    34.7109
_cell_length_b                    34.7109
_cell_length_c                    3.4396
_cell_angle_alpha                 90.0000
_cell_angle_beta                  90.0000
_cell_angle_gamma                 120.0000
loop_
_atom_site_label
_atom_site_type_symbol
_atom_site_fract_x
_atom_site_fract_y
_atom_site_fract_z
_atom_site_U_iso_or_equiv
_atom_site_adp_type
_atom_site_occupancy
O1     O     0.30476   0.57877   0.00000   0.00000  Uiso   1.00
N2     N     0.39342   0.59522   0.00000   0.00000  Uiso   1.00
C3     C     0.31801   0.61850   0.00000   0.00000  Uiso   1.00
C4     C     0.39958   0.63964   0.00000   0.00000  Uiso   1.00
C5     C     0.42707   0.58179   0.00000   0.00000  Uiso   1.00
C6     C     0.47432   0.61082   0.00000   0.00000  Uiso   1.00
C7     C     0.50262   0.59276   0.00000   0.00000  Uiso   1.00
C8     C     0.48574   0.54695   0.00000   0.00000  Uiso   1.00
C9     C     0.43978   0.51835   0.00000   0.00000  Uiso   1.00
C10    C     0.41111   0.53554   0.00000   0.00000  Uiso   1.00
C11    C     0.36691   0.65098   0.00000   0.00000  Uiso   1.00
H12    H     0.43279   0.66657   0.00000   0.00000  Uiso   1.00
C13    C     0.49665   0.65866   0.00000   0.00000  Uiso   1.00
H14    H     0.36144   0.56830   0.00000   0.00000  Uiso   1.00
H15    H     0.37570   0.51215   0.00000   0.00000  Uiso   1.00
H16    H     0.53843   0.61458   0.00000   0.00000  Uiso   1.00
H17    H     0.42588   0.48264   0.00000   0.00000  Uiso   1.00
O18    O     0.70496   0.42270   0.00000   0.00000  Uiso   1.00
N19    N     0.62129   0.41740   0.00000   0.00000  Uiso   1.00
C20    C     0.68736   0.38235   0.00000   0.00000  Uiso   1.00
C21    C     0.60924   0.37103   0.00000   0.00000  Uiso   1.00
C22    C     0.58987   0.43328   0.00000   0.00000  Uiso   1.00
C23    C     0.54329   0.40464   0.00000   0.00000  Uiso   1.00
C24    C     0.51462   0.42202   0.00000   0.00000  Uiso   1.00
C25    C     0.53152   0.46794   0.00000   0.00000  Uiso   1.00
C26    C     0.57767   0.49669   0.00000   0.00000  Uiso   1.00
C27    C     0.60644   0.47948   0.00000   0.00000  Uiso   1.00
C28    C     0.63776   0.35448   0.00000   0.00000  Uiso   1.00
H29    H     0.57428   0.34718   0.00000   0.00000  Uiso   1.00
H30    H     0.52808   0.36897   0.00000   0.00000  Uiso   1.00
H31    H     0.65425   0.44254   0.00000   0.00000  Uiso   1.00
H32    H     0.64195   0.50242   0.00000   0.00000  Uiso   1.00
H33    H     0.47900   0.39956   0.00000   0.00000  Uiso   1.00
H34    H     0.59155   0.53239   0.00000   0.00000  Uiso   1.00
N35    N     0.51598   0.53027   0.00000   0.00000  Uiso   1.00
N36    N     0.51547   0.69718   0.00000   0.00000  Uiso   1.00
N37    N     0.50125   0.48459   0.00000   0.00000  Uiso   1.00
O38    O     0.42123   0.72599   0.00000   0.00000  Uiso   1.00
N39    N     0.40478   0.79820   0.00000   0.00000  Uiso   1.00
C40    C     0.38150   0.69951   0.00000   0.00000  Uiso   1.00
C41    C     0.36036   0.75994   0.00000   0.00000  Uiso   1.00
C42    C     0.41821   0.84528   0.00000   0.00000  Uiso   1.00
C43    C     0.38918   0.86350   0.00000   0.00000  Uiso   1.00
C44    C     0.40724   0.90986   0.00000   0.00000  Uiso   1.00
C45    C     0.45305   0.93879   0.00000   0.00000  Uiso   1.00
C46    C     0.48165   0.92143   0.00000   0.00000  Uiso   1.00
C47    C     0.46446   0.87557   0.00000   0.00000  Uiso   1.00
C48    C     0.34902   0.71593   0.00000   0.00000  Uiso   1.00
H49    H     0.33343   0.76622   0.00000   0.00000  Uiso   1.00
C50    C     0.34134   0.83799   0.00000   0.00000  Uiso   1.00
H51    H     0.43170   0.79314   0.00000   0.00000  Uiso   1.00
H52    H     0.48785   0.86355   0.00000   0.00000  Uiso   1.00
H53    H     0.38542   0.92385   0.00000   0.00000  Uiso   1.00
H54    H     0.51736   0.94324   0.00000   0.00000  Uiso   1.00
O55    O     0.57730   0.28226   0.00000   0.00000  Uiso   1.00
N56    N     0.58260   0.20389   0.00000   0.00000  Uiso   1.00
C57    C     0.61765   0.30501   0.00000   0.00000  Uiso   1.00
C58    C     0.62897   0.23821   0.00000   0.00000  Uiso   1.00
C59    C     0.56672   0.15659   0.00000   0.00000  Uiso   1.00
C60    C     0.59536   0.13865   0.00000   0.00000  Uiso   1.00
C61    C     0.57798   0.09260   0.00000   0.00000  Uiso   1.00
C62    C     0.53206   0.06358   0.00000   0.00000  Uiso   1.00
C63    C     0.50331   0.08098   0.00000   0.00000  Uiso   1.00
C64    C     0.52052   0.12696   0.00000   0.00000  Uiso   1.00
C65    C     0.64552   0.28328   0.00000   0.00000  Uiso   1.00
H66    H     0.65282   0.22710   0.00000   0.00000  Uiso   1.00
H67    H     0.63103   0.15911   0.00000   0.00000  Uiso   1.00
H68    H     0.55746   0.21171   0.00000   0.00000  Uiso   1.00
H69    H     0.49758   0.13953   0.00000   0.00000  Uiso   1.00
H70    H     0.60044   0.07944   0.00000   0.00000  Uiso   1.00
H71    H     0.46761   0.05916   0.00000   0.00000  Uiso   1.00
N72    N     0.46973   0.98571   0.00000   0.00000  Uiso   1.00
N73    N     0.30282   0.81829   0.00000   0.00000  Uiso   1.00
N74    N     0.51541   0.01666   0.00000   0.00000  Uiso   1.00
O75    O     0.27401   0.69524   0.00000   0.00000  Uiso   1.00
N76    N     0.20180   0.60658   0.00000   0.00000  Uiso   1.00
C77    C     0.30049   0.68199   0.00000   0.00000  Uiso   1.00
C78    C     0.24006   0.60042   0.00000   0.00000  Uiso   1.00
C79    C     0.15472   0.57293   0.00000   0.00000  Uiso   1.00
C80    C     0.13650   0.52568   0.00000   0.00000  Uiso   1.00
C81    C     0.09014   0.49738   0.00000   0.00000  Uiso   1.00
C82    C     0.06121   0.51426   0.00000   0.00000  Uiso   1.00
C83    C     0.07857   0.56022   0.00000   0.00000  Uiso   1.00
C84    C     0.12443   0.58889   0.00000   0.00000  Uiso   1.00
C85    C     0.28407   0.63309   0.00000   0.00000  Uiso   1.00
H86    H     0.23378   0.56721   0.00000   0.00000  Uiso   1.00
C87    C     0.16201   0.50335   0.00000   0.00000  Uiso   1.00
H88    H     0.20686   0.63856   0.00000   0.00000  Uiso   1.00
H89    H     0.13645   0.62430   0.00000   0.00000  Uiso   1.00
H90    H     0.07615   0.46157   0.00000   0.00000  Uiso   1.00
H91    H     0.05676   0.57412   0.00000   0.00000  Uiso   1.00
O92    O     0.71774   0.29504   0.00000   0.00000  Uiso   1.00
N93    N     0.79611   0.37871   0.00000   0.00000  Uiso   1.00
C94    C     0.69499   0.31264   0.00000   0.00000  Uiso   1.00
C95    C     0.76179   0.39076   0.00000   0.00000  Uiso   1.00
C96    C     0.84341   0.41013   0.00000   0.00000  Uiso   1.00
C97    C     0.86135   0.45671   0.00000   0.00000  Uiso   1.00
C98    C     0.90740   0.48538   0.00000   0.00000  Uiso   1.00
C99    C     0.93642   0.46848   0.00000   0.00000  Uiso   1.00
C100   C     0.91902   0.42233   0.00000   0.00000  Uiso   1.00
C101   C     0.87304   0.39356   0.00000   0.00000  Uiso   1.00
C102   C     0.71672   0.36224   0.00000   0.00000  Uiso   1.00
H103   H     0.77290   0.42572   0.00000   0.00000  Uiso   1.00
H104   H     0.84089   0.47192   0.00000   0.00000  Uiso   1.00
H105   H     0.78829   0.34575   0.00000   0.00000  Uiso   1.00
H106   H     0.86047   0.35805   0.00000   0.00000  Uiso   1.00
H107   H     0.92056   0.52100   0.00000   0.00000  Uiso   1.00
H108   H     0.94084   0.40845   0.00000   0.00000  Uiso   1.00
N109   N     0.01429   0.48402   0.00000   0.00000  Uiso   1.00
N110   N     0.18171   0.48453   0.00000   0.00000  Uiso   1.00
N111   N     0.98334   0.49875   0.00000   0.00000  Uiso   1.00
loop_
_geom_bond_atom_site_label_1
_geom_bond_atom_site_label_2
_geom_bond_distance
_geom_bond_site_symmetry_2
_ccdc_geom_bond_type
O1     C3      1.216   .     D
N2     C4      1.447   .     S
N2     C5      1.458   .     S
N2     H14     1.033   .     S
C3     C11     1.496   .     S
C3     C85     1.497   .     S
C4     C11     1.374   .     D
C4     H12     1.061   .     S
C5     C6      1.433   .     D
C5     C10     1.412   .     S
C6     C7      1.405   .     S
C6     C13     1.439   .     S
C7     C8      1.393   .     D
C7     H16     1.085   .     S
C8     C9      1.395   .     S
C8     N35     1.430   .     S
C9     C10     1.393   .     D
C9     H17     1.082   .     S
C10    H15     1.083   .     S
C11    C40     1.497   .     S
C13    N36     1.158   .     T
O18    C20     1.216   .     D
N19    C21     1.446   .     S
N19    C22     1.447   .     S
N19    H31     1.035   .     S
C20    C28     1.495   .     S
C20    C102    1.496   .     S
C21    C28     1.371   .     D
C21    H29     1.074   .     S
C22    C23     1.412   .     D
C22    C27     1.407   .     S
C23    C24     1.398   .     S
C23    H30     1.076   .     S
C24    C25     1.396   .     D
C24    H33     1.083   .     S
C25    C26     1.401   .     S
C25    N37     1.430   .     S
C26    C27     1.397   .     D
C26    H34     1.082   .     S
C27    H32     1.083   .     S
C28    C57     1.496   .     S
N35    N37     1.402   .     D
O38    C40     1.216   .     D
N39    C41     1.447   .     S
N39    C42     1.458   .     S
N39    H51     1.033   .     S
C40    C48     1.496   .     S
C41    C48     1.374   .     D
C41    H49     1.061   .     S
C42    C43     1.433   .     D
C42    C47     1.412   .     S
C43    C44     1.405   .     S
C43    C50     1.439   .     S
C44    C45     1.393   .     D
C44    H53     1.085   .     S
C45    C46     1.395   .     S
C45    N72     1.430   .     S
C46    C47     1.393   .     D
C46    H54     1.082   .     S
C47    H52     1.083   .     S
C48    C77     1.497   .     S
C50    N73     1.158   .     T
O55    C57     1.216   .     D
N56    C58     1.446   .     S
N56    C59     1.447   .     S
N56    H68     1.035   .     S
C57    C65     1.495   .     S
C58    C65     1.371   .     D
C58    H66     1.074   .     S
C59    C60     1.412   .     D
C59    C64     1.407   .     S
C60    C61     1.398   .     S
C60    H67     1.076   .     S
C61    C62     1.396   .     D
C61    H70     1.083   .     S
C62    C63     1.401   .     S
C62    N74     1.430   .     S
C63    C64     1.397   .     D
C63    H71     1.082   .     S
C64    H69     1.083   .     S
C65    C94     1.496   .     S
N72    N74     1.402   1_565 D
N74    N72     1.402   1_545 D
O75    C77     1.216   .     D
N76    C78     1.447   .     S
N76    C79     1.458   .     S
N76    H88     1.033   .     S
C77    C85     1.496   .     S
C78    C85     1.374   .     D
C78    H86     1.061   .     S
C79    C80     1.433   .     S
C79    C84     1.412   .     D
C80    C81     1.405   .     D
C80    C87     1.439   .     S
C81    C82     1.393   .     S
C81    H90     1.085   .     S
C82    C83     1.395   .     D
C82    N109    1.430   .     S
C83    C84     1.393   .     S
C83    H91     1.082   .     S
C84    H89     1.083   .     S
C87    N110    1.158   .     T
O92    C94     1.216   .     D
N93    C95     1.446   .     S
N93    C96     1.447   .     S
N93    H105    1.035   .     S
C94    C102    1.495   .     S
C95    C102    1.371   .     D
C95    H103    1.074   .     S
C96    C97     1.412   .     S
C96    C101    1.407   .     D
C97    C98     1.398   .     D
C97    H104    1.076   .     S
C98    C99     1.396   .     S
C98    H107    1.083   .     S
C99    C100    1.401   .     D
C99    N111    1.430   .     S
C100   C101    1.397   .     S
C100   H108    1.082   .     S
C101   H106    1.083   .     S
N109   N111    1.402   1_455 D
N111   N109    1.402   1_655 D
