data_170
_audit_creation_date              2023-09-08
_audit_creation_method            'Materials Studio'
_symmetry_space_group_name_H-M    'P1'
_symmetry_Int_Tables_number       1
_symmetry_cell_setting            triclinic
loop_
_symmetry_equiv_pos_as_xyz
  x,y,z
_cell_length_a                    31.8578
_cell_length_b                    31.8578
_cell_length_c                    3.6000
_cell_angle_alpha                 90.0000
_cell_angle_beta                  90.0000
_cell_angle_gamma                 60.0000
loop_
_atom_site_label
_atom_site_type_symbol
_atom_site_fract_x
_atom_site_fract_y
_atom_site_fract_z
_atom_site_U_iso_or_equiv
_atom_site_adp_type
_atom_site_occupancy
N1     N     0.61594   0.58442   1.38889   0.00000  Uiso   1.00
C2     C     0.60501   0.63032   1.38889   0.00000  Uiso   1.00
C3     C     0.58413   0.56936   1.38889   0.00000  Uiso   1.00
C4     C     0.53788   0.59853   1.38889   0.00000  Uiso   1.00
C5     C     0.50861   0.58194   1.38889   0.00000  Uiso   1.00
C6     C     0.52468   0.53632   1.38889   0.00000  Uiso   1.00
C7     C     0.57058   0.50708   1.38889   0.00000  Uiso   1.00
C8     C     0.59993   0.52351   1.38889   0.00000  Uiso   1.00
H9     H     0.57032   0.65511   1.38889   0.00000  Uiso   1.00
H10    H     0.52354   0.63398   1.38889   0.00000  Uiso   1.00
H11    H     0.64881   0.55916   1.38889   0.00000  Uiso   1.00
H12    H     0.63524   0.50035   1.38889   0.00000  Uiso   1.00
H13    H     0.47319   0.60458   1.38889   0.00000  Uiso   1.00
H14    H     0.58345   0.47167   1.38889   0.00000  Uiso   1.00
N15    N     0.38406   0.41558   1.38889   0.00000  Uiso   1.00
C16    C     0.39499   0.36968   1.38889   0.00000  Uiso   1.00
C17    C     0.41587   0.43064   1.38889   0.00000  Uiso   1.00
C18    C     0.46212   0.40147   1.38889   0.00000  Uiso   1.00
C19    C     0.49139   0.41806   1.38889   0.00000  Uiso   1.00
C20    C     0.47532   0.46368   1.38889   0.00000  Uiso   1.00
C21    C     0.42942   0.49292   1.38889   0.00000  Uiso   1.00
C22    C     0.40007   0.47650   1.38889   0.00000  Uiso   1.00
H23    H     0.42968   0.34490   1.38889   0.00000  Uiso   1.00
H24    H     0.47646   0.36602   1.38889   0.00000  Uiso   1.00
H25    H     0.35119   0.44084   1.38889   0.00000  Uiso   1.00
H26    H     0.36476   0.49965   1.38889   0.00000  Uiso   1.00
H27    H     0.52681   0.39543   1.38889   0.00000  Uiso   1.00
H28    H     0.41656   0.52834   1.38889   0.00000  Uiso   1.00
N29    N     0.49376   0.52059   1.38889   0.00000  Uiso   1.00
N30    N     0.50624   0.47942   1.38889   0.00000  Uiso   1.00
N31    N     0.79964   0.61594   1.38889   0.00000  Uiso   1.00
C32    C     0.76467   0.60501   1.38889   0.00000  Uiso   1.00
C33    C     0.84651   0.58413   1.38889   0.00000  Uiso   1.00
C34    C     0.86359   0.53788   1.38889   0.00000  Uiso   1.00
C35    C     0.90945   0.50861   1.38889   0.00000  Uiso   1.00
C36    C     0.93901   0.52468   1.38889   0.00000  Uiso   1.00
C37    C     0.92234   0.57058   1.38889   0.00000  Uiso   1.00
C38    C     0.87656   0.59993   1.38889   0.00000  Uiso   1.00
H39    H     0.77458   0.57032   1.38889   0.00000  Uiso   1.00
H40    H     0.84248   0.52354   1.38889   0.00000  Uiso   1.00
H41    H     0.79203   0.64881   1.38889   0.00000  Uiso   1.00
H42    H     0.86441   0.63524   1.38889   0.00000  Uiso   1.00
H43    H     0.92223   0.47320   1.38889   0.00000  Uiso   1.00
H44    H     0.94489   0.58345   1.38889   0.00000  Uiso   1.00
N45    N     0.20036   0.38406   1.38889   0.00000  Uiso   1.00
C46    C     0.23533   0.39499   1.38889   0.00000  Uiso   1.00
C47    C     0.15349   0.41587   1.38889   0.00000  Uiso   1.00
C48    C     0.13641   0.46212   1.38889   0.00000  Uiso   1.00
C49    C     0.09055   0.49139   1.38889   0.00000  Uiso   1.00
C50    C     0.06100   0.47532   1.38889   0.00000  Uiso   1.00
C51    C     0.07766   0.42942   1.38889   0.00000  Uiso   1.00
C52    C     0.12344   0.40007   1.38889   0.00000  Uiso   1.00
H53    H     0.22542   0.42968   1.38889   0.00000  Uiso   1.00
H54    H     0.15752   0.47646   1.38889   0.00000  Uiso   1.00
H55    H     0.20797   0.35119   1.38889   0.00000  Uiso   1.00
H56    H     0.13559   0.36476   1.38889   0.00000  Uiso   1.00
H57    H     0.07777   0.52681   1.38889   0.00000  Uiso   1.00
H58    H     0.05511   0.41656   1.38889   0.00000  Uiso   1.00
N59    N     0.98565   0.49377   1.38889   0.00000  Uiso   1.00
N60    N     0.01435   0.50624   1.38889   0.00000  Uiso   1.00
N61    N     0.58442   0.79964   1.38889   0.00000  Uiso   1.00
C62    C     0.63032   0.76467   1.38889   0.00000  Uiso   1.00
C63    C     0.56936   0.84651   1.38889   0.00000  Uiso   1.00
C64    C     0.59853   0.86359   1.38889   0.00000  Uiso   1.00
C65    C     0.58194   0.90945   1.38889   0.00000  Uiso   1.00
C66    C     0.53632   0.93901   1.38889   0.00000  Uiso   1.00
C67    C     0.50708   0.92234   1.38889   0.00000  Uiso   1.00
C68    C     0.52351   0.87656   1.38889   0.00000  Uiso   1.00
H69    H     0.65511   0.77458   1.38889   0.00000  Uiso   1.00
H70    H     0.63398   0.84248   1.38889   0.00000  Uiso   1.00
H71    H     0.55916   0.79203   1.38889   0.00000  Uiso   1.00
H72    H     0.50035   0.86441   1.38889   0.00000  Uiso   1.00
H73    H     0.60458   0.92223   1.38889   0.00000  Uiso   1.00
H74    H     0.47167   0.94489   1.38889   0.00000  Uiso   1.00
N75    N     0.41558   0.20036   1.38889   0.00000  Uiso   1.00
C76    C     0.36968   0.23533   1.38889   0.00000  Uiso   1.00
C77    C     0.43064   0.15349   1.38889   0.00000  Uiso   1.00
C78    C     0.40147   0.13641   1.38889   0.00000  Uiso   1.00
C79    C     0.41806   0.09056   1.38889   0.00000  Uiso   1.00
C80    C     0.46368   0.06100   1.38889   0.00000  Uiso   1.00
C81    C     0.49292   0.07766   1.38889   0.00000  Uiso   1.00
C82    C     0.47650   0.12344   1.38889   0.00000  Uiso   1.00
H83    H     0.34490   0.22542   1.38889   0.00000  Uiso   1.00
H84    H     0.36602   0.15752   1.38889   0.00000  Uiso   1.00
H85    H     0.44084   0.20797   1.38889   0.00000  Uiso   1.00
H86    H     0.49965   0.13559   1.38889   0.00000  Uiso   1.00
H87    H     0.39543   0.07777   1.38889   0.00000  Uiso   1.00
H88    H     0.52834   0.05511   1.38889   0.00000  Uiso   1.00
N89    N     0.52059   0.98565   1.38889   0.00000  Uiso   1.00
N90    N     0.47942   0.01435   1.38889   0.00000  Uiso   1.00
C91    C     0.68674   0.61626   1.38889   0.00000  Uiso   1.00
C92    C     0.63561   0.64614   1.38889   0.00000  Uiso   1.00
O93    O     0.70404   0.57461   1.38889   0.00000  Uiso   1.00
C94    C     0.61626   0.69700   1.38889   0.00000  Uiso   1.00
C95    C     0.64614   0.71825   1.38889   0.00000  Uiso   1.00
O96    O     0.57461   0.72135   1.38889   0.00000  Uiso   1.00
C97    C     0.69700   0.68674   1.38889   0.00000  Uiso   1.00
C98    C     0.71825   0.63561   1.38889   0.00000  Uiso   1.00
O99    O     0.72135   0.70404   1.38889   0.00000  Uiso   1.00
C100   C     0.31326   0.38374   1.38889   0.00000  Uiso   1.00
C101   C     0.36439   0.35386   1.38889   0.00000  Uiso   1.00
O102   O     0.29596   0.42539   1.38889   0.00000  Uiso   1.00
C103   C     0.38374   0.30301   1.38889   0.00000  Uiso   1.00
C104   C     0.35386   0.28175   1.38889   0.00000  Uiso   1.00
O105   O     0.42539   0.27865   1.38889   0.00000  Uiso   1.00
C106   C     0.30301   0.31326   1.38889   0.00000  Uiso   1.00
C107   C     0.28175   0.36439   1.38889   0.00000  Uiso   1.00
O108   O     0.27865   0.29596   1.38889   0.00000  Uiso   1.00
loop_
_geom_bond_atom_site_label_1
_geom_bond_atom_site_label_2
_geom_bond_distance
_geom_bond_site_symmetry_2
_ccdc_geom_bond_type
N1     C2      1.323   .     S
N1     C3      1.320   .     S
N1     H11     0.950   .     S
C2     H9      0.986   .     S
C2     C92     1.302   .     D
C3     C4      1.291   .     D
C3     C8      1.285   .     S
C4     C5      1.281   .     S
C4     H10     0.984   .     S
C5     C6      1.277   .     D
C5     H13     0.990   .     S
C6     C7      1.282   .     S
C6     N29     1.309   .     S
C7     C8      1.280   .     D
C7     H14     0.989   .     S
C8     H12     0.990   .     S
N15    C16     1.323   .     S
N15    C17     1.320   .     S
N15    H25     0.950   .     S
C16    H23     0.986   .     S
C16    C101    1.302   .     D
C17    C18     1.291   .     D
C17    C22     1.285   .     S
C18    C19     1.281   .     S
C18    H24     0.984   .     S
C19    C20     1.277   .     D
C19    H27     0.990   .     S
C20    C21     1.282   .     S
C20    N30     1.309   .     S
C21    C22     1.280   .     D
C21    H28     0.989   .     S
C22    H26     0.990   .     S
N29    N30     1.165   .     D
N31    C32     1.323   .     S
N31    C33     1.320   .     S
N31    H41     0.950   .     S
C32    H39     0.986   .     S
C32    C98     1.302   .     D
C33    C34     1.291   .     D
C33    C38     1.285   .     S
C34    C35     1.281   .     S
C34    H40     0.984   .     S
C35    C36     1.277   .     D
C35    H43     0.990   .     S
C36    C37     1.282   .     S
C36    N59     1.309   .     S
C37    C38     1.280   .     D
C37    H44     0.989   .     S
C38    H42     0.990   .     S
N45    C46     1.323   .     S
N45    C47     1.320   .     S
N45    H55     0.950   .     S
C46    H53     0.986   .     S
C46    C107    1.302   .     D
C47    C48     1.291   .     D
C47    C52     1.285   .     S
C48    C49     1.281   .     S
C48    H54     0.984   .     S
C49    C50     1.277   .     D
C49    H57     0.990   .     S
C50    C51     1.282   .     S
C50    N60     1.309   .     S
C51    C52     1.280   .     D
C51    H58     0.989   .     S
C52    H56     0.990   .     S
N59    N60     1.165   1_655 D
N60    N59     1.165   1_455 D
N61    C62     1.323   .     S
N61    C63     1.320   .     S
N61    H71     0.950   .     S
C62    H69     0.986   .     S
C62    C95     1.302   .     D
C63    C64     1.291   .     D
C63    C68     1.285   .     S
C64    C65     1.281   .     S
C64    H70     0.984   .     S
C65    C66     1.277   .     D
C65    H73     0.990   .     S
C66    C67     1.282   .     S
C66    N89     1.309   .     S
C67    C68     1.280   .     D
C67    H74     0.989   .     S
C68    H72     0.990   .     S
N75    C76     1.323   .     S
N75    C77     1.320   .     S
N75    H85     0.950   .     S
C76    H83     0.986   .     S
C76    C104    1.302   .     D
C77    C78     1.291   .     D
C77    C82     1.285   .     S
C78    C79     1.281   .     S
C78    H84     0.984   .     S
C79    C80     1.277   .     D
C79    H87     0.990   .     S
C80    C81     1.282   .     S
C80    N90     1.309   .     S
C81    C82     1.280   .     D
C81    H88     0.989   .     S
C82    H86     0.990   .     S
N89    N90     1.165   1_565 D
N90    N89     1.165   1_545 D
C91    C92     1.417   .     S
C91    O93     1.155   .     D
C91    C98     1.416   .     S
C92    C94     1.416   .     S
C94    C95     1.417   .     S
C94    O96     1.155   .     D
C95    C97     1.416   .     S
C97    C98     1.417   .     S
C97    O99     1.155   .     D
C100   C101    1.417   .     S
C100   O102    1.155   .     D
C100   C107    1.416   .     S
C101   C103    1.416   .     S
C103   C104    1.417   .     S
C103   O105    1.155   .     D
C104   C106    1.416   .     S
C106   C107    1.417   .     S
C106   O108    1.155   .     D
