data_171
_audit_creation_date              2023-09-08
_audit_creation_method            'Materials Studio'
_symmetry_space_group_name_H-M    'P1'
_symmetry_Int_Tables_number       1
_symmetry_cell_setting            triclinic
loop_
_symmetry_equiv_pos_as_xyz
  x,y,z
_cell_length_a                    55.2900
_cell_length_b                    55.2900
_cell_length_c                    4.5000
_cell_angle_alpha                 90.0000
_cell_angle_beta                  90.0000
_cell_angle_gamma                 120.0000
loop_
_atom_site_label
_atom_site_type_symbol
_atom_site_fract_x
_atom_site_fract_y
_atom_site_fract_z
_atom_site_U_iso_or_equiv
_atom_site_adp_type
_atom_site_occupancy
C1     C     1.50698   0.47975   0.55579   0.00000  Uiso   1.00
C2     C     1.53072   0.50462   0.63838   0.00000  Uiso   1.00
C3     C     1.53143   0.53156   0.73716   0.00000  Uiso   1.00
C4     C     1.55939   0.50778   0.61050   0.00000  Uiso   1.00
C5     C     1.50794   0.45373   0.46235   0.00000  Uiso   1.00
C6     C     1.47793   0.47610   0.52650   0.00000  Uiso   1.00
C7     C     1.55671   0.55742   0.73353   0.00000  Uiso   1.00
C8     C     1.55766   0.58216   0.80718   0.00000  Uiso   1.00
C9     C     1.53357   0.58269   0.89093   0.00000  Uiso   1.00
C10    C     1.50874   0.55695   0.91562   0.00000  Uiso   1.00
C11    C     1.35527   0.85325   0.31858   0.00000  Uiso   1.00
N12    N     1.63729   0.09397   0.54366   0.00000  Uiso   1.00
N13    N     1.91934   0.37937   0.22017   0.00000  Uiso   1.00
C14    C     1.91746   0.35520   0.25039   0.00000  Uiso   1.00
C15    C     1.89037   0.33016   0.22324   0.00000  Uiso   1.00
C16    C     1.64237   0.11841   0.45561   0.00000  Uiso   1.00
C17    C     1.67089   0.14126   0.43549   0.00000  Uiso   1.00
C18    C     1.69423   0.13982   0.53655   0.00000  Uiso   1.00
C19    C     1.72092   0.16197   0.50779   0.00000  Uiso   1.00
C20    C     1.72630   0.18743   0.37086   0.00000  Uiso   1.00
C21    C     1.50790   0.53215   0.84604   0.00000  Uiso   1.00
C22    C     1.56977   0.49672   0.82260   0.00000  Uiso   1.00
C23    C     1.59603   0.49977   0.79239   0.00000  Uiso   1.00
C24    C     1.61425   0.51632   0.56665   0.00000  Uiso   1.00
C25    C     1.60478   0.52960   0.37056   0.00000  Uiso   1.00
C26    C     1.57772   0.52484   0.38693   0.00000  Uiso   1.00
C27    C     1.47352   0.49674   0.39939   0.00000  Uiso   1.00
C28    C     1.44695   0.49283   0.36446   0.00000  Uiso   1.00
C29    C     1.42324   0.46787   0.45109   0.00000  Uiso   1.00
C30    C     1.42751   0.44683   0.57145   0.00000  Uiso   1.00
C31    C     1.45412   0.45070   0.60613   0.00000  Uiso   1.00
C32    C     1.52236   0.44318   0.62294   0.00000  Uiso   1.00
C33    C     1.52206   0.41903   0.53924   0.00000  Uiso   1.00
C34    C     1.50606   0.40292   0.29808   0.00000  Uiso   1.00
C35    C     1.48984   0.41222   0.14992   0.00000  Uiso   1.00
C36    C     1.49116   0.43718   0.22587   0.00000  Uiso   1.00
N37    N     1.53482   0.60829   0.94285   0.00000  Uiso   1.00
N38    N     1.64072   0.51882   0.54809   0.00000  Uiso   1.00
N39    N     1.50517   0.37786   0.21782   0.00000  Uiso   1.00
N40    N     1.39669   0.46507   0.41461   0.00000  Uiso   1.00
C41    C     1.66118   0.53378   0.36926   0.00000  Uiso   1.00
C42    C     1.37353   0.44733   0.54300   0.00000  Uiso   1.00
C43    C     1.68530   0.53002   0.37086   0.00000  Uiso   1.00
C44    C     1.34871   0.44945   0.49487   0.00000  Uiso   1.00
C45    C     1.68751   0.51085   0.55891   0.00000  Uiso   1.00
C46    C     1.71032   0.50724   0.55234   0.00000  Uiso   1.00
C47    C     1.73287   0.52264   0.35253   0.00000  Uiso   1.00
C48    C     1.73074   0.54242   0.16742   0.00000  Uiso   1.00
C49    C     1.70775   0.54575   0.17740   0.00000  Uiso   1.00
C50    C     1.34738   0.46809   0.29097   0.00000  Uiso   1.00
C51    C     1.32369   0.47001   0.25774   0.00000  Uiso   1.00
C52    C     1.29944   0.45366   0.43312   0.00000  Uiso   1.00
C53    C     1.30060   0.43407   0.63034   0.00000  Uiso   1.00
C54    C     1.32442   0.43233   0.65935   0.00000  Uiso   1.00
C55    C     1.75625   0.51792   0.33404   0.00000  Uiso   1.00
C56    C     1.70248   0.18888   0.27593   0.00000  Uiso   1.00
C57    C     1.67595   0.16656   0.30717   0.00000  Uiso   1.00
C58    C     1.86662   0.33016   0.11038   0.00000  Uiso   1.00
C59    C     1.84105   0.30617   0.09715   0.00000  Uiso   1.00
C60    C     1.83720   0.28019   0.20404   0.00000  Uiso   1.00
C61    C     1.86160   0.28016   0.30479   0.00000  Uiso   1.00
C62    C     1.88705   0.30434   0.31475   0.00000  Uiso   1.00
C63    C     1.16841   0.66121   0.69640   0.00000  Uiso   1.00
C64    C     1.19220   0.68552   0.62350   0.00000  Uiso   1.00
C65    C     1.19650   0.71201   0.71490   0.00000  Uiso   1.00
C66    C     1.17565   0.71156   0.90466   0.00000  Uiso   1.00
C67    C     1.15197   0.68694   0.97824   0.00000  Uiso   1.00
C68    C     1.33692   0.85591   0.51512   0.00000  Uiso   1.00
C69    C     1.30919   0.83588   0.53491   0.00000  Uiso   1.00
C70    C     1.29774   0.81094   0.36375   0.00000  Uiso   1.00
C71    C     1.31613   0.80932   0.15352   0.00000  Uiso   1.00
C72    C     1.34383   0.82945   0.13665   0.00000  Uiso   1.00
C73    C     1.22040   0.73766   0.60972   0.00000  Uiso   1.00
C74    C     1.27035   0.78711   0.42688   0.00000  Uiso   1.00
C75    C     1.75437   0.21028   0.32321   0.00000  Uiso   1.00
C76    C     1.80971   0.25594   0.23304   0.00000  Uiso   1.00
C77    C     1.77742   0.21307   0.49284   0.00000  Uiso   1.00
C78    C     1.80385   0.23482   0.44934   0.00000  Uiso   1.00
C79    C     1.78673   0.25288   0.06036   0.00000  Uiso   1.00
C80    C     1.76031   0.23114   0.10372   0.00000  Uiso   1.00
C81    C     1.23759   0.73732   0.37628   0.00000  Uiso   1.00
C82    C     1.26136   0.76077   0.29025   0.00000  Uiso   1.00
C83    C     1.25232   0.78781   0.64892   0.00000  Uiso   1.00
C84    C     1.22857   0.76424   0.73714   0.00000  Uiso   1.00
H85    H     1.57687   0.55967   0.67043   0.00000  Uiso   1.00
H86    H     1.57768   0.60181   0.78986   0.00000  Uiso   1.00
H87    H     1.48943   0.55622   0.98894   0.00000  Uiso   1.00
H88    H     1.48782   0.51306   0.87841   0.00000  Uiso   1.00
H89    H     1.55747   0.48563   1.01928   0.00000  Uiso   1.00
H90    H     1.60285   0.48956   0.95494   0.00000  Uiso   1.00
C91    C     1.27603   0.45849   0.43308   0.00000  Uiso   1.00
C92    C     1.27916   0.48473   0.34566   0.00000  Uiso   1.00
C93    C     1.25808   0.49056   0.38024   0.00000  Uiso   1.00
C94    C     1.23176   0.47062   0.50315   0.00000  Uiso   1.00
C95    C     1.22830   0.44405   0.58043   0.00000  Uiso   1.00
C96    C     1.24937   0.43821   0.54485   0.00000  Uiso   1.00
C97    C     1.20966   0.47698   0.54792   0.00000  Uiso   1.00
C98    C     1.75393   0.49220   0.42794   0.00000  Uiso   1.00
C99    C     1.77609   0.48784   0.41484   0.00000  Uiso   1.00
C100   C     1.80270   0.50883   0.30859   0.00000  Uiso   1.00
C101   C     1.80487   0.53434   0.20858   0.00000  Uiso   1.00
C102   C     1.78270   0.53872   0.22185   0.00000  Uiso   1.00
C103   C     1.82664   0.50497   0.31662   0.00000  Uiso   1.00
C104   C     1.51612   0.61359   0.83876   0.00000  Uiso   1.00
C105   C     1.52067   0.64172   0.85472   0.00000  Uiso   1.00
C106   C     1.52373   0.37155   0.30458   0.00000  Uiso   1.00
C107   C     1.51781   0.34296   0.29073   0.00000  Uiso   1.00
C108   C     1.54283   0.66370   1.01167   0.00000  Uiso   1.00
C109   C     1.54665   0.69024   1.01289   0.00000  Uiso   1.00
C110   C     1.52814   0.69657   0.85386   0.00000  Uiso   1.00
C111   C     1.50530   0.67395   0.70173   0.00000  Uiso   1.00
C112   C     1.50205   0.64769   0.70270   0.00000  Uiso   1.00
C113   C     1.49709   0.32214   0.10991   0.00000  Uiso   1.00
C114   C     1.49215   0.29519   0.11187   0.00000  Uiso   1.00
C115   C     1.50735   0.28697   0.30249   0.00000  Uiso   1.00
C116   C     1.52870   0.30840   0.47930   0.00000  Uiso   1.00
C117   C     1.53365   0.33530   0.47089   0.00000  Uiso   1.00
C118   C     1.53293   0.72441   0.82745   0.00000  Uiso   1.00
C119   C     1.50054   0.25820   0.32999   0.00000  Uiso   1.00
C120   C     1.47371   0.23559   0.25041   0.00000  Uiso   1.00
C121   C     1.46682   0.20847   0.29538   0.00000  Uiso   1.00
C122   C     1.48616   0.20146   0.42212   0.00000  Uiso   1.00
C123   C     1.51309   0.22408   0.49831   0.00000  Uiso   1.00
C124   C     1.51999   0.25114   0.45233   0.00000  Uiso   1.00
C125   C     1.56032   0.74773   0.77685   0.00000  Uiso   1.00
H126   H     1.61840   0.54327   0.19314   0.00000  Uiso   1.00
H127   H     1.57104   0.53516   0.22426   0.00000  Uiso   1.00
H128   H     1.49130   0.51688   0.33524   0.00000  Uiso   1.00
H129   H     1.44458   0.50981   0.26864   0.00000  Uiso   1.00
H130   H     1.40965   0.42672   0.63908   0.00000  Uiso   1.00
H131   H     1.45588   0.43316   0.69508   0.00000  Uiso   1.00
H132   H     1.53290   0.45204   0.83209   0.00000  Uiso   1.00
H133   H     1.53400   0.41225   0.67699   0.00000  Uiso   1.00
H134   H     1.47622   0.39987  -0.03460   0.00000  Uiso   1.00
H135   H     1.47834   0.44360   0.09971   0.00000  Uiso   1.00
H136   H     1.66082   0.54843   0.20619   0.00000  Uiso   1.00
H137   H     1.37186   0.43129   0.70001   0.00000  Uiso   1.00
H138   H     1.67084   0.49820   0.71831   0.00000  Uiso   1.00
H139   H     1.71089   0.49217   0.70742   0.00000  Uiso   1.00
H140   H     1.74712   0.55458   0.00350   0.00000  Uiso   1.00
H141   H     1.70707   0.56088   0.02413   0.00000  Uiso   1.00
H142   H     1.36553   0.48171   0.15209   0.00000  Uiso   1.00
H143   H     1.32408   0.48512   0.09618   0.00000  Uiso   1.00
H144   H     1.28298   0.42129   0.77912   0.00000  Uiso   1.00
H145   H     1.32429   0.41751   0.82327   0.00000  Uiso   1.00
H146   H     1.29936   0.50135   0.26170   0.00000  Uiso   1.00
H147   H     1.26199   0.51143   0.31769   0.00000  Uiso   1.00
H148   H     1.20828   0.42768   0.67071   0.00000  Uiso   1.00
H149   H     1.24559   0.41750   0.61264   0.00000  Uiso   1.00
H150   H     1.73392   0.47524   0.51186   0.00000  Uiso   1.00
H151   H     1.77315   0.46766   0.49131   0.00000  Uiso   1.00
H152   H     1.82497   0.55138   0.12804   0.00000  Uiso   1.00
H153   H     1.78571   0.55901   0.14888   0.00000  Uiso   1.00
H154   H     1.49755   0.59811   0.71593   0.00000  Uiso   1.00
H155   H     1.54307   0.38631   0.42102   0.00000  Uiso   1.00
H156   H     1.55776   0.65998   1.13671   0.00000  Uiso   1.00
H157   H     1.56435   0.70690   1.13564   0.00000  Uiso   1.00
H158   H     1.49097   0.67795   0.56897   0.00000  Uiso   1.00
H159   H     1.48461   0.63131   0.57452   0.00000  Uiso   1.00
H160   H     1.48450   0.32722  -0.03940   0.00000  Uiso   1.00
C161   C     1.56412   0.77341   0.70606   0.00000  Uiso   1.00
C162   C     1.54103   0.77825   0.69215   0.00000  Uiso   1.00
C163   C     1.51382   0.75516   0.75287   0.00000  Uiso   1.00
C164   C     1.50997   0.72943   0.81817   0.00000  Uiso   1.00
C165   C     1.47966   0.17288   0.45744   0.00000  Uiso   1.00
C166   C     1.54469   0.80515   0.62294   0.00000  Uiso   1.00
C167   C     1.20784   0.49769   0.37651   0.00000  Uiso   1.00
C168   C     1.18561   0.50210   0.40576   0.00000  Uiso   1.00
C169   C     1.16377   0.48679   0.60777   0.00000  Uiso   1.00
C170   C     1.16587   0.46694   0.78505   0.00000  Uiso   1.00
C171   C     1.18790   0.46217   0.75845   0.00000  Uiso   1.00
C172   C     1.56460   0.82335   0.40898   0.00000  Uiso   1.00
C173   C     1.56720   0.84883   0.34353   0.00000  Uiso   1.00
C174   C     1.55073   0.85827   0.48506   0.00000  Uiso   1.00
C175   C     1.53115   0.84041   0.69688   0.00000  Uiso   1.00
C176   C     1.52800   0.81483   0.76432   0.00000  Uiso   1.00
C177   C     1.45995   0.15106   0.27074   0.00000  Uiso   1.00
C178   C     1.45774   0.12517   0.26909   0.00000  Uiso   1.00
C179   C     1.47433   0.11885   0.45434   0.00000  Uiso   1.00
C180   C     1.49266   0.13980   0.65150   0.00000  Uiso   1.00
C181   C     1.49501   0.16572   0.65758   0.00000  Uiso   1.00
C182   C     1.82826   0.48610   0.52063   0.00000  Uiso   1.00
C183   C     1.85183   0.48386   0.54154   0.00000  Uiso   1.00
C184   C     1.87537   0.49981   0.36230   0.00000  Uiso   1.00
C185   C     1.87380   0.51812   0.15595   0.00000  Uiso   1.00
C186   C     1.85042   0.52070   0.13230   0.00000  Uiso   1.00
C187   C     1.14049   0.49189   0.62022   0.00000  Uiso   1.00
C188   C     1.55395   0.88531   0.41397   0.00000  Uiso   1.00
C189   C     1.47214   0.09169   0.43349   0.00000  Uiso   1.00
C190   C     1.89975   0.49683   0.40112   0.00000  Uiso   1.00
N191   N     1.12011   0.47805   0.80474   0.00000  Uiso   1.00
N192   N     1.48969   0.08713   0.57914   0.00000  Uiso   1.00
N193   N     1.53875   0.89314   0.55776   0.00000  Uiso   1.00
C194   C     1.53757   0.91784   0.54505   0.00000  Uiso   1.00
C195   C     1.09479   0.47754   0.75810   0.00000  Uiso   1.00
H196   H     1.47587   0.27986  -0.03600   0.00000  Uiso   1.00
H197   H     1.54074   0.30348   0.63811   0.00000  Uiso   1.00
H198   H     1.54994   0.35069   0.61868   0.00000  Uiso   1.00
H199   H     1.45775   0.23978   0.15843   0.00000  Uiso   1.00
H200   H     1.44581   0.19182   0.23219   0.00000  Uiso   1.00
H201   H     1.52912   0.21993   0.58936   0.00000  Uiso   1.00
H202   H     1.54110   0.26763   0.51429   0.00000  Uiso   1.00
H203   H     1.57835   0.74442   0.77765   0.00000  Uiso   1.00
H204   H     1.58532   0.79080   0.66294   0.00000  Uiso   1.00
H205   H     1.49559   0.75811   0.74157   0.00000  Uiso   1.00
H206   H     1.48869   0.71197   0.85599   0.00000  Uiso   1.00
H207   H     1.22361   0.50955   0.20571   0.00000  Uiso   1.00
H208   H     1.18500   0.51777   0.26017   0.00000  Uiso   1.00
H209   H     1.14965   0.45458   0.94991   0.00000  Uiso   1.00
H210   H     1.18840   0.44646   0.90400   0.00000  Uiso   1.00
H211   H     1.57747   0.81653   0.28866   0.00000  Uiso   1.00
H212   H     1.58249   0.86181   0.17335   0.00000  Uiso   1.00
H213   H     1.51780   0.84665   0.81661   0.00000  Uiso   1.00
H214   H     1.51275   0.80188   0.93513   0.00000  Uiso   1.00
H215   H     1.44789   0.15535   0.10610   0.00000  Uiso   1.00
H216   H     1.44315   0.10957   0.11003   0.00000  Uiso   1.00
H217   H     1.50568   0.13586   0.80672   0.00000  Uiso   1.00
H218   H     1.50995   0.18133   0.81408   0.00000  Uiso   1.00
H219   H     1.81102   0.47392   0.67591   0.00000  Uiso   1.00
H220   H     1.85202   0.46943   0.70860   0.00000  Uiso   1.00
H221   H     1.89149   0.53093   0.00791   0.00000  Uiso   1.00
H222   H     1.85034   0.53521  -0.03430   0.00000  Uiso   1.00
H223   H     1.14000   0.50591   0.44931   0.00000  Uiso   1.00
H224   H     1.56927   0.89810   0.24287   0.00000  Uiso   1.00
H225   H     1.45644   0.07654   0.27914   0.00000  Uiso   1.00
H226   H     1.89933   0.48360   0.58648   0.00000  Uiso   1.00
H227   H     1.10078   0.50809   1.09641   0.00000  Uiso   1.00
H228   H     1.05703   0.50721   0.98896   0.00000  Uiso   1.00
H229   H     1.03936   0.44563   0.29952   0.00000  Uiso   1.00
H230   H     1.08106   0.44586   0.41514   0.00000  Uiso   1.00
C231   C     1.49318   0.06370   0.56119   0.00000  Uiso   1.00
N232   N     1.92136   0.51066   0.23216   0.00000  Uiso   1.00
C233   C     1.94617   0.51092   0.30123   0.00000  Uiso   1.00
C234   C     1.08711   0.49436   0.91941   0.00000  Uiso   1.00
C235   C     1.06257   0.49428   0.85482   0.00000  Uiso   1.00
C236   C     1.04498   0.47851   0.62027   0.00000  Uiso   1.00
C237   C     1.05174   0.46002   0.47615   0.00000  Uiso   1.00
C238   C     1.07606   0.45979   0.54250   0.00000  Uiso   1.00
C239   C     1.55565   0.94107   0.37108   0.00000  Uiso   1.00
C240   C     1.55335   0.96489   0.36764   0.00000  Uiso   1.00
C241   C     1.53274   0.96642   0.53666   0.00000  Uiso   1.00
C242   C     1.51516   0.94344   0.71408   0.00000  Uiso   1.00
C243   C     1.51737   0.91965   0.71681   0.00000  Uiso   1.00
C244   C     1.47686   0.04079   0.37515   0.00000  Uiso   1.00
C245   C     1.48111   0.01821   0.36231   0.00000  Uiso   1.00
C246   C     1.50188   0.01739   0.53472   0.00000  Uiso   1.00
C247   C     1.51818   0.04024   0.71986   0.00000  Uiso   1.00
C248   C     1.51402   0.06289   0.73192   0.00000  Uiso   1.00
C249   C     1.95459   0.49439   0.14637   0.00000  Uiso   1.00
C250   C     1.97881   0.49440   0.22396   0.00000  Uiso   1.00
C251   C     1.99500   0.50945   0.46947   0.00000  Uiso   1.00
C252   C     1.98745   0.52747   0.61100   0.00000  Uiso   1.00
C253   C     1.96358   0.52799   0.52914   0.00000  Uiso   1.00
C254   C     1.02005   0.50664   0.56234   0.00000  Uiso   1.00
C255   C     1.04624   0.53373   0.64838   0.00000  Uiso   1.00
C256   C     1.53031   0.99250   0.53165   0.00000  Uiso   1.00
C257   C     1.47665   0.96470   0.52397   0.00000  Uiso   1.00
C258   C     1.50476  -0.00840   0.52913   0.00000  Uiso   1.00
C259   C     1.55821   0.01954   0.53388   0.00000  Uiso   1.00
C260   C     2.01961   0.48132   0.53813   0.00000  Uiso   1.00
C261   C     1.99315   0.45459   0.44630   0.00000  Uiso   1.00
C262   C     1.58091   0.02134   0.69434   0.00000  Uiso   1.00
C263   C     1.60657   0.04572   0.69704   0.00000  Uiso   1.00
C264   C     1.61099   0.06949   0.53879   0.00000  Uiso   1.00
C265   C     1.58839   0.06746   0.37499   0.00000  Uiso   1.00
H266   H     1.57188   0.94064   0.23385   0.00000  Uiso   1.00
H267   H     1.56797   0.98246   0.22872   0.00000  Uiso   1.00
H268   H     1.49878   0.94372   0.84615   0.00000  Uiso   1.00
H269   H     1.50292   0.90193   0.85638   0.00000  Uiso   1.00
H270   H     1.46033   0.04028   0.23520   0.00000  Uiso   1.00
H271   H     1.46749   0.00078   0.21638   0.00000  Uiso   1.00
H272   H     1.53470   0.04054   0.85454   0.00000  Uiso   1.00
H273   H     1.52728   0.08040   0.87995   0.00000  Uiso   1.00
H274   H     1.94185   0.48119  -0.03850   0.00000  Uiso   1.00
H275   H     1.98525   0.48208   0.09122   0.00000  Uiso   1.00
H276   H     1.99880   0.54112   0.79697   0.00000  Uiso   1.00
H277   H     1.95788   0.54156   0.65298   0.00000  Uiso   1.00
H278   H     1.57887   0.00349   0.82157   0.00000  Uiso   1.00
H279   H     1.62370   0.04633   0.82735   0.00000  Uiso   1.00
H280   H     1.59059   0.08512   0.24229   0.00000  Uiso   1.00
H281   H     1.54600   0.04331   0.24735   0.00000  Uiso   1.00
H282   H     1.96541   0.45835   0.76802   0.00000  Uiso   1.00
H283   H     1.92405   0.41597   0.63293   0.00000  Uiso   1.00
H284   H     1.96977   0.40054  -0.04870   0.00000  Uiso   1.00
H285   H     2.01089   0.44443   0.06105   0.00000  Uiso   1.00
H286   H     1.07371   0.53036   0.32089   0.00000  Uiso   1.00
H287   H     1.11377   0.57491   0.42317   0.00000  Uiso   1.00
H288   H     1.06833   0.58964   1.11537   0.00000  Uiso   1.00
H289   H     1.02856   0.54409   1.03212   0.00000  Uiso   1.00
H290   H     1.45645   0.98154   0.80808   0.00000  Uiso   1.00
H291   H     1.41049   0.94072   0.78452   0.00000  Uiso   1.00
H292   H     1.44226   0.89964   0.21581   0.00000  Uiso   1.00
H293   H     1.48833   0.94003   0.24385   0.00000  Uiso   1.00
H294   H     1.10565   0.63610   1.07443   0.00000  Uiso   1.00
H295   H     1.39707   0.87045   0.12590   0.00000  Uiso   1.00
H296   H     1.93519   0.35266   0.31880   0.00000  Uiso   1.00
H297   H     1.62600   0.12281   0.38153   0.00000  Uiso   1.00
H298   H     1.69146   0.12064   0.64123   0.00000  Uiso   1.00
H299   H     1.73828   0.15929   0.58523   0.00000  Uiso   1.00
H300   H     1.70497   0.20798   0.17217   0.00000  Uiso   1.00
C301   C     1.56276   0.04319   0.37338   0.00000  Uiso   1.00
C302   C     1.96754   0.44613   0.59037   0.00000  Uiso   1.00
C303   C     1.94349   0.42185   0.51150   0.00000  Uiso   1.00
C304   C     1.94377   0.40440   0.28771   0.00000  Uiso   1.00
C305   C     1.96895   0.41320   0.13524   0.00000  Uiso   1.00
C306   C     1.99279   0.43808   0.20613   0.00000  Uiso   1.00
C307   C     1.07147   0.54279   0.49508   0.00000  Uiso   1.00
C308   C     1.09476   0.56833   0.55566   0.00000  Uiso   1.00
C309   C     1.09414   0.58630   0.77078   0.00000  Uiso   1.00
C310   C     1.06957   0.57665   0.93783   0.00000  Uiso   1.00
C311   C     1.04644   0.55069   0.88307   0.00000  Uiso   1.00
C312   C     1.45402   0.96370   0.67796   0.00000  Uiso   1.00
C313   C     1.42766   0.94046   0.66395   0.00000  Uiso   1.00
C314   C     1.42245   0.91707   0.49485   0.00000  Uiso   1.00
C315   C     1.44514   0.91762   0.34758   0.00000  Uiso   1.00
C316   C     1.47156   0.94092   0.36146   0.00000  Uiso   1.00
N317   N     1.11785   0.61272   0.80467   0.00000  Uiso   1.00
N318   N     1.39508   0.89455   0.47924   0.00000  Uiso   1.00
C319   C     1.12165   0.63514   0.93766   0.00000  Uiso   1.00
C320   C     1.14723   0.66097   0.87209   0.00000  Uiso   1.00
C321   C     1.38474   0.87359   0.29790   0.00000  Uiso   1.00
H322   H     1.65848   0.16883   0.22446   0.00000  Uiso   1.00
H323   H     1.86801   0.34966   0.03225   0.00000  Uiso   1.00
H324   H     1.82308   0.30777   0.01861   0.00000  Uiso   1.00
H325   H     1.86017   0.26078   0.38740   0.00000  Uiso   1.00
H326   H     1.90495   0.30317   0.40400   0.00000  Uiso   1.00
H327   H     1.16627   0.64170   0.60768   0.00000  Uiso   1.00
H328   H     1.20744   0.68371   0.48278   0.00000  Uiso   1.00
H329   H     1.17762   0.73114   0.98807   0.00000  Uiso   1.00
H330   H     1.13638   0.68800   1.12102   0.00000  Uiso   1.00
H331   H     1.34459   0.87414   0.66277   0.00000  Uiso   1.00
H332   H     1.29673   0.83900   0.70466   0.00000  Uiso   1.00
H333   H     1.30913   0.79119   0.00642   0.00000  Uiso   1.00
H334   H     1.35702   0.82648  -0.02540   0.00000  Uiso   1.00
H335   H     1.77403   0.19805   0.67073   0.00000  Uiso   1.00
H336   H     1.82055   0.23657   0.59633   0.00000  Uiso   1.00
H337   H     1.79009   0.26818  -0.11420   0.00000  Uiso   1.00
H338   H     1.74357   0.22969  -0.04050   0.00000  Uiso   1.00
H339   H     1.23229   0.71788   0.25843   0.00000  Uiso   1.00
H340   H     1.27372   0.75825   0.11455   0.00000  Uiso   1.00
H341   H     1.25776   0.80730   0.76655   0.00000  Uiso   1.00
H342   H     1.21646   0.76611   0.92060   0.00000  Uiso   1.00
loop_
_geom_bond_atom_site_label_1
_geom_bond_atom_site_label_2
_geom_bond_distance
_geom_bond_site_symmetry_2
_ccdc_geom_bond_type
C1     C2      1.395   .     D
C1     C5      1.525   .     S
C1     C6      1.521   .     S
C2     C3      1.536   .     S
C2     C4      1.511   .     S
C3     C7      1.414   .     D
C3     C21     1.406   .     S
C4     C22     1.402   .     D
C4     C26     1.405   .     S
C5     C32     1.401   .     D
C5     C36     1.408   .     S
C6     C27     1.403   .     D
C6     C31     1.409   .     S
C7     C8      1.383   .     S
C7     H85     1.095   .     S
C8     C9      1.399   .     D
C8     H86     1.100   .     S
C9     C10     1.403   .     S
C9     N37     1.402   .     S
C10    C21     1.384   .     D
C10    H87     1.099   .     S
C11    C68     1.408   .     S
C11    C72     1.403   .     D
C11    C321    1.448   .     S
N12    C16     1.297   .     D
N12    C264    1.407   .     S
N13    C14     1.295   .     D
N13    C304    1.401   .     S
C14    C15     1.450   .     S
C14    H296    1.101   .     S
C15    C58     1.408   .     D
C15    C62     1.407   .     S
C16    C17     1.449   .     S
C16    H297    1.100   .     S
C17    C18     1.408   .     S
C17    C57     1.406   .     D
C18    C19     1.374   .     D
C18    H298    1.099   .     S
C19    C20     1.425   .     S
C19    H299    1.099   .     S
C20    C56     1.424   .     D
C20    C75     1.446   .     S
C21    H88     1.094   .     S
C22    C23     1.382   .     S
C22    H89     1.098   .     S
C23    C24     1.401   .     D
C23    H90     1.099   .     S
C24    C25     1.406   .     S
C24    N38     1.402   .     S
C25    C26     1.385   .     D
C25    H126    1.098   .     S
C26    H127    1.099   .     S
C27    C28     1.383   .     S
C27    H128    1.093   .     S
C28    C29     1.402   .     D
C28    H129    1.099   .     S
C29    C30     1.406   .     S
C29    N40     1.407   .     S
C30    C31     1.386   .     D
C30    H130    1.098   .     S
C31    H131    1.098   .     S
C32    C33     1.379   .     S
C32    H132    1.086   .     S
C33    C34     1.402   .     D
C33    H133    1.099   .     S
C34    C35     1.405   .     S
C34    N39     1.409   .     S
C35    C36     1.388   .     D
C35    H134    1.099   .     S
C36    H135    1.097   .     S
N37    C104    1.295   .     D
N38    C41     1.295   .     D
N39    C106    1.298   .     D
N40    C42     1.296   .     D
C41    C43     1.449   .     S
C41    H136    1.101   .     S
C42    C44     1.451   .     S
C42    H137    1.101   .     S
C43    C45     1.409   .     D
C43    C49     1.406   .     S
C44    C50     1.409   .     D
C44    C54     1.406   .     S
C45    C46     1.372   .     S
C45    H138    1.099   .     S
C46    C47     1.423   .     D
C46    H139    1.099   .     S
C47    C48     1.426   .     S
C47    C55     1.443   .     S
C48    C49     1.373   .     D
C48    H140    1.099   .     S
C49    H141    1.099   .     S
C50    C51     1.374   .     S
C50    H142    1.100   .     S
C51    C52     1.423   .     D
C51    H143    1.100   .     S
C52    C53     1.426   .     S
C52    C91     1.446   .     S
C53    C54     1.374   .     D
C53    H144    1.099   .     S
C54    H145    1.100   .     S
C55    C98     1.426   .     D
C55    C102    1.426   .     S
C56    C57     1.373   .     S
C56    H300    1.099   .     S
C57    H322    1.099   .     S
C58    C59     1.373   .     S
C58    H323    1.100   .     S
C59    C60     1.426   .     D
C59    H324    1.099   .     S
C60    C61     1.424   .     S
C60    C76     1.445   .     S
C61    C62     1.374   .     D
C61    H325    1.099   .     S
C62    H326    1.100   .     S
C63    C64     1.370   .     D
C63    C320    1.407   .     S
C63    H327    1.100   .     S
C64    C65     1.422   .     S
C64    H328    1.098   .     S
C65    C66     1.425   .     D
C65    C73     1.452   .     S
C66    C67     1.376   .     S
C66    H329    1.099   .     S
C67    C320    1.408   .     D
C67    H330    1.100   .     S
C68    C69     1.374   .     D
C68    H331    1.100   .     S
C69    C70     1.422   .     S
C69    H332    1.099   .     S
C70    C71     1.424   .     D
C70    C74     1.454   .     S
C71    C72     1.373   .     S
C71    H333    1.098   .     S
C72    H334    1.100   .     S
C73    C81     1.423   .     D
C73    C84     1.424   .     S
C74    C82     1.422   .     D
C74    C83     1.426   .     S
C75    C77     1.426   .     D
C75    C80     1.426   .     S
C76    C78     1.427   .     D
C76    C79     1.425   .     S
C77    C78     1.365   .     S
C77    H335    1.100   .     S
C78    H336    1.100   .     S
C79    C80     1.364   .     D
C79    H337    1.100   .     S
C80    H338    1.100   .     S
C81    C82     1.362   .     S
C81    H339    1.099   .     S
C82    H340    1.099   .     S
C83    C84     1.367   .     D
C83    H341    1.099   .     S
C84    H342    1.100   .     S
C91    C92     1.428   .     D
C91    C96     1.425   .     S
C92    C93     1.365   .     S
C92    H146    1.099   .     S
C93    C94     1.426   .     D
C93    H147    1.099   .     S
C94    C95     1.426   .     S
C94    C97     1.445   .     S
C95    C96     1.365   .     D
C95    H148    1.099   .     S
C96    H149    1.099   .     S
C97    C167    1.425   .     D
C97    C171    1.425   .     S
C98    C99     1.363   .     S
C98    H150    1.099   .     S
C99    C100    1.426   .     D
C99    H151    1.099   .     S
C100   C101    1.427   .     S
C100   C103    1.443   .     S
C101   C102    1.364   .     D
C101   H152    1.099   .     S
C102   H153    1.099   .     S
C103   C182    1.426   .     D
C103   C186    1.425   .     S
C104   C105    1.448   .     S
C104   H154    1.102   .     S
C105   C108    1.410   .     D
C105   C112    1.406   .     S
C106   C107    1.446   .     S
C106   H155    1.101   .     S
C107   C113    1.407   .     D
C107   C117    1.405   .     S
C108   C109    1.374   .     S
C108   H156    1.100   .     S
C109   C110    1.428   .     D
C109   H157    1.100   .     S
C110   C111    1.431   .     S
C110   C118    1.430   .     S
C111   C112    1.371   .     D
C111   H158    1.099   .     S
C112   H159    1.100   .     S
C113   C114    1.374   .     S
C113   H160    1.100   .     S
C114   C115    1.425   .     D
C114   H196    1.099   .     S
C115   C116    1.425   .     S
C115   C119    1.445   .     S
C116   C117    1.372   .     D
C116   H197    1.100   .     S
C117   H198    1.101   .     S
C118   C125    1.434   .     D
C118   C164    1.429   .     S
C119   C120    1.427   .     D
C119   C124    1.425   .     S
C120   C121    1.365   .     S
C120   H199    1.099   .     S
C121   C122    1.426   .     D
C121   H200    1.099   .     S
C122   C123    1.427   .     S
C122   C165    1.443   .     S
C123   C124    1.362   .     D
C123   H201    1.100   .     S
C124   H202    1.099   .     S
C125   C161    1.365   .     S
C125   H203    1.100   .     S
C161   C162    1.431   .     D
C161   H204    1.100   .     S
C162   C163    1.431   .     S
C162   C166    1.431   .     S
C163   C164    1.361   .     D
C163   H205    1.100   .     S
C164   H206    1.100   .     S
C165   C177    1.426   .     D
C165   C181    1.423   .     S
C166   C172    1.430   .     D
C166   C176    1.427   .     S
C167   C168    1.374   .     S
C167   H207    1.100   .     S
C168   C169    1.407   .     D
C168   H208    1.100   .     S
C169   C170    1.408   .     S
C169   C187    1.450   .     S
C170   C171    1.374   .     D
C170   H209    1.099   .     S
C171   H210    1.099   .     S
C172   C173    1.375   .     S
C172   H211    1.100   .     S
C173   C174    1.408   .     D
C173   H212    1.100   .     S
C174   C175    1.409   .     S
C174   C188    1.450   .     S
C175   C176    1.370   .     D
C175   H213    1.099   .     S
C176   H214    1.100   .     S
C177   C178    1.374   .     S
C177   H215    1.099   .     S
C178   C179    1.407   .     D
C178   H216    1.101   .     S
C179   C180    1.408   .     S
C179   C189    1.448   .     S
C180   C181    1.373   .     D
C180   H217    1.100   .     S
C181   H218    1.100   .     S
C182   C183    1.373   .     S
C182   H219    1.099   .     S
C183   C184    1.405   .     D
C183   H220    1.100   .     S
C184   C185    1.408   .     S
C184   C190    1.448   .     S
C185   C186    1.374   .     D
C185   H221    1.100   .     S
C186   H222    1.100   .     S
C187   N191    1.297   .     D
C187   H223    1.102   .     S
C188   N193    1.295   .     D
C188   H224    1.101   .     S
C189   N192    1.296   .     D
C189   H225    1.100   .     S
C190   H226    1.102   .     S
C190   N232    1.295   .     D
N191   C195    1.402   .     S
N192   C231    1.404   .     S
N193   C194    1.401   .     S
C194   C239    1.406   .     D
C194   C243    1.402   .     S
C195   C234    1.402   .     D
C195   C238    1.400   .     S
H227   C234    1.099   .     S
H228   C235    1.090   .     S
H229   C237    1.090   .     S
H230   C238    1.100   .     S
C231   C244    1.406   .     D
C231   C248    1.404   .     S
N232   C233    1.400   .     S
C233   C249    1.401   .     D
C233   C253    1.400   .     S
C234   C235    1.385   .     S
C235   C236    1.404   .     D
C236   C237    1.410   .     S
C236   C260    1.532   1_455 S
C237   C238    1.384   .     D
C239   C240    1.385   .     S
C239   H266    1.099   .     S
C240   C241    1.407   .     D
C240   H267    1.097   .     S
C241   C242    1.401   .     S
C241   C256    1.514   .     S
C242   C243    1.381   .     D
C242   H268    1.090   .     S
C243   H269    1.100   .     S
C244   C245    1.382   .     S
C244   H270    1.099   .     S
C245   C246    1.405   .     D
C245   H271    1.096   .     S
C246   C247    1.401   .     S
C246   C258    1.512   .     S
C247   C248    1.383   .     D
C247   H272    1.089   .     S
C248   H273    1.099   .     S
C249   C250    1.384   .     S
C249   H274    1.099   .     S
C250   C251    1.403   .     D
C250   H275    1.091   .     S
C251   C252    1.410   .     S
C251   C254    1.527   1_655 S
C252   C253    1.384   .     D
C252   H276    1.091   .     S
C253   H277    1.100   .     S
C254   C251    1.527   1_455 S
C254   C255    1.524   .     S
C254   C260    1.392   1_455 D
C255   C307    1.405   .     D
C255   C311    1.409   .     S
C256   C258    1.388   1_565 D
C256   C259    1.519   1_565 S
C257   C258    1.522   1_565 S
C257   C312    1.407   .     S
C257   C316    1.405   .     D
C258   C257    1.522   1_545 S
C258   C256    1.388   1_545 D
C259   C256    1.519   1_545 S
C259   C262    1.408   .     S
C259   C301    1.402   .     D
C260   C236    1.532   1_655 S
C260   C254    1.392   1_655 D
C260   C261    1.527   .     S
C261   C302    1.408   .     D
C261   C306    1.408   .     S
C262   C263    1.385   .     D
C262   H278    1.097   .     S
C263   C264    1.405   .     S
C263   H279    1.100   .     S
C264   C265    1.406   .     D
C265   H280    1.098   .     S
C265   C301    1.381   .     S
H281   C301    1.089   .     S
H282   C302    1.090   .     S
H283   C303    1.100   .     S
H284   C305    1.099   .     S
H285   C306    1.095   .     S
H286   C307    1.090   .     S
H287   C308    1.100   .     S
H288   C310    1.099   .     S
H289   C311    1.095   .     S
H290   C312    1.096   .     S
H291   C313    1.100   .     S
H292   C315    1.099   .     S
H293   C316    1.090   .     S
H294   C319    1.101   .     S
H295   C321    1.101   .     S
C302   C303    1.382   .     S
C303   C304    1.400   .     D
C304   C305    1.403   .     S
C305   C306    1.385   .     D
C307   C308    1.381   .     S
C308   C309    1.400   .     D
C309   C310    1.404   .     S
C309   N317    1.400   .     S
C310   C311    1.386   .     D
C312   C313    1.381   .     D
C313   C314    1.401   .     S
C314   C315    1.406   .     D
C314   N318    1.400   .     S
C315   C316    1.384   .     S
N317   C319    1.296   .     D
N318   C321    1.294   .     D
C319   C320    1.452   .     S
