data_172
_audit_creation_date              2023-09-08
_audit_creation_method            'Materials Studio'
_symmetry_space_group_name_H-M    'P1'
_symmetry_Int_Tables_number       1
_symmetry_cell_setting            triclinic
loop_
_symmetry_equiv_pos_as_xyz
  x,y,z
_cell_length_a                    23.3147
_cell_length_b                    23.3147
_cell_length_c                    3.4315
_cell_angle_alpha                 90.0000
_cell_angle_beta                  90.0000
_cell_angle_gamma                 120.0000
loop_
_atom_site_label
_atom_site_type_symbol
_atom_site_fract_x
_atom_site_fract_y
_atom_site_fract_z
_atom_site_U_iso_or_equiv
_atom_site_adp_type
_atom_site_occupancy
O1     O     0.74382   0.27755   0.00000   0.00000  Uiso   1.00
N2     N     0.54318   0.13997   0.00000   0.00000  Uiso   1.00
C3     C     0.70945   0.30321   0.00000   0.00000  Uiso   1.00
C4     C     0.63589   0.25885   0.00000   0.00000  Uiso   1.00
C5     C     0.61199   0.19181   0.00000   0.00000  Uiso   1.00
C6     C     0.52010   0.06936   0.00000   0.00000  Uiso   1.00
C7     C     0.56425   0.04452   0.00000   0.00000  Uiso   1.00
C8     C     0.45124   0.02289   0.00000   0.00000  Uiso   1.00
C9     C     0.40237   0.04368   0.00000   0.00000  Uiso   1.00
H10    H     0.61718   0.07611   0.00000   0.00000  Uiso   1.00
H11    H     0.64810   0.17611   0.00000   0.00000  Uiso   1.00
H12    H     0.50623   0.15207   0.00000   0.00000  Uiso   1.00
N13    N     0.36318   0.06030   0.00000   0.00000  Uiso   1.00
O14    O     0.25268   0.71848   0.00000   0.00000  Uiso   1.00
N15    N     0.45196   0.86065   0.00000   0.00000  Uiso   1.00
C16    C     0.28866   0.69461   0.00000   0.00000  Uiso   1.00
C17    C     0.36189   0.74083   0.00000   0.00000  Uiso   1.00
C18    C     0.38380   0.80744   0.00000   0.00000  Uiso   1.00
C19    C     0.47289   0.93051   0.00000   0.00000  Uiso   1.00
C20    C     0.42830   0.95465   0.00000   0.00000  Uiso   1.00
C21    C     0.54088   0.97655   0.00000   0.00000  Uiso   1.00
H22    H     0.57652   0.95966   0.00000   0.00000  Uiso   1.00
H23    H     0.37548   0.92174   0.00000   0.00000  Uiso   1.00
H24    H     0.34659   0.82174   0.00000   0.00000  Uiso   1.00
H25    H     0.49079   0.85105   0.00000   0.00000  Uiso   1.00
O26    O     0.72245   0.46627   0.00000   0.00000  Uiso   1.00
N27    N     0.86003   0.40321   0.00000   0.00000  Uiso   1.00
C28    C     0.69679   0.40624   0.00000   0.00000  Uiso   1.00
C29    C     0.74115   0.37704   0.00000   0.00000  Uiso   1.00
C30    C     0.80819   0.42018   0.00000   0.00000  Uiso   1.00
C31    C     0.93064   0.45074   0.00000   0.00000  Uiso   1.00
C32    C     0.95548   0.51973   0.00000   0.00000  Uiso   1.00
C33    C     0.97711   0.42835   0.00000   0.00000  Uiso   1.00
C34    C     0.95632   0.35869   0.00000   0.00000  Uiso   1.00
H35    H     0.92389   0.54107   0.00000   0.00000  Uiso   1.00
H36    H     0.82389   0.47199   0.00000   0.00000  Uiso   1.00
H37    H     0.84793   0.35416   0.00000   0.00000  Uiso   1.00
N38    N     0.93970   0.30288   0.00000   0.00000  Uiso   1.00
O39    O     0.28152   0.53420   0.00000   0.00000  Uiso   1.00
N40    N     0.13935   0.59131   0.00000   0.00000  Uiso   1.00
C41    C     0.30539   0.59405   0.00000   0.00000  Uiso   1.00
C42    C     0.25917   0.62106   0.00000   0.00000  Uiso   1.00
C43    C     0.19256   0.57636   0.00000   0.00000  Uiso   1.00
C44    C     0.06949   0.54238   0.00000   0.00000  Uiso   1.00
C45    C     0.04535   0.47365   0.00000   0.00000  Uiso   1.00
C46    C     0.02345   0.56433   0.00000   0.00000  Uiso   1.00
H47    H     0.04034   0.61686   0.00000   0.00000  Uiso   1.00
H48    H     0.07826   0.45374   0.00000   0.00000  Uiso   1.00
H49    H     0.17826   0.52485   0.00000   0.00000  Uiso   1.00
H50    H     0.14895   0.63974   0.00000   0.00000  Uiso   1.00
O51    O     0.53373   0.25618   0.00000   0.00000  Uiso   1.00
N52    N     0.59679   0.45682   0.00000   0.00000  Uiso   1.00
C53    C     0.59376   0.29055   0.00000   0.00000  Uiso   1.00
C54    C     0.62296   0.36411   0.00000   0.00000  Uiso   1.00
C55    C     0.57982   0.38801   0.00000   0.00000  Uiso   1.00
C56    C     0.54926   0.47990   0.00000   0.00000  Uiso   1.00
C57    C     0.48027   0.43575   0.00000   0.00000  Uiso   1.00
C58    C     0.57165   0.54876   0.00000   0.00000  Uiso   1.00
C59    C     0.64131   0.59763   0.00000   0.00000  Uiso   1.00
H60    H     0.45893   0.38282   0.00000   0.00000  Uiso   1.00
H61    H     0.52801   0.35190   0.00000   0.00000  Uiso   1.00
H62    H     0.64584   0.49377   0.00000   0.00000  Uiso   1.00
N63    N     0.69712   0.63682   0.00000   0.00000  Uiso   1.00
O64    O     0.46580   0.74732   0.00000   0.00000  Uiso   1.00
N65    N     0.40869   0.54804   0.00000   0.00000  Uiso   1.00
C66    C     0.40595   0.71134   0.00000   0.00000  Uiso   1.00
C67    C     0.37894   0.63811   0.00000   0.00000  Uiso   1.00
C68    C     0.42364   0.61620   0.00000   0.00000  Uiso   1.00
C69    C     0.45762   0.52711   0.00000   0.00000  Uiso   1.00
C70    C     0.52635   0.57170   0.00000   0.00000  Uiso   1.00
C71    C     0.43567   0.45912   0.00000   0.00000  Uiso   1.00
H72    H     0.38314   0.42348   0.00000   0.00000  Uiso   1.00
H73    H     0.54626   0.62452   0.00000   0.00000  Uiso   1.00
H74    H     0.47515   0.65341   0.00000   0.00000  Uiso   1.00
H75    H     0.36026   0.50921   0.00000   0.00000  Uiso   1.00
loop_
_geom_bond_atom_site_label_1
_geom_bond_atom_site_label_2
_geom_bond_distance
_geom_bond_site_symmetry_2
_ccdc_geom_bond_type
O1     C3      1.216   .     D
N2     C5      1.448   .     S
N2     C6      1.454   .     S
N2     H12     1.032   .     S
C3     C4      1.496   .     S
C3     C29     1.496   .     S
C4     C5      1.372   .     D
C4     C53     1.496   .     S
C5     H11     1.073   .     S
C6     C7      1.411   .     S
C6     C8      1.418   .     D
C7     H10     1.075   .     S
C7     C21     1.395   1_545 D
C8     C9      1.444   .     S
C8     C20     1.402   1_545 S
C9     N13     1.157   .     T
O14    C16     1.217   .     D
N15    C18     1.447   .     S
N15    C19     1.448   .     S
N15    H25     1.036   .     S
C16    C17     1.495   .     S
C16    C42     1.495   .     S
C17    C18     1.371   .     D
C17    C66     1.495   .     S
C18    H24     1.074   .     S
C19    C20     1.408   .     D
C19    C21     1.401   .     S
C20    C8      1.402   1_565 S
C20    H23     1.077   .     S
C21    C7      1.395   1_565 D
C21    H22     1.083   .     S
O26    C28     1.216   .     D
N27    C30     1.448   .     S
N27    C31     1.454   .     S
N27    H37     1.032   .     S
C28    C29     1.496   .     S
C28    C54     1.496   .     S
C29    C30     1.372   .     D
C30    H36     1.073   .     S
C31    C32     1.411   .     S
C31    C33     1.418   .     D
C32    H35     1.075   .     S
C32    C46     1.395   1_655 D
C33    C34     1.444   .     S
C33    C45     1.402   1_655 S
C34    N38     1.157   .     T
O39    C41     1.217   .     D
N40    C43     1.447   .     S
N40    C44     1.448   .     S
N40    H50     1.036   .     S
C41    C42     1.495   .     S
C41    C67     1.495   .     S
C42    C43     1.371   .     D
C43    H49     1.074   .     S
C44    C45     1.408   .     D
C44    C46     1.401   .     S
C45    C33     1.402   1_455 S
C45    H48     1.077   .     S
C46    C32     1.395   1_455 D
C46    H47     1.083   .     S
O51    C53     1.216   .     D
N52    C55     1.448   .     S
N52    C56     1.454   .     S
N52    H62     1.032   .     S
C53    C54     1.496   .     S
C54    C55     1.372   .     D
C55    H61     1.073   .     S
C56    C57     1.411   .     D
C56    C58     1.418   .     S
C57    H60     1.075   .     S
C57    C71     1.395   .     S
C58    C59     1.444   .     S
C58    C70     1.402   .     D
C59    N63     1.157   .     T
O64    C66     1.217   .     D
N65    C68     1.447   .     S
N65    C69     1.448   .     S
N65    H75     1.036   .     S
C66    C67     1.495   .     S
C67    C68     1.371   .     D
C68    H74     1.074   .     S
C69    C70     1.408   .     S
C69    C71     1.401   .     D
C70    H73     1.077   .     S
C71    H72     1.083   .     S
