data_173
_audit_creation_date              2023-09-08
_audit_creation_method            'Materials Studio'
_symmetry_space_group_name_H-M    'P1'
_symmetry_Int_Tables_number       1
_symmetry_cell_setting            triclinic
loop_
_symmetry_equiv_pos_as_xyz
  x,y,z
_cell_length_a                    31.9887
_cell_length_b                    32.4326
_cell_length_c                    3.5679
_cell_angle_alpha                 93.6300
_cell_angle_beta                  90.5555
_cell_angle_gamma                 119.9276
loop_
_atom_site_label
_atom_site_type_symbol
_atom_site_fract_x
_atom_site_fract_y
_atom_site_fract_z
_atom_site_U_iso_or_equiv
_atom_site_adp_type
_atom_site_occupancy
C1     C     0.72276   0.46736   0.37216   0.00000  Uiso   1.00
C2     C     0.71494   0.50451   0.27770   0.00000  Uiso   1.00
C3     C     0.75402   0.55024   0.24330   0.00000  Uiso   1.00
C4     C     0.80161   0.55980   0.30625   0.00000  Uiso   1.00
C5     C     0.80931   0.52232   0.38728   0.00000  Uiso   1.00
C6     C     0.77028   0.47656   0.41974   0.00000  Uiso   1.00
N7     N     0.68346   0.41985   0.40750   0.00000  Uiso   1.00
H8     H     0.67894   0.49816   0.21772   0.00000  Uiso   1.00
H9     H     0.74692   0.57761   0.15671   0.00000  Uiso   1.00
N10    N     0.84264   0.60631   0.26671   0.00000  Uiso   1.00
H11    H     0.84571   0.52873   0.42875   0.00000  Uiso   1.00
H12    H     0.77706   0.44825   0.48678   0.00000  Uiso   1.00
C13    C     0.84463   0.64870   0.37424   0.00000  Uiso   1.00
H14    H     0.87377   0.60752   0.16562   0.00000  Uiso   1.00
O15    O     0.81075   0.64880   0.52785   0.00000  Uiso   1.00
C16    C     0.63714   0.41014   0.53680   0.00000  Uiso   1.00
H17    H     0.68999   0.39215   0.32993   0.00000  Uiso   1.00
H18    H     0.62948   0.43910   0.55376   0.00000  Uiso   1.00
C19    C     0.90477   0.82967   0.57529   0.00000  Uiso   1.00
C20    C     0.94243   0.82033   0.64268   0.00000  Uiso   1.00
C21    C     0.93579   0.77472   0.55925   0.00000  Uiso   1.00
C22    C     0.89117   0.73737   0.41154   0.00000  Uiso   1.00
C23    C     0.85374   0.74682   0.33409   0.00000  Uiso   1.00
C24    C     0.86044   0.79252   0.41474   0.00000  Uiso   1.00
N25    N     0.91289   0.87713   0.66264   0.00000  Uiso   1.00
H26    H     0.97705   0.84846   0.76146   0.00000  Uiso   1.00
H27    H     0.96531   0.76829   0.61411   0.00000  Uiso   1.00
N28    N     0.88567   0.69103   0.32023   0.00000  Uiso   1.00
H29    H     0.81979   0.71930   0.20114   0.00000  Uiso   1.00
H30    H     0.83120   0.79868   0.34323   0.00000  Uiso   1.00
H31    H     0.91584   0.68996   0.22233   0.00000  Uiso   1.00
H32    H     0.94726   0.90320   0.76821   0.00000  Uiso   1.00
C33    C     0.51840   0.27093   0.71831   0.00000  Uiso   1.00
C34    C     0.56619   0.27575   0.64235   0.00000  Uiso   1.00
C35    C     0.60867   0.32469   0.65080   0.00000  Uiso   1.00
C36    C     0.60185   0.36662   0.62369   0.00000  Uiso   1.00
C37    C     0.55364   0.36006   0.70654   0.00000  Uiso   1.00
C38    C     0.51051   0.31159   0.67092   0.00000  Uiso   1.00
O39    O     0.64897   0.33039   0.70581   0.00000  Uiso   1.00
O40    O     0.55013   0.39424   0.82628   0.00000  Uiso   1.00
O41    O     0.48607   0.23431   0.83221   0.00000  Uiso   1.00
C42    C     0.46524   0.30297   0.59425   0.00000  Uiso   1.00
C43    C     0.57258   0.23785   0.57107   0.00000  Uiso   1.00
H44    H     0.43574   0.26668   0.59788   0.00000  Uiso   1.00
H45    H     0.60869   0.24433   0.52517   0.00000  Uiso   1.00
C46    C     0.40588   0.32934   0.42013   0.00000  Uiso   1.00
C47    C     0.39606   0.36672   0.48179   0.00000  Uiso   1.00
C48    C     0.34943   0.35888   0.41693   0.00000  Uiso   1.00
C49    C     0.31168   0.31349   0.28919   0.00000  Uiso   1.00
C50    C     0.32178   0.27634   0.21404   0.00000  Uiso   1.00
C51    C     0.36839   0.28412   0.28029   0.00000  Uiso   1.00
N52    N     0.45436   0.33874   0.48571   0.00000  Uiso   1.00
H53    H     0.42460   0.40197   0.58376   0.00000  Uiso   1.00
H54    H     0.34258   0.38818   0.46885   0.00000  Uiso   1.00
N55    N     0.26433   0.30690   0.21479   0.00000  Uiso   1.00
H56    H     0.29412   0.24170   0.09331   0.00000  Uiso   1.00
H57    H     0.37517   0.25515   0.20944   0.00000  Uiso   1.00
C58    C     0.22181   0.26628   0.27554   0.00000  Uiso   1.00
H59    H     0.26260   0.33605   0.12375   0.00000  Uiso   1.00
O60    O     0.22239   0.23337   0.41874   0.00000  Uiso   1.00
H61    H     0.48193   0.37320   0.44616   0.00000  Uiso   1.00
C62    C     0.03884   0.14339   0.29226   0.00000  Uiso   1.00
C63    C     0.07697   0.13667   0.17232   0.00000  Uiso   1.00
C64    C     0.12302   0.17589   0.13972   0.00000  Uiso   1.00
C65    C     0.13192   0.22252   0.22793   0.00000  Uiso   1.00
C66    C     0.09357   0.22921   0.33513   0.00000  Uiso   1.00
C67    C     0.04754   0.19005   0.36758   0.00000  Uiso   1.00
N68    N    -0.00918   0.10403   0.32596   0.00000  Uiso   1.00
H69    H     0.07131   0.10157   0.09032   0.00000  Uiso   1.00
H70    H     0.15117   0.16972   0.03414   0.00000  Uiso   1.00
N71    N     0.17861   0.26360   0.18640   0.00000  Uiso   1.00
H72    H     0.09950   0.26490   0.39671   0.00000  Uiso   1.00
H73    H     0.01857   0.19607   0.45495   0.00000  Uiso   1.00
H74    H     0.17926   0.29400   0.09733   0.00000  Uiso   1.00
H75    H    -0.03720   0.11107   0.28347   0.00000  Uiso   1.00
C76    C     0.53981   0.14880   0.56633   0.00000  Uiso   1.00
C77    C     0.58294   0.15375   0.71990   0.00000  Uiso   1.00
C78    C     0.58815   0.11376   0.74795   0.00000  Uiso   1.00
C79    C     0.55039   0.06801   0.62381   0.00000  Uiso   1.00
C80    C     0.50675   0.06286   0.48567   0.00000  Uiso   1.00
C81    C     0.50162   0.10286   0.45485   0.00000  Uiso   1.00
N82    N     0.53351   0.18931   0.52651   0.00000  Uiso   1.00
H83    H     0.61243   0.18812   0.82649   0.00000  Uiso   1.00
H84    H     0.62119   0.11855   0.87664   0.00000  Uiso   1.00
N85    N     0.55453   0.02617   0.65646   0.00000  Uiso   1.00
H86    H     0.47692   0.02778   0.39578   0.00000  Uiso   1.00
H87    H     0.46784   0.09802   0.34069   0.00000  Uiso   1.00
C88    C     0.59570   0.02411   0.59046   0.00000  Uiso   1.00
H89    H     0.52342  -0.00501   0.71959   0.00000  Uiso   1.00
O90    O     0.63097   0.05825   0.47465   0.00000  Uiso   1.00
H91    H     0.49999   0.18255   0.41961   0.00000  Uiso   1.00
C92    C     0.71848  -0.03565   0.51015   0.00000  Uiso   1.00
C93    C     0.67175  -0.07265   0.39927   0.00000  Uiso   1.00
C94    C     0.63194  -0.06626   0.44376   0.00000  Uiso   1.00
C95    C     0.63811  -0.02256   0.59548   0.00000  Uiso   1.00
C96    C     0.68463   0.01405   0.71833   0.00000  Uiso   1.00
C97    C     0.72442   0.00761   0.67644   0.00000  Uiso   1.00
N98    N     0.75878  -0.04328   0.45849   0.00000  Uiso   1.00
H99    H     0.66615  -0.10647   0.27541   0.00000  Uiso   1.00
H100   H     0.59624  -0.09519   0.35435   0.00000  Uiso   1.00
N101   N     0.59643  -0.01713   0.64262   0.00000  Uiso   1.00
H102   H     0.69014   0.04717   0.85653   0.00000  Uiso   1.00
H103   H     0.75940   0.03621   0.78244   0.00000  Uiso   1.00
H104   H     0.56431  -0.04729   0.70575   0.00000  Uiso   1.00
H105   H     0.75127  -0.07703   0.34921   0.00000  Uiso   1.00
C106   C     0.98057   0.05677   0.39921   0.00000  Uiso   1.00
C107   C     0.84006  -0.05937   0.64121   0.00000  Uiso   1.00
C108   C     0.88143  -0.06799   0.60321   0.00000  Uiso   1.00
C109   C     0.92818  -0.02832   0.48516   0.00000  Uiso   1.00
C110   C     0.93648   0.02114   0.48292   0.00000  Uiso   1.00
C111   C     0.89541   0.02871   0.57400   0.00000  Uiso   1.00
C112   C     0.84576  -0.01247   0.56281   0.00000  Uiso   1.00
O113   O     0.95929  -0.03662   0.37161   0.00000  Uiso   1.00
O114   O     0.90236   0.06823   0.67977   0.00000  Uiso   1.00
O115   O     0.80207  -0.09024   0.75458   0.00000  Uiso   1.00
C116   C     0.80822  -0.00538   0.49742   0.00000  Uiso   1.00
C117   C     0.87477  -0.11162   0.66510   0.00000  Uiso   1.00
H118   H     0.83926  -0.13947   0.73200   0.00000  Uiso   1.00
H119   H     1.00946   0.04880   0.37422   0.00000  Uiso   1.00
H120   H     0.81580   0.03039   0.45353   0.00000  Uiso   1.00
loop_
_geom_bond_atom_site_label_1
_geom_bond_atom_site_label_2
_geom_bond_distance
_geom_bond_site_symmetry_2
_ccdc_geom_bond_type
C1     C2      1.407   .     D
C1     C6      1.402   .     S
C1     N7      1.437   .     S
C2     C3      1.398   .     S
C2     H8      1.080   .     S
C3     C4      1.406   .     D
C3     H9      1.081   .     S
C4     C5      1.401   .     S
C4     N10     1.440   .     S
C5     C6      1.397   .     D
C5     H11     1.083   .     S
C6     H12     1.083   .     S
N7     C16     1.440   .     S
N7     H17     1.041   .     S
N10    C13     1.374   .     S
N10    H14     1.045   .     S
C13    O15     1.221   .     D
C13    N28     1.373   .     S
C16    H18     1.081   .     S
C16    C36     1.355   .     D
C19    C20     1.403   .     D
C19    C24     1.408   .     S
C19    N25     1.440   .     S
C20    C21     1.397   .     S
C20    H26     1.083   .     S
C21    C22     1.401   .     D
C21    H27     1.082   .     S
C22    C23     1.405   .     S
C22    N28     1.438   .     S
C23    C24     1.398   .     D
C23    H29     1.082   .     S
C24    H30     1.081   .     S
N25    H32     1.044   .     S
N25    C117    1.437   1_565 S
N28    H31     1.045   .     S
C33    C34     1.487   .     S
C33    C38     1.480   .     S
C33    O41     1.220   .     D
C34    C35     1.486   .     S
C34    C43     1.353   .     D
C35    C36     1.489   .     S
C35    O39     1.220   .     D
C36    C37     1.483   .     S
C37    C38     1.483   .     S
C37    O40     1.220   .     D
C38    C42     1.352   .     D
C42    H44     1.082   .     S
C42    N52     1.440   .     S
C43    H45     1.082   .     S
C43    N82     1.438   .     S
C46    C47     1.402   .     D
C46    C51     1.407   .     S
C46    N52     1.437   .     S
C47    C48     1.397   .     S
C47    H53     1.083   .     S
C48    C49     1.401   .     D
C48    H54     1.082   .     S
C49    C50     1.406   .     S
C49    N55     1.440   .     S
C50    C51     1.397   .     D
C50    H56     1.082   .     S
C51    H57     1.081   .     S
N52    H61     1.042   .     S
N55    C58     1.373   .     S
N55    H59     1.046   .     S
C58    O60     1.220   .     D
C58    N71     1.374   .     S
C62    C63     1.408   .     D
C62    C67     1.402   .     S
C62    N68     1.439   .     S
C63    C64     1.398   .     S
C63    H69     1.080   .     S
C64    C65     1.406   .     D
C64    H70     1.082   .     S
C65    C66     1.401   .     S
C65    N71     1.439   .     S
C66    C67     1.397   .     D
C66    H72     1.083   .     S
C67    H73     1.083   .     S
N68    H75     1.041   .     S
N68    C106    1.441   1_455 S
N71    H74     1.045   .     S
C76    C77     1.408   .     D
C76    C81     1.404   .     S
C76    N82     1.440   .     S
C77    C78     1.397   .     S
C77    H83     1.080   .     S
C78    C79     1.405   .     D
C78    H84     1.082   .     S
C79    C80     1.401   .     S
C79    N85     1.439   .     S
C80    C81     1.397   .     D
C80    H86     1.083   .     S
C81    H87     1.083   .     S
N82    H91     1.044   .     S
N85    C88     1.373   .     S
N85    H89     1.045   .     S
C88    O90     1.221   .     D
C88    N101    1.374   .     S
C92    C93     1.403   .     D
C92    C97     1.408   .     S
C92    N98     1.440   .     S
C93    C94     1.397   .     S
C93    H99     1.082   .     S
C94    C95     1.401   .     D
C94    H100    1.083   .     S
C95    C96     1.405   .     S
C95    N101    1.439   .     S
C96    C97     1.397   .     D
C96    H102    1.082   .     S
C97    H103    1.080   .     S
N98    H105    1.044   .     S
N98    C116    1.437   .     S
N101   H104    1.045   .     S
C106   N68     1.441   1_655 S
C106   C110    1.356   .     D
C106   H119    1.080   .     S
C107   C108    1.489   .     S
C107   C112    1.484   .     S
C107   O115    1.220   .     D
C108   C109    1.493   .     S
C108   C117    1.355   .     D
C109   C110    1.490   .     S
C109   O113    1.220   .     D
C110   C111    1.487   .     S
C111   C112    1.478   .     S
C111   O114    1.220   .     D
C112   C116    1.351   .     D
C116   H120    1.083   .     S
C117   N25     1.437   1_545 S
C117   H118    1.083   .     S
