data_174
_audit_creation_date              2023-09-08
_audit_creation_method            'Materials Studio'
_symmetry_space_group_name_H-M    'P1'
_symmetry_Int_Tables_number       1
_symmetry_cell_setting            triclinic
loop_
_symmetry_equiv_pos_as_xyz
  x,y,z
_cell_length_a                    35.7844
_cell_length_b                    35.9103
_cell_length_c                    3.6908
_cell_angle_alpha                 92.2089
_cell_angle_beta                  87.4591
_cell_angle_gamma                 120.3003
loop_
_atom_site_label
_atom_site_type_symbol
_atom_site_fract_x
_atom_site_fract_y
_atom_site_fract_z
_atom_site_U_iso_or_equiv
_atom_site_adp_type
_atom_site_occupancy
C1     C     0.61741   0.47869   0.45093   0.00000  Uiso   1.00
C2     C     0.58522   0.48689   0.33962   0.00000  Uiso   1.00
C3     C     0.59275   0.52905   0.34165   0.00000  Uiso   1.00
C4     C     0.63260   0.56387   0.44931   0.00000  Uiso   1.00
C5     C     0.66468   0.55554   0.56175   0.00000  Uiso   1.00
C6     C     0.65730   0.51344   0.55727   0.00000  Uiso   1.00
N7     N     0.61083   0.43579   0.45346   0.00000  Uiso   1.00
H8     H     0.55464   0.46114   0.24316   0.00000  Uiso   1.00
H9     H     0.56755   0.53471   0.25487   0.00000  Uiso   1.00
N10    N     0.63835   0.60669   0.46187   0.00000  Uiso   1.00
H11    H     0.69510   0.58114   0.66102   0.00000  Uiso   1.00
H12    H     0.68239   0.50773   0.64598   0.00000  Uiso   1.00
C13    C     0.67796   0.64702   0.39710   0.00000  Uiso   1.00
H14    H     0.61031   0.60853   0.50881   0.00000  Uiso   1.00
S15    S     0.71454   0.64759   0.21145   0.00000  Uiso   1.00
C16    C     0.56928   0.39833   0.52883   0.00000  Uiso   1.00
H17    H     0.63805   0.43278   0.40042   0.00000  Uiso   1.00
H18    H     0.54069   0.40113   0.51358   0.00000  Uiso   1.00
C19    C     0.78234   0.81636   0.45751   0.00000  Uiso   1.00
C20    C     0.78800   0.78309   0.58071   0.00000  Uiso   1.00
C21    C     0.75389   0.74042   0.57890   0.00000  Uiso   1.00
C22    C     0.71335   0.72996   0.44866   0.00000  Uiso   1.00
C23    C     0.70753   0.76317   0.32769   0.00000  Uiso   1.00
C24    C     0.74170   0.80585   0.32727   0.00000  Uiso   1.00
N25    N     0.81835   0.85994   0.46501   0.00000  Uiso   1.00
H26    H     0.81885   0.79031   0.68411   0.00000  Uiso   1.00
H27    H     0.75915   0.71602   0.68765   0.00000  Uiso   1.00
N28    N     0.67692   0.68651   0.45511   0.00000  Uiso   1.00
H29    H     0.67650   0.75581   0.22752   0.00000  Uiso   1.00
H30    H     0.73602   0.83007   0.22006   0.00000  Uiso   1.00
H31    H     0.64635   0.68340   0.49173   0.00000  Uiso   1.00
H32    H     0.84727   0.86466   0.56550   0.00000  Uiso   1.00
C33    C     0.54984   0.27192   0.49986   0.00000  Uiso   1.00
C34    C     0.59276   0.30681   0.62688   0.00000  Uiso   1.00
C35    C     0.59969   0.35124   0.66800   0.00000  Uiso   1.00
C36    C     0.56375   0.35922   0.60087   0.00000  Uiso   1.00
C37    C     0.51941   0.32173   0.62675   0.00000  Uiso   1.00
C38    C     0.51173   0.27822   0.51713   0.00000  Uiso   1.00
O39    O     0.63389   0.38041   0.78155   0.00000  Uiso   1.00
O40    O     0.49013   0.32663   0.75483   0.00000  Uiso   1.00
O41    O     0.54623   0.23879   0.36381   0.00000  Uiso   1.00
C42    C     0.47229   0.24477   0.43214   0.00000  Uiso   1.00
C43    C     0.62542   0.29978   0.69999   0.00000  Uiso   1.00
H44    H     0.46897   0.21332   0.38812   0.00000  Uiso   1.00
H45    H     0.65639   0.32696   0.77490   0.00000  Uiso   1.00
C46    C     0.39151   0.21256   0.37939   0.00000  Uiso   1.00
C47    C     0.35713   0.21792   0.51029   0.00000  Uiso   1.00
C48    C     0.31465   0.18324   0.51170   0.00000  Uiso   1.00
C49    C     0.30557   0.14263   0.37177   0.00000  Uiso   1.00
C50    C     0.34000   0.13734   0.23984   0.00000  Uiso   1.00
C51    C     0.38253   0.17195   0.24063   0.00000  Uiso   1.00
N52    N     0.43482   0.24889   0.38546   0.00000  Uiso   1.00
H53    H     0.36343   0.24889   0.62025   0.00000  Uiso   1.00
H54    H     0.28935   0.18822   0.62984   0.00000  Uiso   1.00
N55    N     0.26236   0.10561   0.37967   0.00000  Uiso   1.00
H56    H     0.33375   0.10632   0.13171   0.00000  Uiso   1.00
H57    H     0.40793   0.16690   0.12482   0.00000  Uiso   1.00
C58    C     0.22214   0.10496   0.33272   0.00000  Uiso   1.00
H59    H     0.26010   0.07567   0.40629   0.00000  Uiso   1.00
S60    S     0.22208   0.14108   0.17613   0.00000  Uiso   1.00
H61    H     0.43816   0.27915   0.35348   0.00000  Uiso   1.00
C62    C     0.05238   0.03998   0.42138   0.00000  Uiso   1.00
C63    C     0.06254   0.00980   0.26181   0.00000  Uiso   1.00
C64    C     0.10524   0.01833   0.24872   0.00000  Uiso   1.00
C65    C     0.13881   0.05741   0.38526   0.00000  Uiso   1.00
C66    C     0.12869   0.08754   0.54446   0.00000  Uiso   1.00
C67    C     0.08601   0.07898   0.55973   0.00000  Uiso   1.00
N68    N     0.00876   0.03233   0.44391   0.00000  Uiso   1.00
H69    H     0.03805  -0.02012   0.14203   0.00000  Uiso   1.00
H70    H     0.11233  -0.00538   0.12609   0.00000  Uiso   1.00
N71    N     0.18223   0.06439   0.37718   0.00000  Uiso   1.00
H72    H     0.15338   0.11725   0.66545   0.00000  Uiso   1.00
H73    H     0.07904   0.10264   0.68555   0.00000  Uiso   1.00
H74    H     0.18497   0.03685   0.39070   0.00000  Uiso   1.00
H75    H     0.00431   0.05665   0.56427   0.00000  Uiso   1.00
C76    C     0.65694   0.25068   0.68071   0.00000  Uiso   1.00
C77    C     0.69750   0.28191   0.53757   0.00000  Uiso   1.00
C78    C     0.73217   0.27430   0.51816   0.00000  Uiso   1.00
C79    C     0.72695   0.23515   0.63352   0.00000  Uiso   1.00
C80    C     0.68642   0.20399   0.77722   0.00000  Uiso   1.00
C81    C     0.65173   0.21156   0.79686   0.00000  Uiso   1.00
N82    N     0.62065   0.25760   0.70610   0.00000  Uiso   1.00
H83    H     0.70248   0.31196   0.43556   0.00000  Uiso   1.00
H84    H     0.76316   0.29880   0.40801   0.00000  Uiso   1.00
N85    N     0.76396   0.22919   0.62134   0.00000  Uiso   1.00
H86    H     0.68157   0.17419   0.88259   0.00000  Uiso   1.00
H87    H     0.62088   0.18715   0.90992   0.00000  Uiso   1.00
C88    C     0.76420   0.18944   0.55103   0.00000  Uiso   1.00
H89    H     0.79415   0.25710   0.64998   0.00000  Uiso   1.00
S90    S     0.72771   0.15281   0.38674   0.00000  Uiso   1.00
H91    H     0.59056   0.23139   0.77928   0.00000  Uiso   1.00
C92    C     0.82864   0.08506   0.52989   0.00000  Uiso   1.00
C93    C     0.78955   0.07948   0.68250   0.00000  Uiso   1.00
C94    C     0.78114   0.11350   0.69815   0.00000  Uiso   1.00
C95    C     0.81152   0.15386   0.55638   0.00000  Uiso   1.00
C96    C     0.85068   0.15959   0.40567   0.00000  Uiso   1.00
C97    C     0.85905   0.12553   0.38777   0.00000  Uiso   1.00
N98    N     0.83613   0.04920   0.52068   0.00000  Uiso   1.00
H99    H     0.76572   0.04876   0.79545   0.00000  Uiso   1.00
H100   H     0.75137   0.10831   0.82931   0.00000  Uiso   1.00
N101   N     0.80472   0.19023   0.58050   0.00000  Uiso   1.00
H102   H     0.87458   0.19049   0.29610   0.00000  Uiso   1.00
H103   H     0.88905   0.13113   0.25811   0.00000  Uiso   1.00
H104   H     0.83245   0.22061   0.60618   0.00000  Uiso   1.00
H105   H     0.81166   0.02035   0.63045   0.00000  Uiso   1.00
C106   C     0.97118  -0.00842   0.35734   0.00000  Uiso   1.00
C107   C     0.84379  -0.02624   0.27851   0.00000  Uiso   1.00
C108   C     0.84974  -0.06396   0.30868   0.00000  Uiso   1.00
C109   C     0.89420  -0.05681   0.24826   0.00000  Uiso   1.00
C110   C     0.93221  -0.01291   0.29241   0.00000  Uiso   1.00
C111   C     0.92522   0.02427   0.26291   0.00000  Uiso   1.00
C112   C     0.88125   0.01814   0.32352   0.00000  Uiso   1.00
O113   O     0.89964  -0.08650   0.14573   0.00000  Uiso   1.00
O114   O     0.95509   0.05946   0.17232   0.00000  Uiso   1.00
O115   O     0.80852  -0.03184   0.19996   0.00000  Uiso   1.00
C116   C     0.87693   0.05258   0.41676   0.00000  Uiso   1.00
C117   C     0.81508  -0.10283   0.38939   0.00000  Uiso   1.00
H118   H     0.78371  -0.10535   0.42308   0.00000  Uiso   1.00
H119   H     0.97354  -0.03722   0.36890   0.00000  Uiso   1.00
H120   H     0.90592   0.08389   0.43812   0.00000  Uiso   1.00
loop_
_geom_bond_atom_site_label_1
_geom_bond_atom_site_label_2
_geom_bond_distance
_geom_bond_site_symmetry_2
_ccdc_geom_bond_type
C1     C2      1.406   .     D
C1     C6      1.401   .     S
C1     N7      1.437   .     S
C2     C3      1.397   .     S
C2     H8      1.080   .     S
C3     C4      1.403   .     D
C3     H9      1.083   .     S
C4     C5      1.406   .     S
C4     N10     1.444   .     S
C5     C6      1.397   .     D
C5     H11     1.079   .     S
C6     H12     1.083   .     S
N7     C16     1.439   .     S
N7     H17     1.042   .     S
N10    C13     1.445   .     S
N10    H14     1.045   .     S
C13    S15     1.441   .     D
C13    N28     1.445   .     S
C16    H18     1.081   .     S
C16    C36     1.351   .     D
C19    C20     1.403   .     D
C19    C24     1.408   .     S
C19    N25     1.441   .     S
C20    C21     1.397   .     S
C20    H26     1.083   .     S
C21    C22     1.405   .     D
C21    H27     1.079   .     S
C22    C23     1.402   .     S
C22    N28     1.443   .     S
C23    C24     1.398   .     D
C23    H29     1.083   .     S
C24    H30     1.080   .     S
N25    H32     1.044   .     S
N25    C117    1.438   1_565 S
N28    H31     1.045   .     S
C33    C34     1.492   .     S
C33    C38     1.489   .     S
C33    O41     1.220   .     D
C34    C35     1.488   .     S
C34    C43     1.354   .     D
C35    C36     1.484   .     S
C35    O39     1.220   .     D
C36    C37     1.477   .     S
C37    C38     1.486   .     S
C37    O40     1.220   .     D
C38    C42     1.354   .     D
C42    H44     1.081   .     S
C42    N52     1.439   .     S
C43    H45     1.083   .     S
C43    N82     1.437   .     S
C46    C47     1.401   .     D
C46    C51     1.406   .     S
C46    N52     1.437   .     S
C47    C48     1.397   .     S
C47    H53     1.083   .     S
C48    C49     1.406   .     D
C48    H54     1.079   .     S
C49    C50     1.402   .     S
C49    N55     1.444   .     S
C50    C51     1.397   .     D
C50    H56     1.083   .     S
C51    H57     1.081   .     S
N52    H61     1.042   .     S
N55    C58     1.446   .     S
N55    H59     1.045   .     S
C58    S60     1.441   .     D
C58    N71     1.445   .     S
C62    C63     1.408   .     D
C62    C67     1.403   .     S
C62    N68     1.441   .     S
C63    C64     1.398   .     S
C63    H69     1.080   .     S
C64    C65     1.402   .     D
C64    H70     1.083   .     S
C65    C66     1.405   .     S
C65    N71     1.443   .     S
C66    C67     1.397   .     D
C66    H72     1.080   .     S
C67    H73     1.083   .     S
N68    H75     1.044   .     S
N68    C106    1.438   1_455 S
N71    H74     1.045   .     S
C76    C77     1.407   .     D
C76    C81     1.403   .     S
C76    N82     1.439   .     S
C77    C78     1.397   .     S
C77    H83     1.081   .     S
C78    C79     1.402   .     D
C78    H84     1.083   .     S
C79    C80     1.406   .     S
C79    N85     1.443   .     S
C80    C81     1.397   .     D
C80    H86     1.079   .     S
C81    H87     1.083   .     S
N82    H91     1.044   .     S
N85    C88     1.445   .     S
N85    H89     1.045   .     S
C88    S90     1.442   .     D
C88    N101    1.445   .     S
C92    C93     1.404   .     D
C92    C97     1.408   .     S
C92    N98     1.441   .     S
C93    C94     1.397   .     S
C93    H99     1.083   .     S
C94    C95     1.405   .     D
C94    H100    1.079   .     S
C95    C96     1.401   .     S
C95    N101    1.443   .     S
C96    C97     1.397   .     D
C96    H102    1.083   .     S
C97    H103    1.080   .     S
N98    H105    1.044   .     S
N98    C116    1.438   .     S
N101   H104    1.045   .     S
C106   N68     1.438   1_655 S
C106   C110    1.352   .     D
C106   H119    1.082   .     S
C107   C108    1.482   .     S
C107   C112    1.486   .     S
C107   O115    1.220   .     D
C108   C109    1.486   .     S
C108   C117    1.352   .     D
C109   C110    1.483   .     S
C109   O113    1.221   .     D
C110   C111    1.486   .     S
C111   C112    1.482   .     S
C111   O114    1.220   .     D
C112   C116    1.352   .     D
C116   H120    1.082   .     S
C117   N25     1.438   1_545 S
C117   H118    1.082   .     S
