data_175
_audit_creation_date              2023-09-08
_audit_creation_method            'Materials Studio'
_symmetry_space_group_name_H-M    'P1'
_symmetry_Int_Tables_number       1
_symmetry_cell_setting            triclinic
loop_
_symmetry_equiv_pos_as_xyz
  x,y,z
_cell_length_a                    45.4367
_cell_length_b                    45.4367
_cell_length_c                    3.4519
_cell_angle_alpha                 90.0000
_cell_angle_beta                  90.0000
_cell_angle_gamma                 120.0000
loop_
_atom_site_label
_atom_site_type_symbol
_atom_site_fract_x
_atom_site_fract_y
_atom_site_fract_z
_atom_site_U_iso_or_equiv
_atom_site_adp_type
_atom_site_occupancy
N1     N     0.30934   0.67712   0.00000   0.00000  Uiso   1.00
N2     N     0.46065   0.53298   0.00000   0.00000  Uiso   1.00
C3     C     0.34271   0.70105   0.00000   0.00000  Uiso   1.00
C4     C     0.26469   0.61676   0.00000   0.00000  Uiso   1.00
C5     C     0.23869   0.62476   0.00000   0.00000  Uiso   1.00
C6     C     0.40066   0.60247   0.00000   0.00000  Uiso   1.00
C7     C     0.43601   0.62508   0.00000   0.00000  Uiso   1.00
C8     C     0.45868   0.61273   0.00000   0.00000  Uiso   1.00
C9     C     0.44665   0.57769   0.00000   0.00000  Uiso   1.00
C10    C     0.41144   0.55507   0.00000   0.00000  Uiso   1.00
C11    C     0.38876   0.56737   0.00000   0.00000  Uiso   1.00
C12    C     0.47117   0.56536   0.00000   0.00000  Uiso   1.00
C13    C     0.48121   0.51709   0.00000   0.00000  Uiso   1.00
C14    C     0.51700   0.53553   0.00000   0.00000  Uiso   1.00
C15    C     0.53543   0.51845   0.00000   0.00000  Uiso   1.00
H16    H     0.25878   0.59061   0.00000   0.00000  Uiso   1.00
H17    H     0.24560   0.65130   0.00000   0.00000  Uiso   1.00
H18    H     0.44664   0.65227   0.00000   0.00000  Uiso   1.00
H19    H     0.48573   0.63065   0.00000   0.00000  Uiso   1.00
H20    H     0.40137   0.52786   0.00000   0.00000  Uiso   1.00
H21    H     0.36174   0.54932   0.00000   0.00000  Uiso   1.00
H22    H     0.49793   0.58396   0.00000   0.00000  Uiso   1.00
H23    H     0.53112   0.56294   0.00000   0.00000  Uiso   1.00
H24    H     0.56293   0.53301   0.00000   0.00000  Uiso   1.00
N25    N     0.32288   0.63222   0.00000   0.00000  Uiso   1.00
N26    N     0.46702   0.92767   0.00000   0.00000  Uiso   1.00
C27    C     0.29895   0.64166   0.00000   0.00000  Uiso   1.00
C28    C     0.38324   0.64793   0.00000   0.00000  Uiso   1.00
C29    C     0.37524   0.61393   0.00000   0.00000  Uiso   1.00
C30    C     0.39753   0.79819   0.00000   0.00000  Uiso   1.00
C31    C     0.37492   0.81093   0.00000   0.00000  Uiso   1.00
C32    C     0.38727   0.84595   0.00000   0.00000  Uiso   1.00
C33    C     0.42231   0.86896   0.00000   0.00000  Uiso   1.00
C34    C     0.44493   0.85637   0.00000   0.00000  Uiso   1.00
C35    C     0.43263   0.82139   0.00000   0.00000  Uiso   1.00
C36    C     0.43464   0.90581   0.00000   0.00000  Uiso   1.00
C37    C     0.48291   0.96412   0.00000   0.00000  Uiso   1.00
C38    C     0.46447   0.98147   0.00000   0.00000  Uiso   1.00
C39    C     0.48155   0.01698   0.00000   0.00000  Uiso   1.00
H40    H     0.40939   0.66817   0.00000   0.00000  Uiso   1.00
H41    H     0.34870   0.59430   0.00000   0.00000  Uiso   1.00
H42    H     0.34773   0.79437   0.00000   0.00000  Uiso   1.00
H43    H     0.36935   0.85508   0.00000   0.00000  Uiso   1.00
H44    H     0.47214   0.87351   0.00000   0.00000  Uiso   1.00
H45    H     0.45068   0.81242   0.00000   0.00000  Uiso   1.00
H46    H     0.41604   0.91397   0.00000   0.00000  Uiso   1.00
H47    H     0.43706   0.96818   0.00000   0.00000  Uiso   1.00
H48    H     0.46699   0.02992   0.00000   0.00000  Uiso   1.00
N49    N     0.36778   0.69066   0.00000   0.00000  Uiso   1.00
N50    N     0.07233   0.53935   0.00000   0.00000  Uiso   1.00
C51    C     0.35834   0.65729   0.00000   0.00000  Uiso   1.00
C52    C     0.35207   0.73531   0.00000   0.00000  Uiso   1.00
C53    C     0.38607   0.76131   0.00000   0.00000  Uiso   1.00
C54    C     0.20181   0.59934   0.00000   0.00000  Uiso   1.00
C55    C     0.18907   0.56399   0.00000   0.00000  Uiso   1.00
C56    C     0.15405   0.54132   0.00000   0.00000  Uiso   1.00
C57    C     0.13104   0.55335   0.00000   0.00000  Uiso   1.00
C58    C     0.14363   0.58856   0.00000   0.00000  Uiso   1.00
C59    C     0.17861   0.61124   0.00000   0.00000  Uiso   1.00
C60    C     0.09419   0.52883   0.00000   0.00000  Uiso   1.00
C61    C     0.03588   0.51879   0.00000   0.00000  Uiso   1.00
C62    C     0.01853   0.48300   0.00000   0.00000  Uiso   1.00
C63    C     0.98302   0.46457   0.00000   0.00000  Uiso   1.00
H64    H     0.33183   0.74122   0.00000   0.00000  Uiso   1.00
H65    H     0.40570   0.75440   0.00000   0.00000  Uiso   1.00
H66    H     0.20563   0.55336   0.00000   0.00000  Uiso   1.00
H67    H     0.14492   0.51427   0.00000   0.00000  Uiso   1.00
H68    H     0.12649   0.59863   0.00000   0.00000  Uiso   1.00
H69    H     0.18758   0.63826   0.00000   0.00000  Uiso   1.00
H70    H     0.08603   0.50207   0.00000   0.00000  Uiso   1.00
H71    H     0.03182   0.46888   0.00000   0.00000  Uiso   1.00
H72    H     0.97008   0.43707   0.00000   0.00000  Uiso   1.00
N73    N     0.69066   0.32288   0.00000   0.00000  Uiso   1.00
N74    N     0.53935   0.46702   0.00000   0.00000  Uiso   1.00
C75    C     0.65729   0.29895   0.00000   0.00000  Uiso   1.00
C76    C     0.73531   0.38324   0.00000   0.00000  Uiso   1.00
C77    C     0.76131   0.37524   0.00000   0.00000  Uiso   1.00
C78    C     0.59934   0.39753   0.00000   0.00000  Uiso   1.00
C79    C     0.56399   0.37492   0.00000   0.00000  Uiso   1.00
C80    C     0.54132   0.38727   0.00000   0.00000  Uiso   1.00
C81    C     0.55335   0.42231   0.00000   0.00000  Uiso   1.00
C82    C     0.58856   0.44493   0.00000   0.00000  Uiso   1.00
C83    C     0.61124   0.43263   0.00000   0.00000  Uiso   1.00
C84    C     0.52883   0.43464   0.00000   0.00000  Uiso   1.00
C85    C     0.51879   0.48291   0.00000   0.00000  Uiso   1.00
C86    C     0.48300   0.46447   0.00000   0.00000  Uiso   1.00
C87    C     0.46457   0.48155   0.00000   0.00000  Uiso   1.00
H88    H     0.74122   0.40939   0.00000   0.00000  Uiso   1.00
H89    H     0.75440   0.34870   0.00000   0.00000  Uiso   1.00
H90    H     0.55336   0.34773   0.00000   0.00000  Uiso   1.00
H91    H     0.51427   0.36935   0.00000   0.00000  Uiso   1.00
H92    H     0.59863   0.47214   0.00000   0.00000  Uiso   1.00
H93    H     0.63826   0.45068   0.00000   0.00000  Uiso   1.00
H94    H     0.50207   0.41604   0.00000   0.00000  Uiso   1.00
H95    H     0.46888   0.43706   0.00000   0.00000  Uiso   1.00
H96    H     0.43707   0.46699   0.00000   0.00000  Uiso   1.00
N97    N     0.67712   0.36778   0.00000   0.00000  Uiso   1.00
N98    N     0.53298   0.07233   0.00000   0.00000  Uiso   1.00
C99    C     0.70105   0.35834   0.00000   0.00000  Uiso   1.00
C100   C     0.61676   0.35207   0.00000   0.00000  Uiso   1.00
C101   C     0.62476   0.38607   0.00000   0.00000  Uiso   1.00
C102   C     0.60247   0.20181   0.00000   0.00000  Uiso   1.00
C103   C     0.62508   0.18907   0.00000   0.00000  Uiso   1.00
C104   C     0.61273   0.15405   0.00000   0.00000  Uiso   1.00
C105   C     0.57769   0.13104   0.00000   0.00000  Uiso   1.00
C106   C     0.55507   0.14363   0.00000   0.00000  Uiso   1.00
C107   C     0.56737   0.17861   0.00000   0.00000  Uiso   1.00
C108   C     0.56536   0.09419   0.00000   0.00000  Uiso   1.00
C109   C     0.51709   0.03588   0.00000   0.00000  Uiso   1.00
C110   C     0.53553   0.01853   0.00000   0.00000  Uiso   1.00
C111   C     0.51845   0.98302   0.00000   0.00000  Uiso   1.00
H112   H     0.59061   0.33183   0.00000   0.00000  Uiso   1.00
H113   H     0.65130   0.40570   0.00000   0.00000  Uiso   1.00
H114   H     0.65227   0.20563   0.00000   0.00000  Uiso   1.00
H115   H     0.63065   0.14492   0.00000   0.00000  Uiso   1.00
H116   H     0.52786   0.12649   0.00000   0.00000  Uiso   1.00
H117   H     0.54932   0.18758   0.00000   0.00000  Uiso   1.00
H118   H     0.58396   0.08603   0.00000   0.00000  Uiso   1.00
H119   H     0.56294   0.03182   0.00000   0.00000  Uiso   1.00
H120   H     0.53301   0.97008   0.00000   0.00000  Uiso   1.00
N121   N     0.63222   0.30934   0.00000   0.00000  Uiso   1.00
N122   N     0.92767   0.46065   0.00000   0.00000  Uiso   1.00
C123   C     0.64166   0.34271   0.00000   0.00000  Uiso   1.00
C124   C     0.64793   0.26469   0.00000   0.00000  Uiso   1.00
C125   C     0.61393   0.23869   0.00000   0.00000  Uiso   1.00
C126   C     0.79819   0.40066   0.00000   0.00000  Uiso   1.00
C127   C     0.81093   0.43601   0.00000   0.00000  Uiso   1.00
C128   C     0.84595   0.45868   0.00000   0.00000  Uiso   1.00
C129   C     0.86896   0.44665   0.00000   0.00000  Uiso   1.00
C130   C     0.85637   0.41144   0.00000   0.00000  Uiso   1.00
C131   C     0.82139   0.38876   0.00000   0.00000  Uiso   1.00
C132   C     0.90581   0.47117   0.00000   0.00000  Uiso   1.00
C133   C     0.96412   0.48121   0.00000   0.00000  Uiso   1.00
C134   C     0.98147   0.51700   0.00000   0.00000  Uiso   1.00
C135   C     0.01698   0.53543   0.00000   0.00000  Uiso   1.00
H136   H     0.66817   0.25878   0.00000   0.00000  Uiso   1.00
H137   H     0.59430   0.24560   0.00000   0.00000  Uiso   1.00
H138   H     0.79437   0.44664   0.00000   0.00000  Uiso   1.00
H139   H     0.85508   0.48573   0.00000   0.00000  Uiso   1.00
H140   H     0.87351   0.40137   0.00000   0.00000  Uiso   1.00
H141   H     0.81242   0.36174   0.00000   0.00000  Uiso   1.00
H142   H     0.91397   0.49793   0.00000   0.00000  Uiso   1.00
H143   H     0.96818   0.53112   0.00000   0.00000  Uiso   1.00
H144   H     0.02992   0.56293   0.00000   0.00000  Uiso   1.00
loop_
_geom_bond_atom_site_label_1
_geom_bond_atom_site_label_2
_geom_bond_distance
_geom_bond_site_symmetry_2
_ccdc_geom_bond_type
N1     C3      1.354   .     S
N1     C27     1.435   .     D
N2     C12     1.300   .     D
N2     C13     1.438   .     S
C3     N49     1.435   .     D
C3     C52     1.394   .     S
C4     C5      1.399   .     D
C4     H16     1.079   .     S
C4     C27     1.394   .     S
C5     H17     1.084   .     S
C5     C54     1.485   .     S
C6     C7      1.409   .     D
C6     C11     1.405   .     S
C6     C29     1.485   .     S
C7     C8      1.398   .     S
C7     H18     1.078   .     S
C8     C9      1.401   .     D
C8     H19     1.083   .     S
C9     C10     1.404   .     S
C9     C12     1.476   .     S
C10    C11     1.396   .     D
C10    H20     1.083   .     S
C11    H21     1.083   .     S
C12    H22     1.079   .     S
C13    C14     1.409   .     D
C13    C87     1.399   .     S
C14    C15     1.398   .     S
C14    H23     1.079   .     S
C15    H24     1.083   .     S
C15    C85     1.399   .     D
N25    C27     1.354   .     S
N25    C51     1.435   .     D
N26    C36     1.300   .     D
N26    C37     1.438   .     S
C28    C29     1.399   .     D
C28    H40     1.079   .     S
C28    C51     1.394   .     S
C29    H41     1.084   .     S
C30    C31     1.409   .     D
C30    C35     1.405   .     S
C30    C53     1.485   .     S
C31    C32     1.398   .     S
C31    H42     1.078   .     S
C32    C33     1.401   .     D
C32    H43     1.083   .     S
C33    C34     1.404   .     S
C33    C36     1.476   .     S
C34    C35     1.396   .     D
C34    H44     1.083   .     S
C35    H45     1.083   .     S
C36    H46     1.079   .     S
C37    C38     1.409   .     D
C37    C111    1.399   .     S
C38    C39     1.398   1_565 S
C38    H47     1.079   .     S
C39    C38     1.398   1_545 S
C39    H48     1.083   .     S
C39    C109    1.399   .     D
N49    C51     1.354   .     S
N50    C60     1.300   .     D
N50    C61     1.438   .     S
C52    C53     1.399   .     D
C52    H64     1.079   .     S
C53    H65     1.084   .     S
C54    C55     1.409   .     S
C54    C59     1.405   .     D
C55    C56     1.398   .     D
C55    H66     1.078   .     S
C56    C57     1.401   .     S
C56    H67     1.083   .     S
C57    C58     1.404   .     D
C57    C60     1.476   .     S
C58    C59     1.396   .     S
C58    H68     1.083   .     S
C59    H69     1.083   .     S
C60    H70     1.079   .     S
C61    C62     1.409   .     S
C61    C135    1.399   .     D
C62    C63     1.398   1_455 D
C62    H71     1.079   .     S
C63    C62     1.398   1_655 D
C63    H72     1.083   .     S
C63    C133    1.399   .     S
N73    C75     1.354   .     D
N73    C99     1.435   .     S
N74    C84     1.300   .     D
N74    C85     1.438   .     S
C75    N121    1.435   .     S
C75    C124    1.394   .     S
C76    C77     1.399   .     D
C76    H88     1.079   .     S
C76    C99     1.394   .     S
C77    H89     1.084   .     S
C77    C126    1.485   .     S
C78    C79     1.409   .     S
C78    C83     1.405   .     D
C78    C101    1.485   .     S
C79    C80     1.398   .     D
C79    H90     1.078   .     S
C80    C81     1.401   .     S
C80    H91     1.083   .     S
C81    C82     1.404   .     D
C81    C84     1.476   .     S
C82    C83     1.396   .     S
C82    H92     1.083   .     S
C83    H93     1.083   .     S
C84    H94     1.079   .     S
C85    C86     1.409   .     S
C86    C87     1.398   .     D
C86    H95     1.079   .     S
C87    H96     1.083   .     S
N97    C99     1.354   .     D
N97    C123    1.435   .     S
N98    C108    1.300   .     D
N98    C109    1.438   .     S
C100   C101    1.399   .     D
C100   H112    1.079   .     S
C100   C123    1.394   .     S
C101   H113    1.084   .     S
C102   C103    1.409   .     D
C102   C107    1.405   .     S
C102   C125    1.485   .     S
C103   C104    1.398   .     S
C103   H114    1.078   .     S
C104   C105    1.401   .     D
C104   H115    1.083   .     S
C105   C106    1.404   .     S
C105   C108    1.476   .     S
C106   C107    1.396   .     D
C106   H116    1.083   .     S
C107   H117    1.083   .     S
C108   H118    1.079   .     S
C109   C110    1.409   .     S
C110   C111    1.398   1_545 D
C110   H119    1.079   .     S
C111   C110    1.398   1_565 D
C111   H120    1.083   .     S
N121   C123    1.354   .     D
N122   C132    1.300   .     D
N122   C133    1.438   .     S
C124   C125    1.399   .     D
C124   H136    1.079   .     S
C125   H137    1.084   .     S
C126   C127    1.409   .     D
C126   C131    1.405   .     S
C127   C128    1.398   .     S
C127   H138    1.078   .     S
C128   C129    1.401   .     D
C128   H139    1.083   .     S
C129   C130    1.404   .     S
C129   C132    1.476   .     S
C130   C131    1.396   .     D
C130   H140    1.083   .     S
C131   H141    1.083   .     S
C132   H142    1.079   .     S
C133   C134    1.409   .     D
C134   C135    1.398   1_655 S
C134   H143    1.079   .     S
C135   C134    1.398   1_455 S
C135   H144    1.083   .     S
