data_176
_audit_creation_date              2023-09-08
_audit_creation_method            'Materials Studio'
_symmetry_space_group_name_H-M    'P1'
_symmetry_Int_Tables_number       1
_symmetry_cell_setting            triclinic
loop_
_symmetry_equiv_pos_as_xyz
  x,y,z
_cell_length_a                    37.7236
_cell_length_b                    37.7236
_cell_length_c                    3.6234
_cell_angle_alpha                 90.0000
_cell_angle_beta                  90.0000
_cell_angle_gamma                 120.0000
loop_
_atom_site_label
_atom_site_type_symbol
_atom_site_fract_x
_atom_site_fract_y
_atom_site_fract_z
_atom_site_U_iso_or_equiv
_atom_site_adp_type
_atom_site_occupancy
C1     C     0.28996   0.64350   0.53877   0.00000  Uiso   1.00
C2     C     0.35650   0.64646   0.53877   0.00000  Uiso   1.00
C3     C     0.35354   0.71004   0.53877   0.00000  Uiso   1.00
C4     C     0.71004   0.35650   0.53877   0.00000  Uiso   1.00
C5     C     0.64350   0.35354   0.53877   0.00000  Uiso   1.00
C6     C     0.64646   0.28996   0.53877   0.00000  Uiso   1.00
C7     C     0.31345   0.62398   0.53879   0.00000  Uiso   1.00
C8     C     0.37602   0.68946   0.53879   0.00000  Uiso   1.00
C9     C     0.31054   0.68656   0.53879   0.00000  Uiso   1.00
C10    C     0.68656   0.37602   0.53879   0.00000  Uiso   1.00
C11    C     0.62398   0.31054   0.53879   0.00000  Uiso   1.00
C12    C     0.68946   0.31345   0.53879   0.00000  Uiso   1.00
C13    C     0.24408   0.61901   0.53876   0.00000  Uiso   1.00
C14    C     0.38099   0.62507   0.53876   0.00000  Uiso   1.00
C15    C     0.37493   0.75592   0.53876   0.00000  Uiso   1.00
C16    C     0.75592   0.38099   0.53876   0.00000  Uiso   1.00
C17    C     0.61901   0.37493   0.53876   0.00000  Uiso   1.00
C18    C     0.62507   0.24408   0.53876   0.00000  Uiso   1.00
C19    C     0.36515   0.58573   0.38320   0.00000  Uiso   1.00
C20    C     0.41428   0.77943   0.38320   0.00000  Uiso   1.00
C21    C     0.22057   0.63485   0.38320   0.00000  Uiso   1.00
C22    C     0.63485   0.41428   0.38320   0.00000  Uiso   1.00
C23    C     0.58573   0.22057   0.38320   0.00000  Uiso   1.00
C24    C     0.77943   0.36515   0.38320   0.00000  Uiso   1.00
C25    C     0.38781   0.56558   0.38696   0.00000  Uiso   1.00
C26    C     0.43442   0.82224   0.38696   0.00000  Uiso   1.00
C27    C     0.17777   0.61219   0.38696   0.00000  Uiso   1.00
C28    C     0.61219   0.43442   0.38696   0.00000  Uiso   1.00
C29    C     0.56558   0.17777   0.38696   0.00000  Uiso   1.00
C30    C     0.82224   0.38782   0.38696   0.00000  Uiso   1.00
C31    C     0.42730   0.58457   0.54117   0.00000  Uiso   1.00
C32    C     0.41543   0.84273   0.54117   0.00000  Uiso   1.00
C33    C     0.15727   0.57270   0.54117   0.00000  Uiso   1.00
C34    C     0.57270   0.41543   0.54117   0.00000  Uiso   1.00
C35    C     0.58457   0.15727   0.54117   0.00000  Uiso   1.00
C36    C     0.84273   0.42730   0.54117   0.00000  Uiso   1.00
C37    C     0.44348   0.62383   0.68899   0.00000  Uiso   1.00
C38    C     0.37617   0.81965   0.68899   0.00000  Uiso   1.00
C39    C     0.18035   0.55652   0.68899   0.00000  Uiso   1.00
C40    C     0.55652   0.37617   0.68899   0.00000  Uiso   1.00
C41    C     0.62383   0.18035   0.68899   0.00000  Uiso   1.00
C42    C     0.81965   0.44348   0.68899   0.00000  Uiso   1.00
C43    C     0.42060   0.64372   0.69317   0.00000  Uiso   1.00
C44    C     0.35628   0.77688   0.69317   0.00000  Uiso   1.00
C45    C     0.22312   0.57940   0.69317   0.00000  Uiso   1.00
C46    C     0.57940   0.35628   0.69317   0.00000  Uiso   1.00
C47    C     0.64372   0.22312   0.69317   0.00000  Uiso   1.00
C48    C     0.77688   0.42060   0.69317   0.00000  Uiso   1.00
N49    N     0.45237   0.56579   0.54845   0.00000  Uiso   1.00
N50    N     0.43421   0.88658   0.54845   0.00000  Uiso   1.00
N51    N     0.11342   0.54763   0.54845   0.00000  Uiso   1.00
N52    N     0.54763   0.43421   0.54845   0.00000  Uiso   1.00
N53    N     0.56579   0.11342   0.54845   0.00000  Uiso   1.00
N54    N     0.88658   0.45237   0.54845   0.00000  Uiso   1.00
C55    C     0.44087   0.52778   0.47495   0.00000  Uiso   1.00
C56    C     0.47222   0.91309   0.47495   0.00000  Uiso   1.00
C57    C     0.08691   0.55913   0.47495   0.00000  Uiso   1.00
C58    C     0.55913   0.47222   0.47495   0.00000  Uiso   1.00
C59    C     0.52778   0.08691   0.47495   0.00000  Uiso   1.00
C60    C     0.91309   0.44087   0.47495   0.00000  Uiso   1.00
C61    C     0.47066   0.51297   0.49040   0.00000  Uiso   1.00
C62    C     0.48704   0.95769   0.49040   0.00000  Uiso   1.00
C63    C     0.04231   0.52934   0.49040   0.00000  Uiso   1.00
C64    C     0.52934   0.48704   0.49040   0.00000  Uiso   1.00
C65    C     0.51297   0.04231   0.49040   0.00000  Uiso   1.00
C66    C     0.95769   0.47066   0.49040   0.00000  Uiso   1.00
C67    C     0.45768   0.47070   0.49323   0.00000  Uiso   1.00
C68    C     0.52930   0.98698   0.49323   0.00000  Uiso   1.00
C69    C     0.01302   0.54232   0.49323   0.00000  Uiso   1.00
C70    C     0.54232   0.52930   0.49323   0.00000  Uiso   1.00
C71    C     0.47070   0.01302   0.49323   0.00000  Uiso   1.00
C72    C     0.98698   0.45768   0.49323   0.00000  Uiso   1.00
C73    C     0.48724   0.45842   0.49440   0.00000  Uiso   1.00
C74    C     0.54158   0.02882   0.49440   0.00000  Uiso   1.00
C75    C     0.97118   0.51276   0.49440   0.00000  Uiso   1.00
C76    C     0.51276   0.54158   0.49440   0.00000  Uiso   1.00
C77    C     0.45842   0.97118   0.49440   0.00000  Uiso   1.00
C78    C     0.02882   0.48724   0.49440   0.00000  Uiso   1.00
C79    C     0.41361   0.43929   0.52120   0.00000  Uiso   1.00
C80    C     0.56071   0.97432   0.52120   0.00000  Uiso   1.00
C81    C     0.02568   0.58639   0.52120   0.00000  Uiso   1.00
C82    C     0.58639   0.56071   0.52120   0.00000  Uiso   1.00
C83    C     0.43929   0.02568   0.52120   0.00000  Uiso   1.00
C84    C     0.97432   0.41361   0.52120   0.00000  Uiso   1.00
C85    C     0.60250   0.59762   0.36574   0.00000  Uiso   1.00
C86    C     0.40238   0.00487   0.36574   0.00000  Uiso   1.00
C87    C     0.99513   0.39750   0.36574   0.00000  Uiso   1.00
C88    C     0.39751   0.40238   0.36574   0.00000  Uiso   1.00
C89    C     0.59762   0.99513   0.36574   0.00000  Uiso   1.00
C90    C     0.00487   0.60250   0.36574   0.00000  Uiso   1.00
H91    H     0.29810   0.59104   0.53877   0.00000  Uiso   1.00
H92    H     0.40896   0.70706   0.53877   0.00000  Uiso   1.00
H93    H     0.29294   0.70190   0.53877   0.00000  Uiso   1.00
H94    H     0.70190   0.40896   0.53877   0.00000  Uiso   1.00
H95    H     0.59104   0.29294   0.53877   0.00000  Uiso   1.00
H96    H     0.70706   0.29810   0.53877   0.00000  Uiso   1.00
H97    H     0.33586   0.57087   0.24460   0.00000  Uiso   1.00
H98    H     0.42913   0.76499   0.24460   0.00000  Uiso   1.00
H99    H     0.23501   0.66414   0.24460   0.00000  Uiso   1.00
H100   H     0.66414   0.42913   0.24460   0.00000  Uiso   1.00
H101   H     0.57087   0.23501   0.24460   0.00000  Uiso   1.00
H102   H     0.76499   0.33586   0.24460   0.00000  Uiso   1.00
H103   H     0.37480   0.53601   0.25589   0.00000  Uiso   1.00
H104   H     0.46399   0.83879   0.25589   0.00000  Uiso   1.00
H105   H     0.16121   0.62520   0.25589   0.00000  Uiso   1.00
H106   H     0.62520   0.46399   0.25589   0.00000  Uiso   1.00
H107   H     0.53601   0.16121   0.25589   0.00000  Uiso   1.00
H108   H     0.83879   0.37480   0.25589   0.00000  Uiso   1.00
H109   H     0.47367   0.63845   0.81162   0.00000  Uiso   1.00
H110   H     0.36155   0.83522   0.81162   0.00000  Uiso   1.00
H111   H     0.16478   0.52633   0.81162   0.00000  Uiso   1.00
H112   H     0.52633   0.36155   0.81162   0.00000  Uiso   1.00
H113   H     0.63845   0.16478   0.81162   0.00000  Uiso   1.00
H114   H     0.83522   0.47367   0.81162   0.00000  Uiso   1.00
H115   H     0.43365   0.67307   0.82959   0.00000  Uiso   1.00
H116   H     0.32693   0.76058   0.82959   0.00000  Uiso   1.00
H117   H     0.23942   0.56635   0.82959   0.00000  Uiso   1.00
H118   H     0.56635   0.32693   0.82959   0.00000  Uiso   1.00
H119   H     0.67307   0.23942   0.82959   0.00000  Uiso   1.00
H120   H     0.76058   0.43365   0.82959   0.00000  Uiso   1.00
H121   H     0.40951   0.50648   0.40332   0.00000  Uiso   1.00
H122   H     0.49352   0.90302   0.40332   0.00000  Uiso   1.00
H123   H     0.09698   0.59049   0.40332   0.00000  Uiso   1.00
H124   H     0.59049   0.49352   0.40332   0.00000  Uiso   1.00
H125   H     0.50648   0.09698   0.40332   0.00000  Uiso   1.00
H126   H     0.90302   0.40951   0.40332   0.00000  Uiso   1.00
H127   H     0.47746   0.42616   0.50455   0.00000  Uiso   1.00
H128   H     0.57384   0.05130   0.50455   0.00000  Uiso   1.00
H129   H     0.94870   0.52254   0.50455   0.00000  Uiso   1.00
H130   H     0.52254   0.57384   0.50455   0.00000  Uiso   1.00
H131   H     0.42616   0.94870   0.50455   0.00000  Uiso   1.00
H132   H     0.05130   0.47746   0.50455   0.00000  Uiso   1.00
H133   H     0.58441   0.60627   0.19597   0.00000  Uiso   1.00
H134   H     0.39373   0.97815   0.19597   0.00000  Uiso   1.00
H135   H     0.02185   0.41559   0.19597   0.00000  Uiso   1.00
H136   H     0.41559   0.39373   0.19597   0.00000  Uiso   1.00
H137   H     0.60627   0.02185   0.19597   0.00000  Uiso   1.00
H138   H     0.97815   0.58441   0.19597   0.00000  Uiso   1.00
H139   H     0.63479   0.61939   0.39759   0.00000  Uiso   1.00
H140   H     0.38061   0.01541   0.39759   0.00000  Uiso   1.00
H141   H     0.98459   0.36521   0.39759   0.00000  Uiso   1.00
H142   H     0.36521   0.38061   0.39759   0.00000  Uiso   1.00
H143   H     0.61939   0.98459   0.39759   0.00000  Uiso   1.00
H144   H     0.01541   0.63479   0.39759   0.00000  Uiso   1.00
H145   H     0.39344   0.44636   0.67748   0.00000  Uiso   1.00
H146   H     0.55364   0.94708   0.67748   0.00000  Uiso   1.00
H147   H     0.05292   0.60656   0.67748   0.00000  Uiso   1.00
H148   H     0.60656   0.55364   0.67748   0.00000  Uiso   1.00
H149   H     0.44636   0.05292   0.67748   0.00000  Uiso   1.00
H150   H     0.94708   0.39344   0.67748   0.00000  Uiso   1.00
loop_
_geom_bond_atom_site_label_1
_geom_bond_atom_site_label_2
_geom_bond_distance
_geom_bond_site_symmetry_2
_ccdc_geom_bond_type
C1     C7      1.407   .     D
C1     C9      1.407   .     S
C1     C13     1.500   .     S
C2     C7      1.407   .     S
C2     C8      1.407   .     D
C2     C14     1.500   .     S
C3     C8      1.407   .     S
C3     C9      1.407   .     D
C3     C15     1.500   .     S
C4     C10     1.407   .     D
C4     C12     1.407   .     S
C4     C16     1.500   .     S
C5     C10     1.407   .     S
C5     C11     1.407   .     D
C5     C17     1.500   .     S
C6     C11     1.407   .     S
C6     C12     1.407   .     D
C6     C18     1.500   .     S
C7     H91     1.077   .     S
C8     H92     1.077   .     S
C9     H93     1.077   .     S
C10    H94     1.077   .     S
C11    H95     1.077   .     S
C12    H96     1.077   .     S
C13    C21     1.411   .     D
C13    C45     1.411   .     S
C14    C19     1.411   .     D
C14    C43     1.411   .     S
C15    C20     1.411   .     D
C15    C44     1.411   .     S
C16    C24     1.411   .     D
C16    C48     1.411   .     S
C17    C22     1.411   .     D
C17    C46     1.411   .     S
C18    C23     1.411   .     D
C18    C47     1.411   .     S
C19    C25     1.399   .     S
C19    H97     1.081   .     S
C20    C26     1.399   .     S
C20    H98     1.081   .     S
C21    C27     1.399   .     S
C21    H99     1.081   .     S
C22    C28     1.399   .     S
C22    H100    1.081   .     S
C23    C29     1.399   .     S
C23    H101    1.081   .     S
C24    C30     1.399   .     S
C24    H102    1.081   .     S
C25    C31     1.406   .     D
C25    H103    1.079   .     S
C26    C32     1.406   .     D
C26    H104    1.079   .     S
C27    C33     1.406   .     D
C27    H105    1.079   .     S
C28    C34     1.406   .     D
C28    H106    1.079   .     S
C29    C35     1.406   .     D
C29    H107    1.079   .     S
C30    C36     1.406   .     D
C30    H108    1.079   .     S
C31    C37     1.396   .     S
C31    N49     1.438   .     S
C32    C38     1.396   .     S
C32    N50     1.438   .     S
C33    C39     1.396   .     S
C33    N51     1.438   .     S
C34    C40     1.396   .     S
C34    N52     1.438   .     S
C35    C41     1.396   .     S
C35    N53     1.438   .     S
C36    C42     1.396   .     S
C36    N54     1.438   .     S
C37    C43     1.399   .     D
C37    H109    1.082   .     S
C38    C44     1.399   .     D
C38    H110    1.082   .     S
C39    C45     1.399   .     D
C39    H111    1.082   .     S
C40    C46     1.399   .     D
C40    H112    1.082   .     S
C41    C47     1.399   .     D
C41    H113    1.082   .     S
C42    C48     1.399   .     D
C42    H114    1.082   .     S
C43    H115    1.081   .     S
C44    H116    1.081   .     S
C45    H117    1.081   .     S
C46    H118    1.081   .     S
C47    H119    1.081   .     S
C48    H120    1.081   .     S
N49    C55     1.301   .     D
N50    C56     1.301   .     D
N51    C57     1.301   .     D
N52    C58     1.301   .     D
N53    C59     1.301   .     D
N54    C60     1.301   .     D
C55    C61     1.485   .     S
C55    H121    1.078   .     S
C56    C62     1.485   .     S
C56    H122    1.078   .     S
C57    C63     1.485   .     S
C57    H123    1.078   .     S
C58    C64     1.485   .     S
C58    H124    1.078   .     S
C59    C65     1.485   .     S
C59    H125    1.078   .     S
C60    C66     1.485   .     S
C60    H126    1.078   .     S
C61    C67     1.415   .     D
C61    C76     1.405   .     S
C62    C68     1.415   .     D
C62    C77     1.405   .     S
C63    C69     1.415   .     D
C63    C78     1.405   .     S
C64    C70     1.415   .     S
C64    C73     1.405   .     D
C65    C71     1.415   .     S
C65    C74     1.405   .     D
C66    C72     1.415   .     S
C66    C75     1.405   .     D
C67    C73     1.405   .     S
C67    C79     1.486   .     S
C68    C74     1.405   1_565 S
C68    C80     1.486   .     S
C69    C75     1.405   1_455 S
C69    C81     1.486   .     S
C70    C76     1.405   .     D
C70    C82     1.486   .     S
C71    C77     1.405   1_545 D
C71    C83     1.486   .     S
C72    C78     1.405   1_655 D
C72    C84     1.486   .     S
C73    H127    1.081   .     S
C74    C68     1.405   1_545 S
C74    H128    1.081   .     S
C75    C69     1.405   1_655 S
C75    H129    1.081   .     S
C76    H130    1.081   .     S
C77    C71     1.405   1_565 D
C77    H131    1.081   .     S
C78    C72     1.405   1_455 D
C78    H132    1.081   .     S
C79    C88     1.334   .     D
C79    H145    1.083   .     S
C80    C89     1.334   .     D
C80    H146    1.083   .     S
C81    C90     1.334   .     D
C81    H147    1.083   .     S
C82    C85     1.334   .     D
C82    H148    1.083   .     S
C83    C86     1.334   .     D
C83    H149    1.083   .     S
C84    C87     1.334   .     D
C84    H150    1.083   .     S
C85    H133    1.083   .     S
C85    H139    1.082   .     S
C86    H134    1.083   1_545 S
C86    H140    1.082   .     S
C87    H135    1.083   1_655 S
C87    H141    1.082   .     S
C88    H136    1.083   .     S
C88    H142    1.082   .     S
C89    H137    1.083   1_565 S
C89    H143    1.082   .     S
C90    H138    1.083   1_455 S
C90    H144    1.082   .     S
H134   C86     1.083   1_565 S
H135   C87     1.083   1_455 S
H137   C89     1.083   1_545 S
H138   C90     1.083   1_655 S
