data_177
_audit_creation_date              2023-09-08
_audit_creation_method            'Materials Studio'
_symmetry_space_group_name_H-M    'P1'
_symmetry_Int_Tables_number       1
_symmetry_cell_setting            triclinic
loop_
_symmetry_equiv_pos_as_xyz
  x,y,z
_cell_length_a                    26.6500
_cell_length_b                    26.6500
_cell_length_c                    3.5500
_cell_angle_alpha                 90.0000
_cell_angle_beta                  90.0000
_cell_angle_gamma                 90.0000
loop_
_atom_site_label
_atom_site_type_symbol
_atom_site_fract_x
_atom_site_fract_y
_atom_site_fract_z
_atom_site_U_iso_or_equiv
_atom_site_adp_type
_atom_site_occupancy
C1     C     0.02713   0.50000   0.50000   0.00000  Uiso   1.00
B2     B     0.18692   0.50000   0.50000   0.00000  Uiso   1.00
N3     N     0.43026   0.50000   0.50000   0.00000  Uiso   1.00
C4     C     0.13009   0.50000   0.50000   0.00000  Uiso   1.00
C5     C     0.97287   0.50000   0.50000   0.00000  Uiso   1.00
B6     B     0.81308   0.50000   0.50000   0.00000  Uiso   1.00
N7     N     0.56974   0.50000   0.50000   0.00000  Uiso   1.00
C8     C     0.86991   0.50000   0.50000   0.00000  Uiso   1.00
C9     C     0.50000   0.02713   0.50000   0.00000  Uiso   1.00
B10    B     0.50000   0.18692   0.50000   0.00000  Uiso   1.00
N11    N     0.50000   0.43026   0.50000   0.00000  Uiso   1.00
C12    C     0.50000   0.13009   0.50000   0.00000  Uiso   1.00
C13    C     0.50000   0.97287   0.50000   0.00000  Uiso   1.00
B14    B     0.50000   0.81308   0.50000   0.00000  Uiso   1.00
N15    N     0.50000   0.56974   0.50000   0.00000  Uiso   1.00
C16    C     0.50000   0.86991   0.50000   0.00000  Uiso   1.00
C17    C     0.05330   0.45571   0.50000   0.00000  Uiso   1.00
C18    C     0.10447   0.45571   0.50000   0.00000  Uiso   1.00
C19    C     0.26281   0.47453   0.50000   0.00000  Uiso   1.00
C20    C     0.30645   0.44741   0.50000   0.00000  Uiso   1.00
C21    C     0.34987   0.47465   0.50000   0.00000  Uiso   1.00
C22    C     0.39788   0.45912   0.50000   0.00000  Uiso   1.00
O23    O     0.21603   0.45501   0.50000   0.00000  Uiso   1.00
H24    H     0.03728   0.41884   0.50000   0.00000  Uiso   1.00
H25    H     0.12441   0.42012   0.50000   0.00000  Uiso   1.00
H26    H     0.30594   0.40683   0.50000   0.00000  Uiso   1.00
C27    C     0.94670   0.54429   0.50000   0.00000  Uiso   1.00
C28    C     0.89553   0.54429   0.50000   0.00000  Uiso   1.00
C29    C     0.73719   0.52547   0.50000   0.00000  Uiso   1.00
C30    C     0.69355   0.55259   0.50000   0.00000  Uiso   1.00
C31    C     0.65013   0.52535   0.50000   0.00000  Uiso   1.00
C32    C     0.60212   0.54088   0.50000   0.00000  Uiso   1.00
O33    O     0.78397   0.54499   0.50000   0.00000  Uiso   1.00
H34    H     0.96272   0.58116   0.50000   0.00000  Uiso   1.00
H35    H     0.87559   0.57988   0.50000   0.00000  Uiso   1.00
H36    H     0.69406   0.59317   0.50000   0.00000  Uiso   1.00
C37    C     0.54429   0.05330   0.50000   0.00000  Uiso   1.00
C38    C     0.54429   0.10447   0.50000   0.00000  Uiso   1.00
C39    C     0.52547   0.26281   0.50000   0.00000  Uiso   1.00
C40    C     0.55259   0.30645   0.50000   0.00000  Uiso   1.00
C41    C     0.52535   0.34987   0.50000   0.00000  Uiso   1.00
C42    C     0.54088   0.39788   0.50000   0.00000  Uiso   1.00
O43    O     0.54499   0.21603   0.50000   0.00000  Uiso   1.00
H44    H     0.58116   0.03728   0.50000   0.00000  Uiso   1.00
H45    H     0.57988   0.12441   0.50000   0.00000  Uiso   1.00
H46    H     0.59317   0.30594   0.50000   0.00000  Uiso   1.00
C47    C     0.45571   0.94670   0.50000   0.00000  Uiso   1.00
C48    C     0.45571   0.89553   0.50000   0.00000  Uiso   1.00
C49    C     0.47453   0.73719   0.50000   0.00000  Uiso   1.00
C50    C     0.44741   0.69355   0.50000   0.00000  Uiso   1.00
C51    C     0.47465   0.65013   0.50000   0.00000  Uiso   1.00
C52    C     0.45912   0.60212   0.50000   0.00000  Uiso   1.00
O53    O     0.45501   0.78397   0.50000   0.00000  Uiso   1.00
H54    H     0.41884   0.96272   0.50000   0.00000  Uiso   1.00
H55    H     0.42012   0.87559   0.50000   0.00000  Uiso   1.00
H56    H     0.40683   0.69406   0.50000   0.00000  Uiso   1.00
C57    C     0.94670   0.45571   0.50000   0.00000  Uiso   1.00
C58    C     0.89553   0.45571   0.50000   0.00000  Uiso   1.00
C59    C     0.73719   0.47453   0.50000   0.00000  Uiso   1.00
C60    C     0.69355   0.44741   0.50000   0.00000  Uiso   1.00
C61    C     0.65013   0.47465   0.50000   0.00000  Uiso   1.00
C62    C     0.60212   0.45912   0.50000   0.00000  Uiso   1.00
O63    O     0.78397   0.45501   0.50000   0.00000  Uiso   1.00
H64    H     0.96272   0.41884   0.50000   0.00000  Uiso   1.00
H65    H     0.87559   0.42012   0.50000   0.00000  Uiso   1.00
H66    H     0.69406   0.40683   0.50000   0.00000  Uiso   1.00
C67    C     0.05330   0.54429   0.50000   0.00000  Uiso   1.00
C68    C     0.10447   0.54429   0.50000   0.00000  Uiso   1.00
C69    C     0.26281   0.52547   0.50000   0.00000  Uiso   1.00
C70    C     0.30645   0.55259   0.50000   0.00000  Uiso   1.00
C71    C     0.34987   0.52535   0.50000   0.00000  Uiso   1.00
C72    C     0.39788   0.54088   0.50000   0.00000  Uiso   1.00
O73    O     0.21603   0.54499   0.50000   0.00000  Uiso   1.00
H74    H     0.03728   0.58116   0.50000   0.00000  Uiso   1.00
H75    H     0.12441   0.57988   0.50000   0.00000  Uiso   1.00
H76    H     0.30594   0.59317   0.50000   0.00000  Uiso   1.00
C77    C     0.45571   0.05330   0.50000   0.00000  Uiso   1.00
C78    C     0.45571   0.10447   0.50000   0.00000  Uiso   1.00
C79    C     0.47453   0.26281   0.50000   0.00000  Uiso   1.00
C80    C     0.44741   0.30645   0.50000   0.00000  Uiso   1.00
C81    C     0.47465   0.34987   0.50000   0.00000  Uiso   1.00
C82    C     0.45912   0.39788   0.50000   0.00000  Uiso   1.00
O83    O     0.45501   0.21603   0.50000   0.00000  Uiso   1.00
H84    H     0.41884   0.03728   0.50000   0.00000  Uiso   1.00
H85    H     0.42012   0.12441   0.50000   0.00000  Uiso   1.00
H86    H     0.40683   0.30594   0.50000   0.00000  Uiso   1.00
C87    C     0.54429   0.94670   0.50000   0.00000  Uiso   1.00
C88    C     0.54429   0.89553   0.50000   0.00000  Uiso   1.00
C89    C     0.52547   0.73719   0.50000   0.00000  Uiso   1.00
C90    C     0.55259   0.69355   0.50000   0.00000  Uiso   1.00
C91    C     0.52535   0.65013   0.50000   0.00000  Uiso   1.00
C92    C     0.54088   0.60212   0.50000   0.00000  Uiso   1.00
O93    O     0.54499   0.78397   0.50000   0.00000  Uiso   1.00
H94    H     0.58116   0.96272   0.50000   0.00000  Uiso   1.00
H95    H     0.57988   0.87559   0.50000   0.00000  Uiso   1.00
H96    H     0.59317   0.69406   0.50000   0.00000  Uiso   1.00
N97    N     0.41198   0.41198   0.50000   0.00000  Uiso   1.00
N98    N     0.58802   0.58802   0.50000   0.00000  Uiso   1.00
N99    N     0.58802   0.41198   0.50000   0.00000  Uiso   1.00
N100   N     0.41198   0.58802   0.50000   0.00000  Uiso   1.00
Co101  Co    0.50000   0.50000   0.50000   0.00000  Uiso   1.00
loop_
_geom_bond_atom_site_label_1
_geom_bond_atom_site_label_2
_geom_bond_distance
_geom_bond_site_symmetry_2
_ccdc_geom_bond_type
C1     C5      1.446   1_455 S
C1     C17     1.371   .     S
C1     C67     1.371   .     D
B2     C4      1.515   .     S
B2     O23     1.428   .     S
B2     O73     1.428   .     S
N3     C22     1.390   .     D
N3     C72     1.390   .     S
N3     Co101   1.859   .     S
C4     C18     1.364   .     S
C4     C68     1.364   .     D
C5     C1      1.446   1_655 S
C5     C27     1.371   .     S
C5     C57     1.371   .     D
B6     C8      1.515   .     S
B6     O33     1.428   .     S
B6     O63     1.428   .     S
N7     C32     1.390   .     D
N7     C62     1.390   .     S
N7     Co101   1.859   .     S
C8     C28     1.364   .     S
C8     C58     1.364   .     D
C9     C13     1.446   1_545 S
C9     C37     1.371   .     D
C9     C77     1.371   .     S
B10    C12     1.515   .     S
B10    O43     1.428   .     S
B10    O83     1.428   .     S
N11    C42     1.390   .     D
N11    C82     1.390   .     S
N11    Co101   1.859   .     S
C12    C38     1.364   .     D
C12    C78     1.364   .     S
C13    C9      1.446   1_565 S
C13    C47     1.371   .     S
C13    C87     1.371   .     D
B14    C16     1.515   .     S
B14    O53     1.428   .     S
B14    O93     1.428   .     S
N15    C52     1.390   .     D
N15    C92     1.390   .     S
N15    Co101   1.859   .     S
C16    C48     1.364   .     S
C16    C88     1.364   .     D
C17    C18     1.364   .     D
C17    H24     1.071   .     S
C18    H25     1.087   .     S
C19    C20     1.369   .     S
C19    O23     1.351   .     S
C19    C69     1.358   .     D
C20    C21     1.366   .     D
C20    H26     1.082   .     S
C21    C22     1.345   .     S
C21    C71     1.351   .     S
C22    N97     1.311   .     S
C27    C28     1.364   .     D
C27    H34     1.071   .     S
C28    H35     1.087   .     S
C29    C30     1.369   .     S
C29    O33     1.351   .     S
C29    C59     1.358   .     D
C30    C31     1.366   .     D
C30    H36     1.082   .     S
C31    C32     1.345   .     S
C31    C61     1.351   .     S
C32    N98     1.311   .     S
C37    C38     1.364   .     S
C37    H44     1.071   .     S
C38    H45     1.087   .     S
C39    C40     1.369   .     D
C39    O43     1.351   .     S
C39    C79     1.358   .     S
C40    C41     1.366   .     S
C40    H46     1.082   .     S
C41    C42     1.345   .     S
C41    C81     1.351   .     D
C42    N99     1.311   .     S
C47    C48     1.364   .     D
C47    H54     1.071   .     S
C48    H55     1.087   .     S
C49    C50     1.369   .     S
C49    O53     1.351   .     S
C49    C89     1.358   .     D
C50    C51     1.366   .     D
C50    H56     1.082   .     S
C51    C52     1.345   .     S
C51    C91     1.351   .     S
C52    N100    1.311   .     S
C57    C58     1.364   .     S
C57    H64     1.071   .     S
C58    H65     1.087   .     S
C59    C60     1.369   .     S
C59    O63     1.351   .     S
C60    C61     1.366   .     D
C60    H66     1.082   .     S
C61    C62     1.345   .     S
C62    N99     1.311   .     D
C67    C68     1.364   .     S
C67    H74     1.071   .     S
C68    H75     1.087   .     S
C69    C70     1.369   .     S
C69    O73     1.351   .     S
C70    C71     1.366   .     D
C70    H76     1.082   .     S
C71    C72     1.345   .     S
C72    N100    1.311   .     D
C77    C78     1.364   .     D
C77    H84     1.071   .     S
C78    H85     1.087   .     S
C79    C80     1.369   .     D
C79    O83     1.351   .     S
C80    C81     1.366   .     S
C80    H86     1.082   .     S
C81    C82     1.345   .     S
C82    N97     1.311   .     D
C87    C88     1.364   .     S
C87    H94     1.071   .     S
C88    H95     1.087   .     S
C89    C90     1.369   .     S
C89    O93     1.351   .     S
C90    C91     1.366   .     D
C90    H96     1.082   .     S
C91    C92     1.345   .     S
C92    N98     1.311   .     D
