data_178
_audit_creation_date              2023-09-08
_audit_creation_method            'Materials Studio'
_symmetry_space_group_name_H-M    'P1'
_symmetry_Int_Tables_number       1
_symmetry_cell_setting            triclinic
loop_
_symmetry_equiv_pos_as_xyz
  x,y,z
_cell_length_a                    37.1396
_cell_length_b                    36.9167
_cell_length_c                    4.3145
_cell_angle_alpha                 90.2950
_cell_angle_beta                  91.0017
_cell_angle_gamma                 95.2033
loop_
_atom_site_label
_atom_site_type_symbol
_atom_site_fract_x
_atom_site_fract_y
_atom_site_fract_z
_atom_site_U_iso_or_equiv
_atom_site_adp_type
_atom_site_occupancy
C1     C     0.45375   0.99404   1.49927   0.00000  Uiso   1.00
C2     C     0.46588   0.96555   1.37124   0.00000  Uiso   1.00
C3     C     0.44087   0.93469   1.40095   0.00000  Uiso   1.00
C4     C     0.40288   0.93166   1.55891   0.00000  Uiso   1.00
C5     C     0.39044   0.95977   1.68725   0.00000  Uiso   1.00
C6     C     0.41563   0.99053   1.65916   0.00000  Uiso   1.00
N7     N     0.37641   0.90073   1.58386   0.00000  Uiso   1.00
C8     C     0.27706   0.75208   1.54481   0.00000  Uiso   1.00
N9     N     0.28685   0.72456   1.44494   0.00000  Uiso   1.00
N10    N     0.54364   0.05640   1.32253   0.00000  Uiso   1.00
C11    C     0.53585  -0.00140   1.48833   0.00000  Uiso   1.00
C12    C     0.57310   0.01312   1.44646   0.00000  Uiso   1.00
C13    C     0.12853   0.62996   1.45184   0.00000  Uiso   1.00
C14    C     0.09257   0.61693   1.43526   0.00000  Uiso   1.00
N15    N     0.17277   0.53851   1.40975   0.00000  Uiso   1.00
C16    C     0.22876   0.56139   1.45938   0.00000  Uiso   1.00
C17    C     0.22688   0.52631   1.46136   0.00000  Uiso   1.00
N18    N     0.12748   0.57793   1.31400   0.00000  Uiso   1.00
C19    C     0.76939   0.25873   1.55199   0.00000  Uiso   1.00
N20    N     0.73930   0.26596   1.48314   0.00000  Uiso   1.00
C21    C     0.17934   0.47762   1.41180   0.00000  Uiso   1.00
C22    C     0.14279   0.46382   1.39972   0.00000  Uiso   1.00
C23    C     0.19211   0.51297   1.42875   0.00000  Uiso   1.00
C24    C     0.19515   0.56839   1.42392   0.00000  Uiso   1.00
C25    C     0.12949   0.42807   1.36542   0.00000  Uiso   1.00
C26    C     0.09426   0.42496   1.36741   0.00000  Uiso   1.00
C27    C     0.08481   0.45875   1.40143   0.00000  Uiso   1.00
N28    N     0.11502   0.48121   1.41998   0.00000  Uiso   1.00
C29    C     0.04932   0.46730   1.41694   0.00000  Uiso   1.00
C30    C     0.18470   0.60179   1.41430   0.00000  Uiso   1.00
C31    C     0.04640   0.50259   1.39659   0.00000  Uiso   1.00
C32    C     0.21103   0.63351   1.43510   0.00000  Uiso   1.00
C33    C     0.14870   0.60420   1.38567   0.00000  Uiso   1.00
C34    C     0.01524   0.51671   1.50158   0.00000  Uiso   1.00
C35    C     0.02826   0.55244   1.47571   0.00000  Uiso   1.00
C36    C     0.06633   0.55735   1.35163   0.00000  Uiso   1.00
N37    N     0.07649   0.52774   1.29724   0.00000  Uiso   1.00
C38    C     0.09391   0.58462   1.34947   0.00000  Uiso   1.00
C39    C     0.20595   0.45365   1.40126   0.00000  Uiso   1.00
C40    C     0.24213   0.46481   1.16009   0.00000  Uiso   1.00
C41    C     0.26713   0.44259   1.15017   0.00000  Uiso   1.00
C42    C     0.25638   0.40868   1.37874   0.00000  Uiso   1.00
C43    C     0.22022   0.39719   1.61944   0.00000  Uiso   1.00
C44    C     0.19535   0.41955   1.63095   0.00000  Uiso   1.00
C45    C     0.19813   0.66228   1.54816   0.00000  Uiso   1.00
C46    C     0.22262   0.69227   1.55373   0.00000  Uiso   1.00
C47    C     0.26090   0.69417   1.44541   0.00000  Uiso   1.00
C48    C     0.27414   0.66584   1.33203   0.00000  Uiso   1.00
C49    C     0.24949   0.63598   1.32590   0.00000  Uiso   1.00
C50    C     0.30468   0.78289   1.53609   0.00000  Uiso   1.00
C51    C     0.34247   0.78292   1.41922   0.00000  Uiso   1.00
C52    C     0.36952   0.81230   1.40075   0.00000  Uiso   1.00
C53    C     0.35808   0.84203   1.50218   0.00000  Uiso   1.00
C54    C     0.32029   0.84198   1.62015   0.00000  Uiso   1.00
C55    C     0.29323   0.81256   1.63921   0.00000  Uiso   1.00
C56    C     0.38583   0.87321   1.48029   0.00000  Uiso   1.00
C57    C     0.48318   0.14918   1.54601   0.00000  Uiso   1.00
C58    C     0.47094   0.11413   1.51725   0.00000  Uiso   1.00
C59    C     0.52001   0.16347   1.54725   0.00000  Uiso   1.00
C60    C     0.53188   0.19686   1.59483   0.00000  Uiso   1.00
C61    C     0.56915   0.20094   1.56967   0.00000  Uiso   1.00
C62    C     0.57891   0.16998   1.50576   0.00000  Uiso   1.00
N63    N     0.54856   0.14707   1.49679   0.00000  Uiso   1.00
C64    C     0.43376   0.09933   1.49782   0.00000  Uiso   1.00
C65    C     0.43281   0.06622   1.47681   0.00000  Uiso   1.00
C66    C     0.46942   0.05965   1.48096   0.00000  Uiso   1.00
N67    N     0.49132   0.08936   1.50572   0.00000  Uiso   1.00
C68    C     0.48091   0.02709   1.46482   0.00000  Uiso   1.00
C69    C     0.61525   0.16243   1.46507   0.00000  Uiso   1.00
C70    C     0.51876   0.02670   1.41721   0.00000  Uiso   1.00
C71    C     0.64730   0.18913   1.48265   0.00000  Uiso   1.00
C72    C     0.62026   0.12895   1.40836   0.00000  Uiso   1.00
C73    C     0.57587   0.04891   1.34771   0.00000  Uiso   1.00
C74    C     0.64909   0.11190   1.44019   0.00000  Uiso   1.00
C75    C     0.63763   0.07746   1.40661   0.00000  Uiso   1.00
C76    C     0.60310   0.07647   1.34618   0.00000  Uiso   1.00
N77    N     0.59371   0.10732   1.34071   0.00000  Uiso   1.00
C78    C     0.45587   0.17247   1.57011   0.00000  Uiso   1.00
C79    C     0.46563   0.20674   1.34525   0.00000  Uiso   1.00
C80    C     0.44023   0.22855   1.36582   0.00000  Uiso   1.00
C81    C     0.40433   0.21635   1.61065   0.00000  Uiso   1.00
C82    C     0.39437   0.18223   1.83444   0.00000  Uiso   1.00
C83    C     0.41994   0.16053   1.81543   0.00000  Uiso   1.00
C84    C     0.67895   0.17910   1.56103   0.00000  Uiso   1.00
C85    C     0.70928   0.20395   1.56317   0.00000  Uiso   1.00
C86    C     0.70864   0.23971   1.48635   0.00000  Uiso   1.00
C87    C     0.67744   0.25010   1.40763   0.00000  Uiso   1.00
C88    C     0.64725   0.22510   1.40470   0.00000  Uiso   1.00
N89    N     0.37754   0.23797   1.63539   0.00000  Uiso   1.00
C90    C     0.38489   0.27012   1.44367   0.00000  Uiso   1.00
C91    C     0.80040   0.28655   1.54147   0.00000  Uiso   1.00
C92    C     0.79783   0.32174   1.45644   0.00000  Uiso   1.00
C93    C     0.82735   0.34894   1.43664   0.00000  Uiso   1.00
C94    C     0.85992   0.34032   1.50388   0.00000  Uiso   1.00
C95    C     0.86247   0.30512   1.59012   0.00000  Uiso   1.00
C96    C     0.83290   0.27791   1.61061   0.00000  Uiso   1.00
C97    C     0.35685   0.29174   1.47260   0.00000  Uiso   1.00
C98    C     0.32078   0.27761   1.70464   0.00000  Uiso   1.00
C99    C     0.29349   0.29783   1.73680   0.00000  Uiso   1.00
C100   C     0.30292   0.33279   1.53029   0.00000  Uiso   1.00
C101   C     0.33900   0.34689   1.29851   0.00000  Uiso   1.00
C102   C     0.36629   0.32670   1.26646   0.00000  Uiso   1.00
N103   N     0.28268   0.38657   1.36162   0.00000  Uiso   1.00
C104   C     0.27496   0.35450   1.55639   0.00000  Uiso   1.00
O105   O     0.40269   0.34033   1.03430   0.00000  Uiso   1.00
C106   C     0.41030   0.37600   0.83529   0.00000  Uiso   1.00
C107   C     0.24946   0.24855   2.16805   0.00000  Uiso   1.00
O108   O     0.25708   0.28422   1.96882   0.00000  Uiso   1.00
C109   C     0.79156   0.39126   1.28545   0.00000  Uiso   1.00
O110   O     0.82546   0.38450   1.34898   0.00000  Uiso   1.00
O111   O     0.83480   0.24236   1.69752   0.00000  Uiso   1.00
O112   O     0.25509   0.81188   1.75763   0.00000  Uiso   1.00
C113   C     0.24553   0.84289   1.85743   0.00000  Uiso   1.00
C114   C     0.41720   0.78193   1.18313   0.00000  Uiso   1.00
O115   O     0.40766   0.81299   1.28151   0.00000  Uiso   1.00
C116   C     0.86857   0.23557   1.76424   0.00000  Uiso   1.00
C117   C     0.89134   0.36829   1.47956   0.00000  Uiso   1.00
N118   N     0.92137   0.36139   1.55285   0.00000  Uiso   1.00
C119   C     0.95263   0.38813   1.52450   0.00000  Uiso   1.00
C120   C     0.98347   0.37846   1.62032   0.00000  Uiso   1.00
C121   C     1.01462   0.40401   1.58797   0.00000  Uiso   1.00
C122   C     1.01583   0.43975   1.45600   0.00000  Uiso   1.00
C123   C     0.98460   0.44911   1.36045   0.00000  Uiso   1.00
C124   C     0.95332   0.42372   1.39469   0.00000  Uiso   1.00
H125   H     0.04230   0.39670   0.67213   0.00000  Uiso   1.00
H126   H     0.49339   0.96801   0.25625   0.00000  Uiso   1.00
H127   H     0.44730   0.90734   0.30251   0.00000  Uiso   1.00
H128   H     0.36280   0.95698   0.79992   0.00000  Uiso   1.00
H129   H     0.40947   1.01780   0.76093   0.00000  Uiso   1.00
H130   H     0.24845   0.75254   0.63535   0.00000  Uiso   1.00
H131   H     0.53336   0.08202   0.23977   0.00000  Uiso   1.00
H132   H     0.59607  -0.00469   0.49438   0.00000  Uiso   1.00
H133   H     0.13644   0.65963   0.51665   0.00000  Uiso   1.00
H134   H     0.07078   0.63554   0.49504   0.00000  Uiso   1.00
H135   H     0.25611   0.57791   0.48576   0.00000  Uiso   1.00
H136   H     0.25259   0.51184   0.48812   0.00000  Uiso   1.00
H137   H     0.13786   0.55241   0.23070   0.00000  Uiso   1.00
H138   H     0.77423   0.22997   0.62680   0.00000  Uiso   1.00
H139   H     0.14888   0.40605   0.34026   0.00000  Uiso   1.00
H140   H     0.07870   0.39700   0.34257   0.00000  Uiso   1.00
H141   H     0.01074   0.57486   0.54482   0.00000  Uiso   1.00
H142   H     0.10093   0.51709   0.19956   0.00000  Uiso   1.00
H143   H     0.16902   0.66071   0.63023   0.00000  Uiso   1.00
H144   H     0.21457   0.71924   0.64773   0.00000  Uiso   1.00
H145   H     0.30332   0.66781   0.25151   0.00000  Uiso   1.00
H146   H     0.26094   0.61098   0.22409   0.00000  Uiso   1.00
H147   H     0.35258   0.75663   0.32957   0.00000  Uiso   1.00
H148   H     0.31020   0.86826   0.71018   0.00000  Uiso   1.00
H149   H     0.41388   0.87289   0.37781   0.00000  Uiso   1.00
H150   H     0.51219   0.21792   0.64834   0.00000  Uiso   1.00
H151   H     0.58453   0.22883   0.60618   0.00000  Uiso   1.00
H152   H     0.54618   0.11729   0.45266   0.00000  Uiso   1.00
H153   H     0.41117   0.11826   0.50351   0.00000  Uiso   1.00
H154   H     0.40568   0.04914   0.45995   0.00000  Uiso   1.00
H155   H     0.67641   0.12784   0.48665   0.00000  Uiso   1.00
H156   H     0.65742   0.05575   0.43240   0.00000  Uiso   1.00
H157   H     0.56713   0.11763   0.28830   0.00000  Uiso   1.00
H158   H     0.68186   0.14968   0.62858   0.00000  Uiso   1.00
H159   H     0.73683   0.19489   0.63204   0.00000  Uiso   1.00
H160   H     0.67493   0.27963   0.34134   0.00000  Uiso   1.00
H161   H     0.61969   0.23395   0.33347   0.00000  Uiso   1.00
H162   H     0.77032   0.33137   0.39410   0.00000  Uiso   1.00
H163   H     0.88997   0.29550   0.65292   0.00000  Uiso   1.00
H164   H     0.32040   0.25059   0.83177   0.00000  Uiso   1.00
H165   H     0.33940   0.37390   0.17123   0.00000  Uiso   1.00
H166   H     0.40598   0.36903  -0.42117   0.00000  Uiso   1.00
H167   H     0.43939   0.38788  -0.12224   0.00000  Uiso   1.00
H168   H     0.27491   0.24327   1.30581   0.00000  Uiso   1.00
H169   H     0.24143   0.22445   1.00730   0.00000  Uiso   1.00
H170   H     0.77272   0.36560   0.32401   0.00000  Uiso   1.00
H171   H     0.78921   0.40007   0.03358   0.00000  Uiso   1.00
H172   H     0.22584   0.83793   1.05572   0.00000  Uiso   1.00
H173   H     0.23189   0.85729   0.66052   0.00000  Uiso   1.00
H174   H     0.40917   0.77811  -0.07198   0.00000  Uiso   1.00
H175   H     0.40305   0.75897   0.32391   0.00000  Uiso   1.00
H176   H     0.88589   0.24051   0.55036   0.00000  Uiso   1.00
H177   H     0.86898   0.20604   0.83926   0.00000  Uiso   1.00
H178   H     0.88708   0.39664   0.39060   0.00000  Uiso   1.00
H179   H     0.98524   0.35044   0.72625   0.00000  Uiso   1.00
H180   H     0.98251   0.47697   0.25227   0.00000  Uiso   1.00
H181   H     0.92560   0.43130   0.31421   0.00000  Uiso   1.00
H182   H     0.52955   0.96925   0.56530   0.00000  Uiso   1.00
H183   H     0.24321   0.49085   1.01832   0.00000  Uiso   1.00
H184   H     0.29153   0.44882   0.99637   0.00000  Uiso   1.00
H185   H     0.21914   0.37095   1.75844   0.00000  Uiso   1.00
H186   H     0.17105   0.41344   1.78621   0.00000  Uiso   1.00
H187   H     0.49138   0.20827   1.20412   0.00000  Uiso   1.00
H188   H     0.44183   0.25476   1.22620   0.00000  Uiso   1.00
H189   H     0.36845   0.18069   1.97332   0.00000  Uiso   1.00
H190   H     0.41930   0.13427   1.95396   0.00000  Uiso   1.00
H191   H     0.39101   0.39678   0.90590   0.00000  Uiso   1.00
H192   H     0.22655   0.25223   2.33452   0.00000  Uiso   1.00
H193   H     0.78368   0.41390   1.44429   0.00000  Uiso   1.00
H194   H     0.27049   0.86059   1.94341   0.00000  Uiso   1.00
H195   H     0.44774   0.78151   1.21130   0.00000  Uiso   1.00
H196   H     0.87983   0.25433   1.96037   0.00000  Uiso   1.00
loop_
_geom_bond_atom_site_label_1
_geom_bond_atom_site_label_2
_geom_bond_distance
_geom_bond_site_symmetry_2
_ccdc_geom_bond_type
C1     C2      1.305   .     D
C1     C6      1.581   .     S
C1     C68     1.521   1_565 S
C2     C3      1.411   .     S
C2     H126    1.140   1_556 S
C3     C4      1.573   .     D
C3     H127    1.140   1_556 S
C4     C5      1.299   .     S
C4     N7      1.443   .     S
C5     C6      1.411   .     D
C5     H128    1.140   1_556 S
C6     H129    1.140   1_556 S
N7     C56     1.191   .     D
C8     N9      1.191   .     D
C8     C50     1.462   .     S
C8     H130    1.140   1_556 S
N9     C47     1.411   .     S
N10    C70     1.434   .     S
N10    C73     1.256   .     S
N10    H131    1.110   1_556 S
C11    C12     1.452   .     S
C11    C70     1.300   .     D
C11    H182    1.140   1_546 S
C12    C73     1.386   .     D
C12    H132    1.140   1_556 S
C13    C14     1.378   .     D
C13    C33     1.296   .     S
C13    H133    1.140   1_556 S
C14    C38     1.253   .     S
C14    H134    1.140   1_556 S
N15    C23     1.238   .     S
N15    C24     1.320   .     D
C16    C17     1.291   .     D
C16    C24     1.304   .     S
C16    H135    1.140   1_556 S
C17    C23     1.344   .     S
C17    H136    1.140   1_556 S
N18    C33     1.228   .     S
N18    C38     1.304   .     S
N18    H137    1.110   1_556 S
C19    N20     1.205   .     D
C19    C91     1.473   .     S
C19    H138    1.140   1_556 S
N20    C86     1.427   .     S
C21    C22     1.406   .     S
C21    C23     1.349   .     D
C21    C39     1.386   .     S
C22    C25     1.373   .     S
C22    N28     1.267   .     D
C24    C30     1.326   .     S
C25    C26     1.303   .     D
C25    H139    1.140   1_556 S
C26    C27     1.334   .     S
C26    H140    1.140   1_556 S
C27    N28     1.334   .     S
C27    C29     1.386   .     D
C29    C31     1.320   .     S
C29    C122    1.546   1_455 S
C30    C32     1.457   .     S
C30    C33     1.352   .     D
C31    C34     1.393   .     D
C31    N37     1.459   .     S
C32    C45     1.300   .     D
C32    C49     1.507   .     S
C34    C35     1.369   .     D
C35    C36     1.516   .     S
C35    H141    1.140   1_556 S
C36    N37     1.211   .     S
C36    C38     1.370   .     D
N37    H142    1.110   1_556 S
C39    C40     1.735   .     D
C39    C44     1.630   .     S
C40    C41     1.295   .     S
C40    H183    1.140   .     S
C41    C42     1.623   .     D
C41    H184    1.140   .     S
C42    C43     1.735   .     S
C42    N103    1.331   .     S
C43    C44     1.295   .     D
C43    H185    1.140   .     S
C44    H186    1.140   .     S
C45    C46     1.367   .     S
C45    H143    1.140   1_556 S
C46    C47     1.500   .     D
C46    H144    1.140   1_556 S
C47    C48     1.293   .     S
C48    C49     1.367   .     D
C48    H145    1.140   1_556 S
C49    H146    1.140   1_556 S
C50    C51     1.500   .     D
C50    C55     1.290   .     S
C51    C52     1.414   .     S
C51    H147    1.140   1_556 S
C52    C53     1.289   .     D
C52    O115    1.514   .     S
C53    C54     1.501   .     S
C53    C56     1.478   .     S
C54    C55     1.415   .     D
C54    H148    1.140   1_556 S
C55    O112    1.512   .     S
C56    H149    1.140   1_556 S
C57    C58     1.336   .     S
C57    C59     1.421   .     D
C57    C78     1.393   .     S
C58    C64     1.439   .     S
C58    N67     1.240   .     D
C59    C60     1.285   .     S
C59    N63     1.289   .     S
C60    C61     1.385   .     D
C60    H150    1.140   1_556 S
C61    C62     1.261   .     S
C61    H151    1.140   1_556 S
C62    N63     1.346   .     S
C62    C69     1.416   .     D
N63    H152    1.110   1_556 S
C64    C65     1.222   .     D
C64    H153    1.140   1_556 S
C65    C66     1.402   .     S
C65    H154    1.140   1_556 S
C66    N67     1.308   .     S
C66    C68     1.313   .     D
C68    C1      1.521   1_545 S
C68    C70     1.426   .     S
C69    C71     1.476   .     S
C69    C72     1.289   .     S
C71    C84     1.304   .     D
C71    C88     1.372   .     S
C72    C74     1.296   .     D
C72    N77     1.241   .     S
C73    C76     1.368   .     S
C74    C75     1.310   .     S
C74    H155    1.140   1_556 S
C75    C76     1.301   .     D
C75    H156    1.140   1_556 S
C76    N77     1.221   .     S
N77    H157    1.110   1_556 S
C78    C79     1.617   .     D
C78    C83     1.744   .     S
C79    C80     1.298   .     S
C79    H187    1.140   .     S
C80    C81     1.744   .     D
C80    H188    1.140   .     S
C81    C82     1.611   .     S
C81    N89     1.336   .     S
C82    C83     1.300   .     D
C82    H189    1.140   .     S
C83    H190    1.140   .     S
C84    C85     1.387   .     S
C84    H158    1.140   1_556 S
C85    C86     1.365   .     D
C85    H159    1.140   1_556 S
C86    C87     1.294   .     S
C87    C88     1.386   .     D
C87    H160    1.140   1_556 S
C88    H161    1.140   1_556 S
N89    C90     1.458   .     D
C90    C97     1.375   .     D
C91    C92     1.363   .     D
C91    C96     1.306   .     S
C92    C93     1.422   .     S
C92    H162    1.140   1_556 S
C93    C94     1.307   .     D
C93    O110    1.376   .     S
C94    C95     1.365   .     S
C94    C117    1.492   .     S
C95    C96     1.424   .     D
C95    H163    1.140   1_556 S
C96    O111    1.374   .     S
C97    C98     1.730   .     S
C97    C102    1.588   .     S
C98    C99     1.321   .     D
C98    H164    1.140   1_556 S
C99    C100    1.588   .     S
C99    O108    1.736   .     S
C100   C101    1.730   .     S
C100   C104    1.374   .     D
C101   C102    1.320   .     D
C101   H165    1.140   1_556 S
C102   O105    1.736   .     S
N103   C104    1.465   .     D
O105   C106    1.582   .     S
C106   H166    1.140   1_556 S
C106   H167    1.140   1_556 S
C106   H191    1.140   .     S
C107   O108    1.583   .     S
C107   H168    1.140   1_556 S
C107   H169    1.140   1_556 S
C107   H192    1.140   .     S
C109   O110    1.330   .     S
C109   H170    1.140   1_556 S
C109   H171    1.140   1_556 S
C109   H193    1.140   .     S
O111   C116    1.328   .     S
O112   C113    1.302   .     S
C113   H172    1.140   1_556 S
C113   H173    1.140   1_556 S
C113   H194    1.140   .     S
C114   O115    1.302   .     S
C114   H174    1.140   1_556 S
C114   H175    1.140   1_556 S
C114   H195    1.140   .     S
C116   H176    1.140   1_556 S
C116   H177    1.140   1_556 S
C116   H196    1.140   .     S
C117   N118    1.204   .     D
C117   H178    1.140   1_556 S
N118   C119    1.461   .     S
C119   C120    1.292   .     D
C119   C124    1.429   .     S
C120   C121    1.434   .     S
C120   H179    1.140   1_556 S
C121   C122    1.437   .     D
C121   H125    1.140   1_656 S
C122   C29     1.546   1_655 S
C122   C123    1.301   .     S
C123   C124    1.435   .     D
C123   H180    1.140   1_556 S
C124   H181    1.140   1_556 S
H125   C121    1.140   1_454 S
H126   C2      1.140   1_554 S
H127   C3      1.140   1_554 S
H128   C5      1.140   1_554 S
H129   C6      1.140   1_554 S
H130   C8      1.140   1_554 S
H131   N10     1.110   1_554 S
H132   C12     1.140   1_554 S
H133   C13     1.140   1_554 S
H134   C14     1.140   1_554 S
H135   C16     1.140   1_554 S
H136   C17     1.140   1_554 S
H137   N18     1.110   1_554 S
H138   C19     1.140   1_554 S
H139   C25     1.140   1_554 S
H140   C26     1.140   1_554 S
H141   C35     1.140   1_554 S
H142   N37     1.110   1_554 S
H143   C45     1.140   1_554 S
H144   C46     1.140   1_554 S
H145   C48     1.140   1_554 S
H146   C49     1.140   1_554 S
H147   C51     1.140   1_554 S
H148   C54     1.140   1_554 S
H149   C56     1.140   1_554 S
H150   C60     1.140   1_554 S
H151   C61     1.140   1_554 S
H152   N63     1.110   1_554 S
H153   C64     1.140   1_554 S
H154   C65     1.140   1_554 S
H155   C74     1.140   1_554 S
H156   C75     1.140   1_554 S
H157   N77     1.110   1_554 S
H158   C84     1.140   1_554 S
H159   C85     1.140   1_554 S
H160   C87     1.140   1_554 S
H161   C88     1.140   1_554 S
H162   C92     1.140   1_554 S
H163   C95     1.140   1_554 S
H164   C98     1.140   1_554 S
H165   C101    1.140   1_554 S
H166   C106    1.140   1_554 S
H167   C106    1.140   1_554 S
H168   C107    1.140   1_554 S
H169   C107    1.140   1_554 S
H170   C109    1.140   1_554 S
H171   C109    1.140   1_554 S
H172   C113    1.140   1_554 S
H173   C113    1.140   1_554 S
H174   C114    1.140   1_554 S
H175   C114    1.140   1_554 S
H176   C116    1.140   1_554 S
H177   C116    1.140   1_554 S
H178   C117    1.140   1_554 S
H179   C120    1.140   1_554 S
H180   C123    1.140   1_554 S
H181   C124    1.140   1_554 S
H182   C11     1.140   1_564 S
