data_179
_audit_creation_date              2023-09-08
_audit_creation_method            'Materials Studio'
_symmetry_space_group_name_H-M    'P1'
_symmetry_Int_Tables_number       1
_symmetry_cell_setting            triclinic
loop_
_symmetry_equiv_pos_as_xyz
  x,y,z
_cell_length_a                    41.9731
_cell_length_b                    6.8010
_cell_length_c                    42.0414
_cell_angle_alpha                 90.0000
_cell_angle_beta                  90.0016
_cell_angle_gamma                 90.0000
loop_
_atom_site_label
_atom_site_type_symbol
_atom_site_fract_x
_atom_site_fract_y
_atom_site_fract_z
_atom_site_U_iso_or_equiv
_atom_site_adp_type
_atom_site_occupancy
N1     N     0.44970   0.50000   0.50834   0.00000  Uiso   1.00
N2     N     0.55023   0.50000   0.49173   0.00000  Uiso   1.00
N3     N     0.94994   0.50000   0.00834   0.00000  Uiso   1.00
N4     N     0.04999   0.50000   0.99173   0.00000  Uiso   1.00
H5     H     0.47251   0.50000   0.50458   0.00000  Uiso   1.00
H6     H     0.52743   0.50000   0.49549   0.00000  Uiso   1.00
H7     H     0.97274   0.50000   0.00458   0.00000  Uiso   1.00
H8     H     0.02719   0.50000   0.99549   0.00000  Uiso   1.00
C9     C     0.42765   0.50000   0.48496   0.00000  Uiso   1.00
C10    C     0.57229   0.50000   0.51511   0.00000  Uiso   1.00
C11    C     0.92777   0.50000   0.98497   0.00000  Uiso   1.00
C12    C     0.07216   0.50000   0.01510   0.00000  Uiso   1.00
C13    C     0.43637   0.50000   0.53758   0.00000  Uiso   1.00
C14    C     0.56356   0.50000   0.46249   0.00000  Uiso   1.00
C15    C     0.93656   0.50000   0.03757   0.00000  Uiso   1.00
C16    C     0.06338   0.50000   0.96249   0.00000  Uiso   1.00
C17    C     0.39813   0.50000   0.50025   0.00000  Uiso   1.00
C18    C     0.60180   0.50000   0.49982   0.00000  Uiso   1.00
C19    C     0.89832   0.50000   0.00026   0.00000  Uiso   1.00
C20    C     0.10161   0.50000   0.99980   0.00000  Uiso   1.00
C21    C     0.40350   0.50000   0.53259   0.00000  Uiso   1.00
C22    C     0.59644   0.50000   0.46748   0.00000  Uiso   1.00
C23    C     0.90368   0.50000   0.03259   0.00000  Uiso   1.00
C24    C     0.09625   0.50000   0.96748   0.00000  Uiso   1.00
H25    H     0.37618   0.50000   0.48974   0.00000  Uiso   1.00
H26    H     0.62375   0.50000   0.51033   0.00000  Uiso   1.00
H27    H     0.87629   0.50000   0.98976   0.00000  Uiso   1.00
H28    H     0.12364   0.50000   0.01031   0.00000  Uiso   1.00
H29    H     0.38610   0.50000   0.54960   0.00000  Uiso   1.00
H30    H     0.61383   0.50000   0.45047   0.00000  Uiso   1.00
H31    H     0.88628   0.50000   0.04959   0.00000  Uiso   1.00
H32    H     0.11365   0.50000   0.95048   0.00000  Uiso   1.00
N33    N     0.99173   0.50000   0.95061   0.00000  Uiso   1.00
N34    N     0.00820   0.50000   0.04946   0.00000  Uiso   1.00
N35    N     0.49178   0.50000   0.45065   0.00000  Uiso   1.00
N36    N     0.50816   0.50000   0.54941   0.00000  Uiso   1.00
C37    C     0.96256   0.50000   0.93677   0.00000  Uiso   1.00
C38    C     0.03737   0.50000   0.06330   0.00000  Uiso   1.00
C39    C     0.46259   0.50000   0.43682   0.00000  Uiso   1.00
C40    C     0.53735   0.50000   0.56325   0.00000  Uiso   1.00
C41    C     0.98505   0.50000   0.07201   0.00000  Uiso   1.00
C42    C     0.01488   0.50000   0.92806   0.00000  Uiso   1.00
C43    C     0.48499   0.50000   0.57190   0.00000  Uiso   1.00
C44    C     0.51495   0.50000   0.42817   0.00000  Uiso   1.00
C45    C     0.96739   0.50000   0.90392   0.00000  Uiso   1.00
C46    C     0.03254   0.50000   0.09615   0.00000  Uiso   1.00
C47    C     0.46743   0.50000   0.40398   0.00000  Uiso   1.00
C48    C     0.53250   0.50000   0.59609   0.00000  Uiso   1.00
C49    C     0.00023   0.50000   0.10149   0.00000  Uiso   1.00
C50    C     0.99970   0.50000   0.89858   0.00000  Uiso   1.00
C51    C     0.50018   0.50000   0.60143   0.00000  Uiso   1.00
C52    C     0.49975   0.50000   0.39864   0.00000  Uiso   1.00
H53    H     0.95033   0.50000   0.88658   0.00000  Uiso   1.00
H54    H     0.04961   0.50000   0.11349   0.00000  Uiso   1.00
H55    H     0.45038   0.50000   0.38662   0.00000  Uiso   1.00
H56    H     0.54955   0.50000   0.61345   0.00000  Uiso   1.00
H57    H     0.98967   0.50000   0.12347   0.00000  Uiso   1.00
H58    H     0.01027   0.50000   0.87660   0.00000  Uiso   1.00
H59    H     0.48963   0.50000   0.62335   0.00000  Uiso   1.00
H60    H     0.51030   0.50000   0.37672   0.00000  Uiso   1.00
C61    C     0.43233   0.50000   0.45165   0.00000  Uiso   1.00
C62    C     0.56761   0.50000   0.54841   0.00000  Uiso   1.00
C63    C     0.93234   0.50000   0.95166   0.00000  Uiso   1.00
C64    C     0.06759   0.50000   0.04841   0.00000  Uiso   1.00
C65    C     0.45155   0.50000   0.56759   0.00000  Uiso   1.00
C66    C     0.54839   0.50000   0.43248   0.00000  Uiso   1.00
C67    C     0.95164   0.50000   0.06764   0.00000  Uiso   1.00
C68    C     0.04830   0.50000   0.93243   0.00000  Uiso   1.00
C69    C     0.40496   0.50000   0.43207   0.00000  Uiso   1.00
C70    C     0.59497   0.50000   0.56799   0.00000  Uiso   1.00
C71    C     0.90495   0.50000   0.93211   0.00000  Uiso   1.00
C72    C     0.09498   0.50000   0.06796   0.00000  Uiso   1.00
C73    C     0.43202   0.50000   0.59497   0.00000  Uiso   1.00
C74    C     0.56792   0.50000   0.40510   0.00000  Uiso   1.00
C75    C     0.93207   0.50000   0.09499   0.00000  Uiso   1.00
C76    C     0.06787   0.50000   0.90508   0.00000  Uiso   1.00
C77    C     0.89107   0.67920   0.92232   0.00000  Uiso   1.00
C78    C     0.10886   0.67920   0.07775   0.00000  Uiso   1.00
C79    C     0.10886   0.32081   0.07775   0.00000  Uiso   1.00
C80    C     0.89107   0.32081   0.92232   0.00000  Uiso   1.00
C81    C     0.39109   0.67920   0.42227   0.00000  Uiso   1.00
C82    C     0.60884   0.67920   0.57780   0.00000  Uiso   1.00
C83    C     0.60884   0.32081   0.57780   0.00000  Uiso   1.00
C84    C     0.39109   0.32081   0.42227   0.00000  Uiso   1.00
C85    C     0.92227   0.32081   0.10885   0.00000  Uiso   1.00
C86    C     0.07767   0.32081   0.89122   0.00000  Uiso   1.00
C87    C     0.07767   0.67920   0.89122   0.00000  Uiso   1.00
C88    C     0.92227   0.67920   0.10885   0.00000  Uiso   1.00
C89    C     0.42223   0.32081   0.60884   0.00000  Uiso   1.00
C90    C     0.57770   0.32081   0.39122   0.00000  Uiso   1.00
C91    C     0.57770   0.67920   0.39122   0.00000  Uiso   1.00
C92    C     0.42223   0.67920   0.60884   0.00000  Uiso   1.00
H93    H     0.40084   0.81032   0.42921   0.00000  Uiso   1.00
H94    H     0.59909   0.81032   0.57086   0.00000  Uiso   1.00
H95    H     0.59909   0.18968   0.57086   0.00000  Uiso   1.00
H96    H     0.40084   0.18968   0.42921   0.00000  Uiso   1.00
H97    H     0.90083   0.81032   0.92925   0.00000  Uiso   1.00
H98    H     0.09911   0.81032   0.07082   0.00000  Uiso   1.00
H99    H     0.09911   0.18968   0.07082   0.00000  Uiso   1.00
H100   H     0.90083   0.18968   0.92925   0.00000  Uiso   1.00
H101   H     0.42916   0.18968   0.59909   0.00000  Uiso   1.00
H102   H     0.57078   0.18968   0.40098   0.00000  Uiso   1.00
H103   H     0.57078   0.81032   0.40098   0.00000  Uiso   1.00
H104   H     0.42916   0.81032   0.59909   0.00000  Uiso   1.00
H105   H     0.92920   0.18968   0.09911   0.00000  Uiso   1.00
H106   H     0.07074   0.18968   0.90096   0.00000  Uiso   1.00
H107   H     0.07074   0.81032   0.90096   0.00000  Uiso   1.00
H108   H     0.92920   0.81032   0.09911   0.00000  Uiso   1.00
C109   C     0.36369   0.67918   0.40297   0.00000  Uiso   1.00
C110   C     0.63625   0.67918   0.59709   0.00000  Uiso   1.00
C111   C     0.63625   0.32082   0.59709   0.00000  Uiso   1.00
C112   C     0.36369   0.32082   0.40297   0.00000  Uiso   1.00
C113   C     0.86365   0.67918   0.90305   0.00000  Uiso   1.00
C114   C     0.13629   0.67918   0.09701   0.00000  Uiso   1.00
C115   C     0.13629   0.32082   0.09701   0.00000  Uiso   1.00
C116   C     0.86365   0.32082   0.90305   0.00000  Uiso   1.00
C117   C     0.40299   0.32082   0.63626   0.00000  Uiso   1.00
C118   C     0.59695   0.32082   0.36381   0.00000  Uiso   1.00
C119   C     0.59695   0.67918   0.36381   0.00000  Uiso   1.00
C120   C     0.40299   0.67918   0.63626   0.00000  Uiso   1.00
C121   C     0.90299   0.32082   0.13625   0.00000  Uiso   1.00
C122   C     0.09694   0.32082   0.86382   0.00000  Uiso   1.00
C123   C     0.09694   0.67918   0.86382   0.00000  Uiso   1.00
C124   C     0.90299   0.67918   0.13625   0.00000  Uiso   1.00
H125   H     0.35383   0.81038   0.39620   0.00000  Uiso   1.00
H126   H     0.64610   0.81038   0.60387   0.00000  Uiso   1.00
H127   H     0.64610   0.18962   0.60387   0.00000  Uiso   1.00
H128   H     0.35383   0.18962   0.39620   0.00000  Uiso   1.00
H129   H     0.85378   0.81039   0.89629   0.00000  Uiso   1.00
H130   H     0.14615   0.81039   0.10378   0.00000  Uiso   1.00
H131   H     0.14615   0.18962   0.10378   0.00000  Uiso   1.00
H132   H     0.85378   0.18962   0.89629   0.00000  Uiso   1.00
H133   H     0.39623   0.18962   0.64612   0.00000  Uiso   1.00
H134   H     0.60371   0.18962   0.35395   0.00000  Uiso   1.00
H135   H     0.60371   0.81038   0.35395   0.00000  Uiso   1.00
H136   H     0.39623   0.81038   0.64612   0.00000  Uiso   1.00
H137   H     0.89622   0.18962   0.14610   0.00000  Uiso   1.00
H138   H     0.10371   0.18962   0.85397   0.00000  Uiso   1.00
H139   H     0.10371   0.81039   0.85397   0.00000  Uiso   1.00
H140   H     0.89622   0.81039   0.14610   0.00000  Uiso   1.00
C141   C     0.34976   0.50000   0.39314   0.00000  Uiso   1.00
C142   C     0.65018   0.50000   0.60692   0.00000  Uiso   1.00
C143   C     0.84971   0.50000   0.89324   0.00000  Uiso   1.00
C144   C     0.15023   0.50000   0.10683   0.00000  Uiso   1.00
C145   C     0.39318   0.50000   0.65019   0.00000  Uiso   1.00
C146   C     0.60675   0.50000   0.34988   0.00000  Uiso   1.00
C147   C     0.89317   0.50000   0.15018   0.00000  Uiso   1.00
C148   C     0.10676   0.50000   0.84989   0.00000  Uiso   1.00
C149   C     0.77057   0.50000   0.22287   0.00000  Uiso   1.00
C150   C     0.22936   0.50000   0.77720   0.00000  Uiso   1.00
C151   C     0.73707   0.50000   0.21923   0.00000  Uiso   1.00
C152   C     0.26287   0.50000   0.78084   0.00000  Uiso   1.00
C153   C     0.71681   0.50000   0.24593   0.00000  Uiso   1.00
C154   C     0.28313   0.50000   0.75414   0.00000  Uiso   1.00
C155   C     0.72935   0.50000   0.27719   0.00000  Uiso   1.00
C156   C     0.27059   0.50000   0.72287   0.00000  Uiso   1.00
C157   C     0.76285   0.50000   0.28084   0.00000  Uiso   1.00
C158   C     0.23708   0.50000   0.71923   0.00000  Uiso   1.00
C159   C     0.78311   0.50000   0.25414   0.00000  Uiso   1.00
C160   C     0.21682   0.50000   0.74593   0.00000  Uiso   1.00
C161   C     0.79043   0.50000   0.19582   0.00000  Uiso   1.00
C162   C     0.20950   0.50000   0.80424   0.00000  Uiso   1.00
H163   H     0.72701   0.50000   0.19703   0.00000  Uiso   1.00
H164   H     0.27293   0.50000   0.80304   0.00000  Uiso   1.00
H165   H     0.69264   0.50000   0.24235   0.00000  Uiso   1.00
H166   H     0.30729   0.50000   0.75772   0.00000  Uiso   1.00
C167   C     0.70949   0.50000   0.30424   0.00000  Uiso   1.00
C168   C     0.29045   0.50000   0.69583   0.00000  Uiso   1.00
H169   H     0.77291   0.50000   0.30304   0.00000  Uiso   1.00
H170   H     0.22702   0.50000   0.69703   0.00000  Uiso   1.00
H171   H     0.80727   0.50000   0.25773   0.00000  Uiso   1.00
H172   H     0.19266   0.50000   0.74234   0.00000  Uiso   1.00
N173   N     0.82247   0.50000   0.19817   0.00000  Uiso   1.00
N174   N     0.17746   0.50000   0.80190   0.00000  Uiso   1.00
N175   N     0.67745   0.50000   0.30187   0.00000  Uiso   1.00
N176   N     0.32248   0.50000   0.69820   0.00000  Uiso   1.00
N177   N     0.84192   0.50000   0.17415   0.00000  Uiso   1.00
N178   N     0.15801   0.50000   0.82592   0.00000  Uiso   1.00
N179   N     0.65800   0.50000   0.32589   0.00000  Uiso   1.00
N180   N     0.34194   0.50000   0.67418   0.00000  Uiso   1.00
H181   H     0.83340   0.50000   0.15276   0.00000  Uiso   1.00
H182   H     0.16653   0.50000   0.84731   0.00000  Uiso   1.00
C183   C     0.87393   0.50000   0.17745   0.00000  Uiso   1.00
C184   C     0.12600   0.50000   0.82262   0.00000  Uiso   1.00
C185   C     0.62599   0.50000   0.32259   0.00000  Uiso   1.00
C186   C     0.37395   0.50000   0.67748   0.00000  Uiso   1.00
O187   O     0.88702   0.50000   0.20423   0.00000  Uiso   1.00
O188   O     0.11291   0.50000   0.79584   0.00000  Uiso   1.00
H189   H     0.66651   0.50000   0.34727   0.00000  Uiso   1.00
H190   H     0.33342   0.50000   0.65280   0.00000  Uiso   1.00
O191   O     0.61288   0.50000   0.29582   0.00000  Uiso   1.00
O192   O     0.38705   0.50000   0.70425   0.00000  Uiso   1.00
H193   H     0.71945   0.50000   0.32646   0.00000  Uiso   1.00
H194   H     0.28048   0.50000   0.67361   0.00000  Uiso   1.00
C195   C     0.22287   0.50000   0.22934   0.00000  Uiso   1.00
C196   C     0.77706   0.50000   0.77073   0.00000  Uiso   1.00
C197   C     0.21916   0.50000   0.26279   0.00000  Uiso   1.00
C198   C     0.78077   0.50000   0.73728   0.00000  Uiso   1.00
C199   C     0.24587   0.50000   0.28306   0.00000  Uiso   1.00
C200   C     0.75406   0.50000   0.71701   0.00000  Uiso   1.00
C201   C     0.27721   0.50000   0.27060   0.00000  Uiso   1.00
C202   C     0.72273   0.50000   0.72947   0.00000  Uiso   1.00
C203   C     0.28091   0.50000   0.23715   0.00000  Uiso   1.00
C204   C     0.71902   0.50000   0.76292   0.00000  Uiso   1.00
C205   C     0.25421   0.50000   0.21688   0.00000  Uiso   1.00
C206   C     0.74573   0.50000   0.78319   0.00000  Uiso   1.00
C207   C     0.19581   0.50000   0.20947   0.00000  Uiso   1.00
C208   C     0.80412   0.50000   0.79060   0.00000  Uiso   1.00
H209   H     0.19691   0.50000   0.27279   0.00000  Uiso   1.00
H210   H     0.80302   0.50000   0.72728   0.00000  Uiso   1.00
H211   H     0.24225   0.50000   0.30718   0.00000  Uiso   1.00
H212   H     0.75769   0.50000   0.69289   0.00000  Uiso   1.00
C213   C     0.30426   0.50000   0.29048   0.00000  Uiso   1.00
C214   C     0.69567   0.50000   0.70959   0.00000  Uiso   1.00
H215   H     0.30317   0.50000   0.22715   0.00000  Uiso   1.00
H216   H     0.69676   0.50000   0.77292   0.00000  Uiso   1.00
H217   H     0.25784   0.50000   0.19276   0.00000  Uiso   1.00
H218   H     0.74209   0.50000   0.80731   0.00000  Uiso   1.00
N219   N     0.19821   0.50000   0.17749   0.00000  Uiso   1.00
N220   N     0.80172   0.50000   0.82258   0.00000  Uiso   1.00
N221   N     0.30183   0.50000   0.32245   0.00000  Uiso   1.00
N222   N     0.69810   0.50000   0.67761   0.00000  Uiso   1.00
N223   N     0.17418   0.50000   0.15803   0.00000  Uiso   1.00
N224   N     0.82575   0.50000   0.84204   0.00000  Uiso   1.00
N225   N     0.32585   0.50000   0.34193   0.00000  Uiso   1.00
N226   N     0.67409   0.50000   0.65814   0.00000  Uiso   1.00
H227   H     0.15275   0.50000   0.16651   0.00000  Uiso   1.00
H228   H     0.84719   0.50000   0.83356   0.00000  Uiso   1.00
C229   C     0.17753   0.50000   0.12608   0.00000  Uiso   1.00
C230   C     0.82241   0.50000   0.87399   0.00000  Uiso   1.00
C231   C     0.32247   0.50000   0.37388   0.00000  Uiso   1.00
C232   C     0.67746   0.50000   0.62619   0.00000  Uiso   1.00
O233   O     0.20436   0.50000   0.11304   0.00000  Uiso   1.00
O234   O     0.79557   0.50000   0.88703   0.00000  Uiso   1.00
H235   H     0.34728   0.50000   0.33347   0.00000  Uiso   1.00
H236   H     0.65265   0.50000   0.66660   0.00000  Uiso   1.00
O237   O     0.29563   0.50000   0.38690   0.00000  Uiso   1.00
O238   O     0.70431   0.50000   0.61317   0.00000  Uiso   1.00
H239   H     0.32654   0.50000   0.28057   0.00000  Uiso   1.00
H240   H     0.67339   0.50000   0.71950   0.00000  Uiso   1.00
H241   H     0.78046   0.50000   0.17360   0.00000  Uiso   1.00
H242   H     0.17354   0.50000   0.21939   0.00000  Uiso   1.00
H243   H     0.21948   0.50000   0.82647   0.00000  Uiso   1.00
H244   H     0.82640   0.50000   0.78068   0.00000  Uiso   1.00
loop_
_geom_bond_atom_site_label_1
_geom_bond_atom_site_label_2
_geom_bond_distance
_geom_bond_site_symmetry_2
_ccdc_geom_bond_type
N1     H5      0.970   .     S
N1     C9      1.350   .     S
N1     C13     1.350   .     S
N2     H6      0.970   .     S
N2     C10     1.350   .     S
N2     C14     1.350   .     S
N3     H7      0.970   .     S
N3     C11     1.353   1_554 S
N3     C15     1.351   .     S
N4     H8      0.970   .     S
N4     C12     1.353   1_556 S
N4     C16     1.351   .     S
C9     C17     1.396   .     S
C9     C61     1.414   .     D
C10    C18     1.396   .     D
C10    C62     1.414   .     S
C11    N3      1.353   1_556 S
C11    C19     1.393   1_556 S
C11    C63     1.414   .     D
C12    N4      1.353   1_554 S
C12    C20     1.393   1_554 D
C12    C64     1.414   .     S
C13    C21     1.396   .     S
C13    C65     1.414   .     D
C14    C22     1.396   .     D
C14    C66     1.414   .     S
C15    C23     1.396   .     S
C15    C67     1.414   .     D
C16    C24     1.396   .     D
C16    C68     1.414   .     S
C17    C21     1.378   .     D
C17    H25     1.022   .     S
C18    C22     1.378   .     S
C18    H26     1.022   .     S
C19    C11     1.393   1_554 S
C19    C23     1.378   .     D
C19    H27     1.025   1_554 S
C20    C12     1.393   1_556 D
C20    C24     1.378   .     S
C20    H28     1.025   1_556 S
C21    H29     1.022   .     S
C22    H30     1.022   .     S
C23    H31     1.022   .     S
C24    H32     1.022   .     S
H27    C19     1.025   1_556 S
H28    C20     1.025   1_554 S
N33    C37     1.356   .     D
N33    C42     1.358   1_655 S
N34    C38     1.356   .     S
N34    C41     1.358   1_455 D
N35    C39     1.356   .     D
N35    C44     1.356   .     S
N36    C40     1.356   .     S
N36    C43     1.356   .     D
C37    C45     1.396   .     S
C37    C63     1.414   .     S
C38    C46     1.396   .     S
C38    C64     1.414   .     D
C39    C47     1.396   .     S
C39    C61     1.415   .     S
C40    C48     1.396   .     S
C40    C62     1.415   .     D
C41    N34     1.358   1_655 D
C41    C49     1.393   1_655 S
C41    C67     1.414   .     S
C42    N33     1.358   1_455 S
C42    C50     1.393   1_455 S
C42    C68     1.414   .     D
C43    C51     1.396   .     S
C43    C65     1.415   .     S
C44    C52     1.396   .     S
C44    C66     1.415   .     D
C45    C50     1.375   .     D
C45    H53     1.022   .     S
C46    C49     1.375   .     D
C46    H54     1.022   .     S
C47    C52     1.375   .     D
C47    H55     1.022   .     S
C48    C51     1.375   .     D
C48    H56     1.022   .     S
C49    C41     1.393   1_455 S
C49    H57     1.025   1_455 S
C50    C42     1.393   1_655 S
C50    H58     1.025   1_655 S
C51    H59     1.022   .     S
C52    H60     1.022   .     S
H57    C49     1.025   1_655 S
H58    C50     1.025   1_455 S
C61    C69     1.413   .     S
C62    C70     1.413   .     S
C63    C71     1.413   .     S
C64    C72     1.413   .     S
C65    C73     1.413   .     S
C66    C74     1.413   .     S
C67    C75     1.413   .     S
C68    C76     1.413   .     S
C69    C81     1.412   .     D
C69    C84     1.412   .     S
C70    C82     1.412   .     S
C70    C83     1.412   .     D
C71    C77     1.412   .     D
C71    C80     1.412   .     S
C72    C78     1.412   .     S
C72    C79     1.412   .     D
C73    C89     1.412   .     D
C73    C92     1.412   .     S
C74    C90     1.412   .     D
C74    C91     1.412   .     S
C75    C85     1.412   .     D
C75    C88     1.412   .     S
C76    C86     1.412   .     D
C76    C87     1.412   .     S
C77    H97     1.024   .     S
C77    C113    1.407   .     S
C78    H98     1.024   .     S
C78    C114    1.407   .     D
C79    H99     1.024   .     S
C79    C115    1.407   .     S
C80    H100    1.024   .     S
C80    C116    1.407   .     D
C81    H93     1.024   .     S
C81    C109    1.407   .     S
C82    H94     1.024   .     S
C82    C110    1.407   .     D
C83    H95     1.024   .     S
C83    C111    1.407   .     S
C84    H96     1.024   .     S
C84    C112    1.407   .     D
C85    H105    1.024   .     S
C85    C121    1.407   .     S
C86    H106    1.024   .     S
C86    C122    1.407   .     S
C87    H107    1.024   .     S
C87    C123    1.407   .     D
C88    H108    1.024   .     S
C88    C124    1.407   .     D
C89    H101    1.024   .     S
C89    C117    1.407   .     S
C90    H102    1.024   .     S
C90    C118    1.407   .     S
C91    H103    1.024   .     S
C91    C119    1.407   .     D
C92    H104    1.024   .     S
C92    C120    1.407   .     D
C109   H125    1.024   .     S
C109   C141    1.413   .     D
C110   H126    1.024   .     S
C110   C142    1.413   .     S
C111   H127    1.024   .     S
C111   C142    1.413   .     D
C112   H128    1.024   .     S
C112   C141    1.413   .     S
C113   H129    1.024   .     S
C113   C143    1.413   .     D
C114   H130    1.024   .     S
C114   C144    1.413   .     S
C115   H131    1.024   .     S
C115   C144    1.413   .     D
C116   H132    1.024   .     S
C116   C143    1.413   .     S
C117   H133    1.024   .     S
C117   C145    1.413   .     D
C118   H134    1.024   .     S
C118   C146    1.413   .     D
C119   H135    1.024   .     S
C119   C146    1.413   .     S
C120   H136    1.024   .     S
C120   C145    1.413   .     S
C121   H137    1.024   .     S
C121   C147    1.413   .     D
C122   H138    1.024   .     S
C122   C148    1.413   .     D
C123   H139    1.024   .     S
C123   C148    1.413   .     S
C124   H140    1.024   .     S
C124   C147    1.413   .     S
C141   C231    1.403   .     S
C142   C232    1.403   .     S
C143   C230    1.403   .     S
C144   C229    1.403   .     S
C145   C186    1.403   .     S
C146   C185    1.403   .     S
C147   C183    1.403   .     S
C148   C184    1.403   .     S
C149   C151    1.415   .     D
C149   C159    1.416   .     S
C149   C161    1.410   .     S
C150   C152    1.415   .     D
C150   C160    1.416   .     S
C150   C162    1.410   .     S
C151   C153    1.408   .     S
C151   H163    1.024   .     S
C152   C154    1.408   .     S
C152   H164    1.024   .     S
C153   C155    1.416   .     D
C153   H165    1.025   .     S
C154   C156    1.416   .     D
C154   H166    1.025   .     S
C155   C157    1.415   .     S
C155   C167    1.410   .     S
C156   C158    1.415   .     S
C156   C168    1.410   .     S
C157   C159    1.408   .     D
C157   H169    1.024   .     S
C158   C160    1.408   .     D
C158   H170    1.024   .     S
C159   H171    1.025   .     S
C160   H172    1.025   .     S
C161   N173    1.348   .     D
C161   H241    1.024   .     S
C162   N174    1.348   .     D
C162   H243    1.024   .     S
C167   N175    1.348   .     D
C167   H193    1.024   .     S
C168   N176    1.348   .     D
C168   H194    1.024   .     S
N173   N177    1.299   .     S
N174   N178    1.299   .     S
N175   N179    1.299   .     S
N176   N180    1.299   .     S
N177   H181    0.968   .     S
N177   C183    1.351   .     S
N178   H182    0.968   .     S
N178   C184    1.351   .     S
N179   C185    1.351   .     S
N179   H189    0.968   .     S
N180   C186    1.351   .     S
N180   H190    0.968   .     S
C183   O187    1.253   .     D
C184   O188    1.253   .     D
C185   O191    1.253   .     D
C186   O192    1.253   .     D
C195   C197    1.415   .     D
C195   C205    1.416   .     S
C195   C207    1.410   .     S
C196   C198    1.415   .     D
C196   C206    1.416   .     S
C196   C208    1.410   .     S
C197   C199    1.408   .     S
C197   H209    1.024   .     S
C198   C200    1.408   .     S
C198   H210    1.024   .     S
C199   C201    1.416   .     D
C199   H211    1.025   .     S
C200   C202    1.416   .     D
C200   H212    1.025   .     S
C201   C203    1.415   .     S
C201   C213    1.410   .     S
C202   C204    1.415   .     S
C202   C214    1.410   .     S
C203   C205    1.408   .     D
C203   H215    1.024   .     S
C204   C206    1.408   .     D
C204   H216    1.024   .     S
C205   H217    1.025   .     S
C206   H218    1.025   .     S
C207   N219    1.348   .     D
C207   H242    1.024   .     S
C208   N220    1.348   .     D
C208   H244    1.024   .     S
C213   N221    1.348   .     D
C213   H239    1.024   .     S
C214   N222    1.348   .     D
C214   H240    1.024   .     S
N219   N223    1.299   .     S
N220   N224    1.299   .     S
N221   N225    1.299   .     S
N222   N226    1.299   .     S
N223   H227    0.968   .     S
N223   C229    1.351   .     S
N224   H228    0.968   .     S
N224   C230    1.351   .     S
N225   C231    1.351   .     S
N225   H235    0.968   .     S
N226   C232    1.351   .     S
N226   H236    0.968   .     S
C229   O233    1.253   .     D
C230   O234    1.253   .     D
C231   O237    1.253   .     D
C232   O238    1.253   .     D
