data_180
_audit_creation_date              2023-09-08
_audit_creation_method            'Materials Studio'
_symmetry_space_group_name_H-M    'P1'
_symmetry_Int_Tables_number       1
_symmetry_cell_setting            triclinic
loop_
_symmetry_equiv_pos_as_xyz
  x,y,z
_cell_length_a                    28.9774
_cell_length_b                    6.8442
_cell_length_c                    28.9745
_cell_angle_alpha                 90.0000
_cell_angle_beta                  89.8548
_cell_angle_gamma                 90.0000
loop_
_atom_site_label
_atom_site_type_symbol
_atom_site_fract_x
_atom_site_fract_y
_atom_site_fract_z
_atom_site_U_iso_or_equiv
_atom_site_adp_type
_atom_site_occupancy
N1     N     0.94032   0.50000   0.04356   0.00000  Uiso   1.00
N2     N     0.05968   0.50000   0.95644   0.00000  Uiso   1.00
H3     H     0.96739   0.50000   0.02380   0.00000  Uiso   1.00
H4     H     0.03261   0.50000   0.97620   0.00000  Uiso   1.00
C5     C     0.94207   0.50000   0.09014   0.00000  Uiso   1.00
C6     C     0.05793   0.50000   0.90986   0.00000  Uiso   1.00
C7     C     0.89654   0.50000   0.02767   0.00000  Uiso   1.00
C8     C     0.10346   0.50000   0.97233   0.00000  Uiso   1.00
C9     C     0.89625   0.50000   0.10513   0.00000  Uiso   1.00
C10    C     0.10375   0.50000   0.89487   0.00000  Uiso   1.00
C11    C     0.86828   0.50000   0.06674   0.00000  Uiso   1.00
C12    C     0.13173   0.50000   0.93326   0.00000  Uiso   1.00
H13    H     0.88479   0.50000   0.13852   0.00000  Uiso   1.00
H14    H     0.11521   0.50000   0.86148   0.00000  Uiso   1.00
H15    H     0.83302   0.50000   0.06747   0.00000  Uiso   1.00
H16    H     0.16698   0.50000   0.93253   0.00000  Uiso   1.00
N17    N     0.04272   0.50000   0.05863   0.00000  Uiso   1.00
N18    N     0.95728   0.50000   0.94137   0.00000  Uiso   1.00
C19    C     0.02734   0.50000   0.10288   0.00000  Uiso   1.00
C20    C     0.97266   0.50000   0.89712   0.00000  Uiso   1.00
C21    C     0.91049   0.50000   0.94251   0.00000  Uiso   1.00
C22    C     0.08951   0.50000   0.05749   0.00000  Uiso   1.00
C23    C     0.06621   0.50000   0.13122   0.00000  Uiso   1.00
C24    C     0.93379   0.50000   0.86878   0.00000  Uiso   1.00
C25    C     0.89542   0.50000   0.89679   0.00000  Uiso   1.00
C26    C     0.10458   0.50000   0.10321   0.00000  Uiso   1.00
H27    H     0.06682   0.50000   0.16650   0.00000  Uiso   1.00
H28    H     0.93318   0.50000   0.83350   0.00000  Uiso   1.00
H29    H     0.86204   0.50000   0.88543   0.00000  Uiso   1.00
H30    H     0.13797   0.50000   0.11457   0.00000  Uiso   1.00
C31    C     0.98125   0.50000   0.11912   0.00000  Uiso   1.00
C32    C     0.01875   0.50000   0.88088   0.00000  Uiso   1.00
C33    C     0.88095   0.50000   0.98148   0.00000  Uiso   1.00
C34    C     0.11905   0.50000   0.01852   0.00000  Uiso   1.00
C35    C     0.97365   0.50000   0.16731   0.00000  Uiso   1.00
C36    C     0.02636   0.50000   0.83269   0.00000  Uiso   1.00
C37    C     0.83281   0.50000   0.97385   0.00000  Uiso   1.00
C38    C     0.16720   0.50000   0.02615   0.00000  Uiso   1.00
C39    C     0.96961   0.32191   0.19161   0.00000  Uiso   1.00
C40    C     0.03039   0.32191   0.80839   0.00000  Uiso   1.00
C41    C     0.03039   0.67808   0.80839   0.00000  Uiso   1.00
C42    C     0.96961   0.67808   0.19161   0.00000  Uiso   1.00
C43    C     0.80853   0.67808   0.96980   0.00000  Uiso   1.00
C44    C     0.19147   0.67808   0.03020   0.00000  Uiso   1.00
C45    C     0.19147   0.32191   0.03020   0.00000  Uiso   1.00
C46    C     0.80853   0.32191   0.96980   0.00000  Uiso   1.00
H47    H     0.97244   0.19157   0.17449   0.00000  Uiso   1.00
H48    H     0.02756   0.19157   0.82551   0.00000  Uiso   1.00
H49    H     0.02756   0.80843   0.82551   0.00000  Uiso   1.00
H50    H     0.97244   0.80843   0.17449   0.00000  Uiso   1.00
H51    H     0.82563   0.80843   0.97265   0.00000  Uiso   1.00
H52    H     0.17437   0.80843   0.02735   0.00000  Uiso   1.00
H53    H     0.17437   0.19157   0.02735   0.00000  Uiso   1.00
H54    H     0.82563   0.19157   0.97265   0.00000  Uiso   1.00
C55    C     0.96142   0.32191   0.23951   0.00000  Uiso   1.00
C56    C     0.03858   0.32191   0.76049   0.00000  Uiso   1.00
C57    C     0.03858   0.67809   0.76049   0.00000  Uiso   1.00
C58    C     0.96142   0.67809   0.23951   0.00000  Uiso   1.00
C59    C     0.76068   0.67809   0.96157   0.00000  Uiso   1.00
C60    C     0.23932   0.67809   0.03843   0.00000  Uiso   1.00
C61    C     0.23932   0.32191   0.03843   0.00000  Uiso   1.00
C62    C     0.76068   0.32191   0.96157   0.00000  Uiso   1.00
H63    H     0.95828   0.19145   0.25656   0.00000  Uiso   1.00
H64    H     0.04172   0.19145   0.74345   0.00000  Uiso   1.00
H65    H     0.04172   0.80854   0.74345   0.00000  Uiso   1.00
H66    H     0.95828   0.80854   0.25656   0.00000  Uiso   1.00
H67    H     0.74366   0.80854   0.95842   0.00000  Uiso   1.00
H68    H     0.25634   0.80854   0.04158   0.00000  Uiso   1.00
H69    H     0.25634   0.19145   0.04158   0.00000  Uiso   1.00
H70    H     0.74366   0.19145   0.95842   0.00000  Uiso   1.00
C71    C     0.95722   0.50000   0.26386   0.00000  Uiso   1.00
C72    C     0.04278   0.50000   0.73614   0.00000  Uiso   1.00
C73    C     0.73636   0.50000   0.95736   0.00000  Uiso   1.00
C74    C     0.26364   0.50000   0.04264   0.00000  Uiso   1.00
C75    C     0.53463   0.50000   0.00576   0.00000  Uiso   1.00
C76    C     0.46537   0.50000   0.99424   0.00000  Uiso   1.00
C77    C     0.49432   0.50000   0.03409   0.00000  Uiso   1.00
C78    C     0.50568   0.50000   0.96591   0.00000  Uiso   1.00
C79    C     0.58425   0.50000   0.01488   0.00000  Uiso   1.00
C80    C     0.41575   0.50000   0.98512   0.00000  Uiso   1.00
O81    O     0.48808   0.50000   0.07567   0.00000  Uiso   1.00
O82    O     0.51193   0.50000   0.92433   0.00000  Uiso   1.00
N83    N     0.61446   0.50000   0.97958   0.00000  Uiso   1.00
N84    N     0.38554   0.50000   0.02042   0.00000  Uiso   1.00
N85    N     0.65898   0.50000   0.98479   0.00000  Uiso   1.00
N86    N     0.34103   0.50000   0.01521   0.00000  Uiso   1.00
H87    H     0.67180   0.50000   0.01560   0.00000  Uiso   1.00
H88    H     0.32820   0.50000   0.98440   0.00000  Uiso   1.00
C89    C     0.68873   0.50000   0.94887   0.00000  Uiso   1.00
C90    C     0.31127   0.50000   0.05113   0.00000  Uiso   1.00
O91    O     0.67516   0.50000   0.90789   0.00000  Uiso   1.00
O92    O     0.32484   0.50000   0.09211   0.00000  Uiso   1.00
H93    H     0.40444   0.50000   0.95171   0.00000  Uiso   1.00
H94    H     0.59556   0.50000   0.04829   0.00000  Uiso   1.00
C95    C     0.99426   0.50000   0.53467   0.00000  Uiso   1.00
C96    C     0.00575   0.50000   0.46533   0.00000  Uiso   1.00
C97    C     0.96591   0.50000   0.49451   0.00000  Uiso   1.00
C98    C     0.03409   0.50000   0.50549   0.00000  Uiso   1.00
C99    C     0.98517   0.50000   0.58435   0.00000  Uiso   1.00
C100   C     0.01483   0.50000   0.41565   0.00000  Uiso   1.00
O101   O     0.92433   0.50000   0.48850   0.00000  Uiso   1.00
O102   O     0.07567   0.50000   0.51150   0.00000  Uiso   1.00
N103   N     0.02048   0.50000   0.61436   0.00000  Uiso   1.00
N104   N     0.97952   0.50000   0.38564   0.00000  Uiso   1.00
N105   N     0.01530   0.50000   0.65891   0.00000  Uiso   1.00
N106   N     0.98470   0.50000   0.34109   0.00000  Uiso   1.00
H107   H     0.98450   0.50000   0.67190   0.00000  Uiso   1.00
H108   H     0.01550   0.50000   0.32810   0.00000  Uiso   1.00
C109   C     0.05124   0.50000   0.68846   0.00000  Uiso   1.00
C110   C     0.94876   0.50000   0.31154   0.00000  Uiso   1.00
O111   O     0.09220   0.50000   0.67465   0.00000  Uiso   1.00
O112   O     0.90780   0.50000   0.32535   0.00000  Uiso   1.00
H113   H     0.04823   0.50000   0.40415   0.00000  Uiso   1.00
H114   H     0.95177   0.50000   0.59585   0.00000  Uiso   1.00
loop_
_geom_bond_atom_site_label_1
_geom_bond_atom_site_label_2
_geom_bond_distance
_geom_bond_site_symmetry_2
_ccdc_geom_bond_type
N1     H3      0.970   .     S
N1     C5      1.351   .     S
N1     C7      1.351   .     S
N2     H4      0.970   .     S
N2     C6      1.351   .     S
N2     C8      1.351   .     S
C5     C9      1.396   .     D
C5     C31     1.414   .     S
C6     C10     1.396   .     S
C6     C32     1.414   .     D
C7     C11     1.396   .     D
C7     C33     1.414   1_554 S
C8     C12     1.396   .     S
C8     C34     1.414   1_556 D
C9     C11     1.378   .     S
C9     H13     1.022   .     S
C10    C12     1.378   .     D
C10    H14     1.022   .     S
C11    H15     1.022   .     S
C12    H16     1.022   .     S
N17    C19     1.356   .     S
N17    C22     1.356   .     D
N18    C20     1.356   .     D
N18    C21     1.356   .     S
C19    C23     1.396   .     S
C19    C31     1.415   1_455 D
C20    C24     1.396   .     S
C20    C32     1.415   1_655 S
C21    C25     1.396   .     S
C21    C33     1.415   .     D
C22    C26     1.396   .     S
C22    C34     1.415   .     S
C23    C26     1.375   .     D
C23    H27     1.022   .     S
C24    C25     1.375   .     D
C24    H28     1.022   .     S
C25    H29     1.023   .     S
C26    H30     1.023   .     S
C31    C19     1.415   1_655 D
C31    C35     1.413   .     S
C32    C20     1.415   1_455 S
C32    C36     1.413   .     S
C33    C7      1.414   1_556 S
C33    C37     1.413   .     S
C34    C8      1.414   1_554 D
C34    C38     1.413   .     S
C35    C39     1.412   .     S
C35    C42     1.412   .     D
C36    C40     1.412   .     S
C36    C41     1.412   .     D
C37    C43     1.412   .     D
C37    C46     1.412   .     S
C38    C44     1.412   .     D
C38    C45     1.412   .     S
C39    H47     1.024   .     S
C39    C55     1.407   .     D
C40    H48     1.024   .     S
C40    C56     1.407   .     D
C41    H49     1.024   .     S
C41    C57     1.407   .     S
C42    H50     1.024   .     S
C42    C58     1.407   .     S
C43    H51     1.024   .     S
C43    C59     1.407   .     S
C44    H52     1.024   .     S
C44    C60     1.407   .     S
C45    H53     1.024   .     S
C45    C61     1.407   .     D
C46    H54     1.024   .     S
C46    C62     1.407   .     D
C55    H63     1.024   .     S
C55    C71     1.413   .     S
C56    H64     1.024   .     S
C56    C72     1.413   .     S
C57    H65     1.024   .     S
C57    C72     1.413   .     D
C58    H66     1.024   .     S
C58    C71     1.413   .     D
C59    H67     1.024   .     S
C59    C73     1.413   .     D
C60    H68     1.024   .     S
C60    C74     1.413   .     D
C61    H69     1.024   .     S
C61    C74     1.413   .     S
C62    H70     1.024   .     S
C62    C73     1.413   .     S
C71    C110    1.402   .     S
C72    C109    1.402   .     S
C73    C89     1.402   .     S
C74    C90     1.402   .     S
C75    C77     1.426   .     S
C75    C78     1.429   1_554 S
C75    C79     1.463   .     D
C76    C77     1.429   1_556 S
C76    C78     1.426   .     S
C76    C80     1.463   .     D
C77    C76     1.429   1_554 S
C77    O81     1.218   .     D
C78    C75     1.429   1_556 S
C78    O82     1.218   .     D
C79    N83     1.345   1_554 S
C79    H94     1.023   .     S
C80    N84     1.345   1_556 S
C80    H93     1.023   .     S
N83    C79     1.345   1_556 S
N83    N85     1.299   .     D
N84    C80     1.345   1_554 S
N84    N86     1.299   .     D
N85    H87     0.968   1_556 S
N85    C89     1.350   .     S
N86    H88     0.968   1_554 S
N86    C90     1.350   .     S
H87    N85     0.968   1_554 S
H88    N86     0.968   1_556 S
C89    O91     1.252   .     D
C90    O92     1.252   .     D
C95    C97     1.426   .     S
C95    C98     1.429   1_655 S
C95    C99     1.463   .     D
C96    C97     1.429   1_455 S
C96    C98     1.426   .     S
C96    C100    1.463   .     D
C97    C96     1.429   1_655 S
C97    O101    1.218   .     D
C98    C95     1.429   1_455 S
C98    O102    1.218   .     D
C99    N103    1.345   1_655 S
C99    H114    1.023   .     S
C100   N104    1.345   1_455 S
C100   H113    1.023   .     S
N103   C99     1.345   1_455 S
N103   N105    1.299   .     D
N104   C100    1.345   1_655 S
N104   N106    1.299   .     D
N105   H107    0.968   1_455 S
N105   C109    1.350   .     S
N106   H108    0.968   1_655 S
N106   C110    1.350   .     S
H107   N105    0.968   1_655 S
H108   N106    0.968   1_455 S
C109   O111    1.252   .     D
C110   O112    1.252   .     D
