data_182
_audit_creation_date              2023-09-08
_audit_creation_method            'Materials Studio'
_symmetry_space_group_name_H-M    'P1'
_symmetry_Int_Tables_number       1
_symmetry_cell_setting            triclinic
loop_
_symmetry_equiv_pos_as_xyz
  x,y,z
_cell_length_a                    25.0645
_cell_length_b                    25.0645
_cell_length_c                    4.2989
_cell_angle_alpha                 90.0000
_cell_angle_beta                  90.0000
_cell_angle_gamma                 120.0000
loop_
_atom_site_label
_atom_site_type_symbol
_atom_site_fract_x
_atom_site_fract_y
_atom_site_fract_z
_atom_site_U_iso_or_equiv
_atom_site_adp_type
_atom_site_occupancy
C1     C     0.55638   0.38826  -0.79595   0.00000  Uiso   1.00
C2     C     0.61174   0.16812  -0.79595   0.00000  Uiso   1.00
C3     C     0.83188   0.44362  -0.79595   0.00000  Uiso   1.00
C4     C     0.38826   0.55638   0.79595   0.00000  Uiso   1.00
C5     C     0.16812   0.61174   0.79595   0.00000  Uiso   1.00
C6     C     0.44362   0.83188   0.79595   0.00000  Uiso   1.00
C7     C     0.44362   0.61174   0.79595   0.00000  Uiso   1.00
C8     C     0.38826   0.83188   0.79595   0.00000  Uiso   1.00
C9     C     0.16812   0.55638   0.79595   0.00000  Uiso   1.00
C10    C     0.61174   0.44362  -0.79595   0.00000  Uiso   1.00
C11    C     0.83188   0.38826  -0.79595   0.00000  Uiso   1.00
C12    C     0.55638   0.16812  -0.79595   0.00000  Uiso   1.00
C13    C     0.54748   0.34038  -0.98469   0.00000  Uiso   1.00
C14    C     0.65962   0.20710  -0.98469   0.00000  Uiso   1.00
C15    C     0.79290   0.45252  -0.98469   0.00000  Uiso   1.00
C16    C     0.34038   0.54748   0.98469   0.00000  Uiso   1.00
C17    C     0.20710   0.65962   0.98469   0.00000  Uiso   1.00
C18    C     0.45252   0.79290   0.98469   0.00000  Uiso   1.00
C19    C     0.45252   0.65962   0.98469   0.00000  Uiso   1.00
C20    C     0.34038   0.79290   0.98469   0.00000  Uiso   1.00
C21    C     0.20710   0.54748   0.98469   0.00000  Uiso   1.00
C22    C     0.65962   0.45252  -0.98469   0.00000  Uiso   1.00
C23    C     0.79290   0.34038  -0.98469   0.00000  Uiso   1.00
C24    C     0.54748   0.20710  -0.98469   0.00000  Uiso   1.00
C25    C     0.59625   0.34775  -1.17298   0.00000  Uiso   1.00
C26    C     0.65225   0.24850  -1.17298   0.00000  Uiso   1.00
C27    C     0.75150   0.40375  -1.17298   0.00000  Uiso   1.00
C28    C     0.34775   0.59625   1.17298   0.00000  Uiso   1.00
C29    C     0.24850   0.65225   1.17298   0.00000  Uiso   1.00
C30    C     0.40375   0.75150   1.17298   0.00000  Uiso   1.00
C31    C     0.40375   0.65225   1.17298   0.00000  Uiso   1.00
C32    C     0.34775   0.75150   1.17298   0.00000  Uiso   1.00
C33    C     0.24850   0.59625   1.17298   0.00000  Uiso   1.00
C34    C     0.65225   0.40375  -1.17298   0.00000  Uiso   1.00
C35    C     0.75150   0.34775  -1.17298   0.00000  Uiso   1.00
C36    C     0.59625   0.24850  -1.17298   0.00000  Uiso   1.00
C37    C     0.46388   0.44021  -0.10750   0.00000  Uiso   1.00
C38    C     0.55979   0.02367  -0.10750   0.00000  Uiso   1.00
C39    C     0.97633   0.53612  -0.10750   0.00000  Uiso   1.00
C40    C     0.44021   0.46388   0.10750   0.00000  Uiso   1.00
C41    C     0.02367   0.55979   0.10750   0.00000  Uiso   1.00
C42    C     0.53612   0.97633   0.10750   0.00000  Uiso   1.00
C43    C     0.53612   0.55979   0.10750   0.00000  Uiso   1.00
C44    C     0.44021   0.97633   0.10750   0.00000  Uiso   1.00
C45    C     0.02367   0.46388   0.10750   0.00000  Uiso   1.00
C46    C     0.55979   0.53612  -0.10750   0.00000  Uiso   1.00
C47    C     0.97633   0.44021  -0.10750   0.00000  Uiso   1.00
C48    C     0.46388   0.02367  -0.10750   0.00000  Uiso   1.00
O49    O     0.51685   0.39176  -0.59138   0.00000  Uiso   1.00
O50    O     0.60824   0.12509  -0.59138   0.00000  Uiso   1.00
O51    O     0.87491   0.48315  -0.59138   0.00000  Uiso   1.00
O52    O     0.39176   0.51685   0.59138   0.00000  Uiso   1.00
O53    O     0.12509   0.60824   0.59138   0.00000  Uiso   1.00
O54    O     0.48315   0.87491   0.59138   0.00000  Uiso   1.00
O55    O     0.48315   0.60824   0.59138   0.00000  Uiso   1.00
O56    O     0.39176   0.87491   0.59138   0.00000  Uiso   1.00
O57    O     0.12509   0.51685   0.59138   0.00000  Uiso   1.00
O58    O     0.60824   0.48315  -0.59138   0.00000  Uiso   1.00
O59    O     0.87491   0.39176  -0.59138   0.00000  Uiso   1.00
O60    O     0.51685   0.12509  -0.59138   0.00000  Uiso   1.00
H61    H     0.50315   0.29735  -0.98872   0.00000  Uiso   1.00
H62    H     0.70265   0.20580  -0.98872   0.00000  Uiso   1.00
H63    H     0.79420   0.49685  -0.98872   0.00000  Uiso   1.00
H64    H     0.29735   0.50315   0.98872   0.00000  Uiso   1.00
H65    H     0.20580   0.70265   0.98872   0.00000  Uiso   1.00
H66    H     0.49685   0.79420   0.98872   0.00000  Uiso   1.00
H67    H     0.49685   0.70265   0.98872   0.00000  Uiso   1.00
H68    H     0.29735   0.79420   0.98872   0.00000  Uiso   1.00
H69    H     0.20580   0.50315   0.98872   0.00000  Uiso   1.00
H70    H     0.70265   0.49685  -0.98872   0.00000  Uiso   1.00
H71    H     0.79420   0.29735  -0.98872   0.00000  Uiso   1.00
H72    H     0.50315   0.20580  -0.98872   0.00000  Uiso   1.00
H73    H     0.43562   0.39304  -0.19472   0.00000  Uiso   1.00
H74    H     0.60696   0.04258  -0.19472   0.00000  Uiso   1.00
H75    H     0.95742   0.56438  -0.19472   0.00000  Uiso   1.00
H76    H     0.39304   0.43562   0.19472   0.00000  Uiso   1.00
H77    H     0.04258   0.60696   0.19472   0.00000  Uiso   1.00
H78    H     0.56438   0.95742   0.19472   0.00000  Uiso   1.00
H79    H     0.56438   0.60696   0.19472   0.00000  Uiso   1.00
H80    H     0.39304   0.95742   0.19472   0.00000  Uiso   1.00
H81    H     0.04258   0.43562   0.19472   0.00000  Uiso   1.00
H82    H     0.60696   0.56438  -0.19472   0.00000  Uiso   1.00
H83    H     0.95742   0.39304  -0.19472   0.00000  Uiso   1.00
H84    H     0.43562   0.04258  -0.19472   0.00000  Uiso   1.00
C85    C     0.58635   0.29318  -1.36162   0.00000  Uiso   1.00
C86    C     0.70683   0.29317  -1.36162   0.00000  Uiso   1.00
C87    C     0.70683   0.41365  -1.36162   0.00000  Uiso   1.00
C88    C     0.29318   0.58635   1.36162   0.00000  Uiso   1.00
C89    C     0.29318   0.70683   1.36162   0.00000  Uiso   1.00
C90    C     0.41365   0.70683   1.36162   0.00000  Uiso   1.00
H91    H     0.53847   0.26924  -1.44962   0.00000  Uiso   1.00
H92    H     0.73077   0.26923  -1.44962   0.00000  Uiso   1.00
H93    H     0.73077   0.46153  -1.44962   0.00000  Uiso   1.00
H94    H     0.26923   0.53847   1.44962   0.00000  Uiso   1.00
H95    H     0.26923   0.73077   1.44962   0.00000  Uiso   1.00
H96    H     0.46153   0.73077   1.44962   0.00000  Uiso   1.00
H97    H     0.61512   0.30756  -1.57271   0.00000  Uiso   1.00
H98    H     0.69244   0.30756  -1.57271   0.00000  Uiso   1.00
H99    H     0.69244   0.38488  -1.57271   0.00000  Uiso   1.00
H100   H     0.30756   0.61512   1.57271   0.00000  Uiso   1.00
H101   H     0.30756   0.69244   1.57271   0.00000  Uiso   1.00
H102   H     0.38488   0.69244   1.57271   0.00000  Uiso   1.00
C103   C     0.52400   0.47600  -0.21855   0.00000  Uiso   1.00
C104   C     0.52400   0.04800  -0.21855   0.00000  Uiso   1.00
C105   C     0.95200   0.47600  -0.21855   0.00000  Uiso   1.00
C106   C     0.47600   0.52400   0.21855   0.00000  Uiso   1.00
C107   C     0.04800   0.52400   0.21855   0.00000  Uiso   1.00
C108   C     0.47600   0.95200   0.21855   0.00000  Uiso   1.00
B109   B     0.54943   0.45057  -0.46376   0.00000  Uiso   1.00
B110   B     0.54943   0.09886  -0.46376   0.00000  Uiso   1.00
B111   B     0.90114   0.45057  -0.46376   0.00000  Uiso   1.00
B112   B     0.45057   0.54943   0.46376   0.00000  Uiso   1.00
B113   B     0.09886   0.54943   0.46376   0.00000  Uiso   1.00
B114   B     0.45057   0.90114   0.46376   0.00000  Uiso   1.00
loop_
_geom_bond_atom_site_label_1
_geom_bond_atom_site_label_2
_geom_bond_distance
_geom_bond_site_symmetry_2
_ccdc_geom_bond_type
C1     C10     1.388   .     D
C1     C13     1.371   .     S
C1     O49     1.360   .     S
C2     C12     1.388   .     D
C2     C14     1.371   .     S
C2     O50     1.360   .     S
C3     C11     1.388   .     D
C3     C15     1.371   .     S
C3     O51     1.360   .     S
C4     C7      1.388   .     D
C4     C16     1.371   .     S
C4     O52     1.360   .     S
C5     C9      1.388   .     D
C5     C17     1.371   .     S
C5     O53     1.360   .     S
C6     C8      1.388   .     D
C6     C18     1.371   .     S
C6     O54     1.360   .     S
C7     C19     1.371   .     S
C7     O55     1.360   .     S
C8     C20     1.371   .     S
C8     O56     1.360   .     S
C9     C21     1.371   .     S
C9     O57     1.360   .     S
C10    C22     1.371   .     S
C10    O58     1.360   .     S
C11    C23     1.371   .     S
C11    O59     1.360   .     S
C12    C24     1.371   .     S
C12    O60     1.360   .     S
C13    C25     1.399   .     D
C13    H61     1.095   .     S
C14    C26     1.399   .     D
C14    H62     1.095   .     S
C15    C27     1.399   .     D
C15    H63     1.095   .     S
C16    C28     1.399   .     D
C16    H64     1.095   .     S
C17    C29     1.399   .     D
C17    H65     1.095   .     S
C18    C30     1.399   .     D
C18    H66     1.095   .     S
C19    C31     1.399   .     D
C19    H67     1.095   .     S
C20    C32     1.399   .     D
C20    H68     1.095   .     S
C21    C33     1.399   .     D
C21    H69     1.095   .     S
C22    C34     1.399   .     D
C22    H70     1.095   .     S
C23    C35     1.399   .     D
C23    H71     1.095   .     S
C24    C36     1.399   .     D
C24    H72     1.095   .     S
C25    C34     1.404   .     S
C25    C85     1.500   .     S
C26    C36     1.404   .     S
C26    C86     1.500   .     S
C27    C35     1.404   .     S
C27    C87     1.500   .     S
C28    C31     1.404   .     S
C28    C88     1.500   .     S
C29    C33     1.404   .     S
C29    C89     1.500   .     S
C30    C32     1.404   .     S
C30    C90     1.500   .     S
C31    C90     1.500   .     S
C32    C89     1.500   .     S
C33    C88     1.500   .     S
C34    C87     1.500   .     S
C35    C86     1.500   .     S
C36    C85     1.500   .     S
C37    C40     1.382   .     D
C37    H73     1.097   .     S
C37    C103    1.397   .     S
C38    C42     1.382   1_545 D
C38    H74     1.097   .     S
C38    C104    1.397   .     S
C39    C41     1.382   1_655 S
C39    H75     1.097   .     S
C39    C105    1.397   .     D
C40    H76     1.097   .     S
C40    C106    1.397   .     S
C41    C39     1.382   1_455 S
C41    H77     1.097   .     S
C41    C107    1.397   .     D
C42    C38     1.382   1_565 D
C42    H78     1.097   .     S
C42    C108    1.397   .     S
C43    C46     1.382   .     S
C43    H79     1.097   .     S
C43    C106    1.397   .     D
C44    C48     1.382   1_565 S
C44    H80     1.097   .     S
C44    C108    1.397   .     D
C45    C47     1.382   1_455 D
C45    H81     1.097   .     S
C45    C107    1.397   .     S
C46    H82     1.097   .     S
C46    C103    1.397   .     D
C47    C45     1.382   1_655 D
C47    H83     1.097   .     S
C47    C105    1.397   .     S
C48    C44     1.382   1_545 S
C48    H84     1.097   .     S
C48    C104    1.397   .     D
O49    B109    1.392   .     S
O50    B110    1.392   .     S
O51    B111    1.392   .     S
O52    B112    1.392   .     S
O53    B113    1.392   .     S
O54    B114    1.392   .     S
O55    B112    1.392   .     S
O56    B114    1.392   .     S
O57    B113    1.392   .     S
O58    B109    1.392   .     S
O59    B111    1.392   .     S
O60    B110    1.392   .     S
C85    H91     1.106   .     S
C85    H97     1.102   .     S
C86    H92     1.106   .     S
C86    H98     1.102   .     S
C87    H93     1.106   .     S
C87    H99     1.102   .     S
C88    H94     1.106   .     S
C88    H100    1.102   .     S
C89    H95     1.106   .     S
C89    H101    1.102   .     S
C90    H96     1.106   .     S
C90    H102    1.102   .     S
C103   B109    1.526   .     S
C104   B110    1.526   .     S
C105   B111    1.526   .     S
C106   B112    1.526   .     S
C107   B113    1.526   .     S
C108   B114    1.526   .     S
