data_183
_audit_creation_date              2023-09-08
_audit_creation_method            'Materials Studio'
_symmetry_space_group_name_H-M    'P1'
_symmetry_Int_Tables_number       1
_symmetry_cell_setting            triclinic
loop_
_symmetry_equiv_pos_as_xyz
  x,y,z
_cell_length_a                    7.3000
_cell_length_b                    7.3000
_cell_length_c                    3.3000
_cell_angle_alpha                 90.0000
_cell_angle_beta                  90.0000
_cell_angle_gamma                 120.0000
loop_
_atom_site_label
_atom_site_type_symbol
_atom_site_fract_x
_atom_site_fract_y
_atom_site_fract_z
_atom_site_U_iso_or_equiv
_atom_site_adp_type
_atom_site_occupancy
C1     C     0.11222   0.55611   0.50000   0.00000  Uiso   1.00
C2     C     0.22338   0.77663   0.50000   0.00000  Uiso   1.00
C3     C     0.55948   0.44051   0.50000   0.00000  Uiso   1.00
H4     H     0.13773   0.86227   0.50000   0.00000  Uiso   1.00
N5     N     0.45310   0.22655   0.50000   0.00000  Uiso   1.00
C6     C     0.44389   0.55611   0.50000   0.00000  Uiso   1.00
C7     C     0.22337   0.44675   0.50000   0.00000  Uiso   1.00
C8     C     0.55949   0.11897   0.50000   0.00000  Uiso   1.00
H9     H     0.13773   0.27546   0.50000   0.00000  Uiso   1.00
N10    N     0.77345   0.22654   0.50000   0.00000  Uiso   1.00
C11    C     0.44389   0.88778   0.50000   0.00000  Uiso   1.00
C12    C     0.55325   0.77662   0.50000   0.00000  Uiso   1.00
C13    C     0.88103   0.44052   0.50000   0.00000  Uiso   1.00
H14    H     0.72454   0.86227   0.50000   0.00000  Uiso   1.00
N15    N     0.77346   0.54691   0.50000   0.00000  Uiso   1.00
loop_
_geom_bond_atom_site_label_1
_geom_bond_atom_site_label_2
_geom_bond_distance
_geom_bond_site_symmetry_2
_ccdc_geom_bond_type
C1     C7      1.394   .     D
C1     C2      1.394   .     S
C1     C13     1.462   1_455 S
C2     H4      1.083   .     S
C2     C11     1.394   .     D
C3     C6      1.462   .     S
C3     N15     1.353   .     D
C3     N5      1.353   .     S
N5     C8      1.353   .     D
C6     C7      1.394   .     S
C6     C12     1.394   .     D
C7     H9      1.083   .     S
C8     N10     1.353   .     S
C8     C11     1.462   1_545 S
N10    C13     1.353   .     D
C11    C12     1.394   .     S
C11    C8      1.462   1_565 S
C12    H14     1.083   .     S
C13    N15     1.353   .     S
C13    C1      1.462   1_655 S
