data_184
_audit_creation_date              2023-09-08
_audit_creation_method            'Materials Studio'
_symmetry_space_group_name_H-M    'P1'
_symmetry_Int_Tables_number       1
_symmetry_cell_setting            triclinic
loop_
_symmetry_equiv_pos_as_xyz
  x,y,z
_cell_length_a                    14.5740
_cell_length_b                    14.5740
_cell_length_c                    3.4040
_cell_angle_alpha                 90.0000
_cell_angle_beta                  90.0000
_cell_angle_gamma                 120.0000
loop_
_atom_site_label
_atom_site_type_symbol
_atom_site_fract_x
_atom_site_fract_y
_atom_site_fract_z
_atom_site_U_iso_or_equiv
_atom_site_adp_type
_atom_site_occupancy
C1     C     0.61442   0.38558   0.50000   0.00000  Uiso   1.00
C2     C     0.55579   0.44421   0.50000   0.00000  Uiso   1.00
C3     C     0.61442   0.22884   0.50000   0.00000  Uiso   1.00
C4     C     0.55579   0.11158   0.50000   0.00000  Uiso   1.00
C5     C     0.77116   0.38558   0.50000   0.00000  Uiso   1.00
C6     C     0.88842   0.44421   0.50000   0.00000  Uiso   1.00
C7     C     0.38558   0.61442   0.50000   0.00000  Uiso   1.00
C8     C     0.44421   0.55579   0.50000   0.00000  Uiso   1.00
C9     C     0.38558   0.77116   0.50000   0.00000  Uiso   1.00
C10    C     0.44421   0.88842   0.50000   0.00000  Uiso   1.00
C11    C     0.22884   0.61442   0.50000   0.00000  Uiso   1.00
C12    C     0.11158   0.55579   0.50000   0.00000  Uiso   1.00
C13    C     0.61057   0.55561   0.50000   0.00000  Uiso   1.00
H14    H     0.59755   0.69654   0.50000   0.00000  Uiso   1.00
C15    C     0.44439   0.05496   0.50000   0.00000  Uiso   1.00
H16    H     0.30346   0.90101   0.50000   0.00000  Uiso   1.00
C17    C     0.94504   0.38943   0.50000   0.00000  Uiso   1.00
H18    H     0.09899   0.40245   0.50000   0.00000  Uiso   1.00
C19    C     0.38943   0.44439   0.50000   0.00000  Uiso   1.00
H20    H     0.40245   0.30346   0.50000   0.00000  Uiso   1.00
C21    C     0.55561   0.94504   0.50000   0.00000  Uiso   1.00
H22    H     0.69654   0.09899   0.50000   0.00000  Uiso   1.00
C23    C     0.05496   0.61057   0.50000   0.00000  Uiso   1.00
H24    H     0.90101   0.59755   0.50000   0.00000  Uiso   1.00
C25    C     0.55561   0.61057   0.50000   0.00000  Uiso   1.00
H26    H     0.69654   0.59755   0.50000   0.00000  Uiso   1.00
C27    C     0.05496   0.44439   0.50000   0.00000  Uiso   1.00
H28    H     0.90101   0.30346   0.50000   0.00000  Uiso   1.00
C29    C     0.38943   0.94504   0.50000   0.00000  Uiso   1.00
H30    H     0.40245   0.09899   0.50000   0.00000  Uiso   1.00
C31    C     0.44439   0.38943   0.50000   0.00000  Uiso   1.00
H32    H     0.30346   0.40245   0.50000   0.00000  Uiso   1.00
C33    C     0.94504   0.55561   0.50000   0.00000  Uiso   1.00
H34    H     0.09899   0.69654   0.50000   0.00000  Uiso   1.00
C35    C     0.61057   0.05496   0.50000   0.00000  Uiso   1.00
H36    H     0.59755   0.90101   0.50000   0.00000  Uiso   1.00
N37    N     0.44255   0.72128   0.50000   0.00000  Uiso   1.00
N38    N     0.27873   0.72128   0.50000   0.00000  Uiso   1.00
N39    N     0.27873   0.55745   0.50000   0.00000  Uiso   1.00
N40    N     0.55745   0.27872   0.50000   0.00000  Uiso   1.00
N41    N     0.72128   0.27873   0.50000   0.00000  Uiso   1.00
N42    N     0.72128   0.44255   0.50000   0.00000  Uiso   1.00
loop_
_geom_bond_atom_site_label_1
_geom_bond_atom_site_label_2
_geom_bond_distance
_geom_bond_site_symmetry_2
_ccdc_geom_bond_type
C1     C2      1.480   .     S
C1     N40     1.350   .     S
C1     N42     1.350   .     D
C2     C13     1.406   .     S
C2     C31     1.406   .     D
C3     C4      1.480   .     S
C3     N40     1.350   .     D
C3     N41     1.350   .     S
C4     C15     1.406   .     D
C4     C35     1.406   .     S
C5     C6      1.480   .     S
C5     N41     1.350   .     D
C5     N42     1.350   .     S
C6     C17     1.406   .     D
C6     C33     1.406   .     S
C7     C8      1.480   .     S
C7     N37     1.350   .     S
C7     N39     1.350   .     D
C8     C19     1.406   .     D
C8     C25     1.406   .     S
C9     C10     1.480   .     S
C9     N37     1.350   .     D
C9     N38     1.350   .     S
C10    C21     1.406   .     S
C10    C29     1.406   .     D
C11    C12     1.480   .     S
C11    N38     1.350   .     D
C11    N39     1.350   .     S
C12    C23     1.406   .     S
C12    C27     1.406   .     D
C13    C25     1.387   .     D
C13    H26     1.085   .     S
H14    C25     1.085   .     S
C15    C29     1.387   1_545 S
C15    H30     1.085   .     S
H16    C29     1.085   .     S
C17    C27     1.387   1_655 S
C17    H28     1.085   .     S
H18    C27     1.085   .     S
C19    C31     1.387   .     S
C19    H32     1.085   .     S
H20    C31     1.085   .     S
C21    C35     1.387   1_565 D
C21    H36     1.085   .     S
H22    C35     1.085   .     S
C23    C33     1.387   1_455 D
C23    H34     1.085   .     S
H24    C33     1.085   .     S
C27    C17     1.387   1_455 S
C29    C15     1.387   1_565 S
C33    C23     1.387   1_655 D
C35    C21     1.387   1_545 D
