data_185
_audit_creation_date              2023-09-08
_audit_creation_method            'Materials Studio'
_symmetry_space_group_name_H-M    'P1'
_symmetry_Int_Tables_number       1
_symmetry_cell_setting            triclinic
loop_
_symmetry_equiv_pos_as_xyz
  x,y,z
_cell_length_a                    18.3600
_cell_length_b                    18.3600
_cell_length_c                    3.3600
_cell_angle_alpha                 90.0000
_cell_angle_beta                  90.0000
_cell_angle_gamma                 120.0000
loop_
_atom_site_label
_atom_site_type_symbol
_atom_site_fract_x
_atom_site_fract_y
_atom_site_fract_z
_atom_site_U_iso_or_equiv
_atom_site_adp_type
_atom_site_occupancy
C1     C     0.36690   0.61740   0.50000   0.00000  Uiso   1.00
C2     C     0.40377   0.56182   0.50000   0.00000  Uiso   1.00
C3     C     0.38620   0.42178   0.50000   0.00000  Uiso   1.00
C4     C     0.49150   0.59607   0.50000   0.00000  Uiso   1.00
C5     C     0.35164   0.47389   0.50000   0.00000  Uiso   1.00
N6     N     0.28228   0.58082   0.50000   0.00000  Uiso   1.00
C7     C     0.52606   0.54396   0.50000   0.00000  Uiso   1.00
H8     H     0.34312   0.35061   0.50000   0.00000  Uiso   1.00
H9     H     0.53459   0.66724   0.50000   0.00000  Uiso   1.00
H10    H     0.28040   0.44518   0.50000   0.00000  Uiso   1.00
C11    C     0.38260   0.74950   0.50000   0.00000  Uiso   1.00
C12    C     0.43818   0.84195   0.50000   0.00000  Uiso   1.00
C13    C     0.57822   0.96442   0.50000   0.00000  Uiso   1.00
C14    C     0.40393   0.89543   0.50000   0.00000  Uiso   1.00
C15    C     0.52611   0.87775   0.50000   0.00000  Uiso   1.00
N16    N     0.41918   0.70146   0.50000   0.00000  Uiso   1.00
C17    C     0.45604   0.98210   0.50000   0.00000  Uiso   1.00
H18    H     0.64939   0.99251   0.50000   0.00000  Uiso   1.00
H19    H     0.33276   0.86735   0.50000   0.00000  Uiso   1.00
H20    H     0.55482   0.83522   0.50000   0.00000  Uiso   1.00
C21    C     0.25050   0.63310   0.50000   0.00000  Uiso   1.00
C22    C     0.15805   0.59623   0.50000   0.00000  Uiso   1.00
C23    C     0.03558   0.61380   0.50000   0.00000  Uiso   1.00
C24    C     0.10457   0.50850   0.50000   0.00000  Uiso   1.00
C25    C     0.12225   0.64836   0.50000   0.00000  Uiso   1.00
N26    N     0.29854   0.71772   0.50000   0.00000  Uiso   1.00
C27    C     0.01790   0.47394   0.50000   0.00000  Uiso   1.00
H28    H     0.00749   0.65688   0.50000   0.00000  Uiso   1.00
H29    H     0.13265   0.46541   0.50000   0.00000  Uiso   1.00
H30    H     0.16478   0.71960   0.50000   0.00000  Uiso   1.00
C31    C     0.63310   0.38260   0.50000   0.00000  Uiso   1.00
C32    C     0.59623   0.43818   0.50000   0.00000  Uiso   1.00
C33    C     0.61380   0.57822   0.50000   0.00000  Uiso   1.00
C34    C     0.50850   0.40393   0.50000   0.00000  Uiso   1.00
C35    C     0.64836   0.52611   0.50000   0.00000  Uiso   1.00
N36    N     0.71772   0.41918   0.50000   0.00000  Uiso   1.00
C37    C     0.47394   0.45604   0.50000   0.00000  Uiso   1.00
H38    H     0.65688   0.64939   0.50000   0.00000  Uiso   1.00
H39    H     0.46541   0.33276   0.50000   0.00000  Uiso   1.00
H40    H     0.71960   0.55482   0.50000   0.00000  Uiso   1.00
C41    C     0.61740   0.25050   0.50000   0.00000  Uiso   1.00
C42    C     0.56182   0.15805   0.50000   0.00000  Uiso   1.00
C43    C     0.42178   0.03558   0.50000   0.00000  Uiso   1.00
C44    C     0.59607   0.10457   0.50000   0.00000  Uiso   1.00
C45    C     0.47389   0.12225   0.50000   0.00000  Uiso   1.00
N46    N     0.58082   0.29854   0.50000   0.00000  Uiso   1.00
C47    C     0.54396   0.01790   0.50000   0.00000  Uiso   1.00
H48    H     0.35061   0.00749   0.50000   0.00000  Uiso   1.00
H49    H     0.66724   0.13265   0.50000   0.00000  Uiso   1.00
H50    H     0.44518   0.16478   0.50000   0.00000  Uiso   1.00
C51    C     0.74950   0.36690   0.50000   0.00000  Uiso   1.00
C52    C     0.84195   0.40377   0.50000   0.00000  Uiso   1.00
C53    C     0.96442   0.38620   0.50000   0.00000  Uiso   1.00
C54    C     0.89543   0.49150   0.50000   0.00000  Uiso   1.00
C55    C     0.87775   0.35164   0.50000   0.00000  Uiso   1.00
N56    N     0.70146   0.28228   0.50000   0.00000  Uiso   1.00
C57    C     0.98210   0.52606   0.50000   0.00000  Uiso   1.00
H58    H     0.99251   0.34312   0.50000   0.00000  Uiso   1.00
H59    H     0.86735   0.53459   0.50000   0.00000  Uiso   1.00
H60    H     0.83522   0.28040   0.50000   0.00000  Uiso   1.00
loop_
_geom_bond_atom_site_label_1
_geom_bond_atom_site_label_2
_geom_bond_distance
_geom_bond_site_symmetry_2
_ccdc_geom_bond_type
C1     C2      1.480   .     S
C1     N6      1.350   .     D
C1     N16     1.350   .     S
C2     C4      1.406   .     D
C2     C5      1.406   .     S
C3     C5      1.387   .     D
C3     H8      1.140   .     S
C3     C37     1.406   .     S
C4     C7      1.387   .     S
C4     H9      1.140   .     S
C5     H10     1.140   .     S
N6     C21     1.350   .     S
C7     C33     1.406   .     S
C7     C37     1.406   .     D
C11    C12     1.480   .     S
C11    N16     1.350   .     D
C11    N26     1.350   .     S
C12    C14     1.406   .     D
C12    C15     1.406   .     S
C13    C15     1.387   .     D
C13    H18     1.140   .     S
C13    C47     1.406   1_565 S
C14    C17     1.387   .     S
C14    H19     1.140   .     S
C15    H20     1.140   .     S
C17    C43     1.406   1_565 S
C17    C47     1.406   1_565 D
C21    C22     1.480   .     S
C21    N26     1.350   .     D
C22    C24     1.406   .     D
C22    C25     1.406   .     S
C23    C25     1.387   .     D
C23    H28     1.140   .     S
C23    C57     1.406   1_455 S
C24    C27     1.387   .     S
C24    H29     1.140   .     S
C25    H30     1.140   .     S
C27    C53     1.406   1_455 D
C27    C57     1.406   1_455 S
C31    C32     1.480   .     S
C31    N36     1.350   .     D
C31    N46     1.350   .     S
C32    C34     1.406   .     D
C32    C35     1.406   .     S
C33    C35     1.387   .     D
C33    H38     1.140   .     S
C34    C37     1.387   .     S
C34    H39     1.140   .     S
C35    H40     1.140   .     S
N36    C51     1.350   .     S
C41    C42     1.480   .     S
C41    N46     1.350   .     D
C41    N56     1.350   .     S
C42    C44     1.406   .     D
C42    C45     1.406   .     S
C43    C17     1.406   1_545 S
C43    C45     1.387   .     D
C43    H48     1.140   .     S
C44    C47     1.387   .     S
C44    H49     1.140   .     S
C45    H50     1.140   .     S
C47    C17     1.406   1_545 D
C47    C13     1.406   1_545 S
C51    C52     1.480   .     S
C51    N56     1.350   .     D
C52    C54     1.406   .     S
C52    C55     1.406   .     D
C53    C27     1.406   1_655 D
C53    C55     1.387   .     S
C53    H58     1.140   .     S
C54    C57     1.387   .     D
C54    H59     1.140   .     S
C55    H60     1.140   .     S
C57    C23     1.406   1_655 S
C57    C27     1.406   1_655 S
