data_186
_audit_creation_date              2023-09-08
_audit_creation_method            'Materials Studio'
_symmetry_space_group_name_H-M    'P1'
_symmetry_Int_Tables_number       1
_symmetry_cell_setting            triclinic
loop_
_symmetry_equiv_pos_as_xyz
  x,y,z
_cell_length_a                    18.3600
_cell_length_b                    18.3600
_cell_length_c                    6.7200
_cell_angle_alpha                 90.0000
_cell_angle_beta                  90.0000
_cell_angle_gamma                 120.0000
loop_
_atom_site_label
_atom_site_type_symbol
_atom_site_fract_x
_atom_site_fract_y
_atom_site_fract_z
_atom_site_U_iso_or_equiv
_atom_site_adp_type
_atom_site_occupancy
C1     C     0.03285   0.95047   0.25000   0.00000  Uiso   1.00
C2     C     0.06972   0.89489   0.25000   0.00000  Uiso   1.00
C3     C     0.05215   0.75485   0.25000   0.00000  Uiso   1.00
C4     C     0.15745   0.92914   0.25000   0.00000  Uiso   1.00
C5     C     0.01759   0.80696   0.25000   0.00000  Uiso   1.00
N6     N     0.94823   0.91389   0.25000   0.00000  Uiso   1.00
C7     C     0.19202   0.87703   0.25000   0.00000  Uiso   1.00
C8     C     0.17445   0.73700   0.25000   0.00000  Uiso   1.00
C9     C     0.27975   0.91129   0.25000   0.00000  Uiso   1.00
C10    C     0.13989   0.78911   0.25000   0.00000  Uiso   1.00
C11    C     0.31431   0.85918   0.25000   0.00000  Uiso   1.00
N12    N     0.24775   0.63142   0.25000   0.00000  Uiso   1.00
C13    C     0.28433   0.58338   0.25000   0.00000  Uiso   1.00
C14    C     0.22875   0.49093   0.25000   0.00000  Uiso   1.00
H15    H     0.00934   0.68364   0.25000   0.00000  Uiso   1.00
H16    H     0.20082   0.00027   0.25000   0.00000  Uiso   1.00
H17    H     0.94631   0.77793   0.25000   0.00000  Uiso   1.00
H18    H     0.13163   0.66579   0.25000   0.00000  Uiso   1.00
H19    H     0.38552   0.88758   0.25000   0.00000  Uiso   1.00
H20    H     0.32311   0.98242   0.25000   0.00000  Uiso   1.00
C21    C     0.04953   0.08238   0.25000   0.00000  Uiso   1.00
C22    C     0.10511   0.17483   0.25000   0.00000  Uiso   1.00
C23    C     0.24515   0.29730   0.25000   0.00000  Uiso   1.00
C24    C     0.07086   0.22831   0.25000   0.00000  Uiso   1.00
C25    C     0.19304   0.21063   0.25000   0.00000  Uiso   1.00
N26    N     0.08611   0.03434   0.25000   0.00000  Uiso   1.00
C27    C     0.12297   0.31499   0.25000   0.00000  Uiso   1.00
C28    C     0.26300   0.43745   0.25000   0.00000  Uiso   1.00
C29    C     0.08871   0.36846   0.25000   0.00000  Uiso   1.00
C30    C     0.21089   0.35078   0.25000   0.00000  Uiso   1.00
C31    C     0.14082   0.45513   0.25000   0.00000  Uiso   1.00
N32    N     0.36858   0.61633   0.25000   0.00000  Uiso   1.00
C33    C     0.41662   0.70095   0.25000   0.00000  Uiso   1.00
C34    C     0.50907   0.73782   0.25000   0.00000  Uiso   1.00
H35    H     0.31636   0.32570   0.25000   0.00000  Uiso   1.00
H36    H     0.99973   0.20055   0.25000   0.00000  Uiso   1.00
H37    H     0.22207   0.16838   0.25000   0.00000  Uiso   1.00
H38    H     0.33421   0.46584   0.25000   0.00000  Uiso   1.00
H39    H     0.11242   0.49794   0.25000   0.00000  Uiso   1.00
H40    H     0.01758   0.34069   0.25000   0.00000  Uiso   1.00
C41    C     0.91762   0.96715   0.25000   0.00000  Uiso   1.00
C42    C     0.82517   0.93028   0.25000   0.00000  Uiso   1.00
C43    C     0.70270   0.94785   0.25000   0.00000  Uiso   1.00
C44    C     0.77169   0.84255   0.25000   0.00000  Uiso   1.00
C45    C     0.78937   0.98241   0.25000   0.00000  Uiso   1.00
N46    N     0.96566   0.05177   0.25000   0.00000  Uiso   1.00
C47    C     0.68501   0.80798   0.25000   0.00000  Uiso   1.00
C48    C     0.56255   0.82555   0.25000   0.00000  Uiso   1.00
C49    C     0.63154   0.72025   0.25000   0.00000  Uiso   1.00
C50    C     0.64922   0.86011   0.25000   0.00000  Uiso   1.00
C51    C     0.54487   0.68569   0.25000   0.00000  Uiso   1.00
N52    N     0.38367   0.75225   0.25000   0.00000  Uiso   1.00
C53    C     0.29905   0.71567   0.25000   0.00000  Uiso   1.00
C54    C     0.26218   0.77125   0.25000   0.00000  Uiso   1.00
H55    H     0.67430   0.99066   0.25000   0.00000  Uiso   1.00
H56    H     0.79945   0.79918   0.25000   0.00000  Uiso   1.00
H57    H     0.83162   0.05369   0.25000   0.00000  Uiso   1.00
H58    H     0.53416   0.86837   0.25000   0.00000  Uiso   1.00
H59    H     0.50206   0.61448   0.25000   0.00000  Uiso   1.00
H60    H     0.65931   0.67689   0.25000   0.00000  Uiso   1.00
C61    C     0.96715   0.04953   0.75000   0.00000  Uiso   1.00
C62    C     0.93028   0.10511   0.75000   0.00000  Uiso   1.00
C63    C     0.94785   0.24515   0.75000   0.00000  Uiso   1.00
C64    C     0.84255   0.07086   0.75000   0.00000  Uiso   1.00
C65    C     0.98241   0.19304   0.75000   0.00000  Uiso   1.00
N66    N     0.05177   0.08611   0.75000   0.00000  Uiso   1.00
C67    C     0.80798   0.12297   0.75000   0.00000  Uiso   1.00
C68    C     0.82555   0.26300   0.75000   0.00000  Uiso   1.00
C69    C     0.72025   0.08871   0.75000   0.00000  Uiso   1.00
C70    C     0.86011   0.21089   0.75000   0.00000  Uiso   1.00
C71    C     0.68569   0.14082   0.75000   0.00000  Uiso   1.00
N72    N     0.75225   0.36858   0.75000   0.00000  Uiso   1.00
C73    C     0.71567   0.41662   0.75000   0.00000  Uiso   1.00
C74    C     0.77125   0.50907   0.75000   0.00000  Uiso   1.00
H75    H     0.99066   0.31636   0.75000   0.00000  Uiso   1.00
H76    H     0.79918   0.99973   0.75000   0.00000  Uiso   1.00
H77    H     0.05369   0.22207   0.75000   0.00000  Uiso   1.00
H78    H     0.86837   0.33421   0.75000   0.00000  Uiso   1.00
H79    H     0.61448   0.11242   0.75000   0.00000  Uiso   1.00
H80    H     0.67689   0.01758   0.75000   0.00000  Uiso   1.00
C81    C     0.95047   0.91762   0.75000   0.00000  Uiso   1.00
C82    C     0.89489   0.82517   0.75000   0.00000  Uiso   1.00
C83    C     0.75485   0.70270   0.75000   0.00000  Uiso   1.00
C84    C     0.92914   0.77169   0.75000   0.00000  Uiso   1.00
C85    C     0.80696   0.78937   0.75000   0.00000  Uiso   1.00
N86    N     0.91389   0.96566   0.75000   0.00000  Uiso   1.00
C87    C     0.87703   0.68501   0.75000   0.00000  Uiso   1.00
C88    C     0.73700   0.56255   0.75000   0.00000  Uiso   1.00
C89    C     0.91129   0.63154   0.75000   0.00000  Uiso   1.00
C90    C     0.78911   0.64922   0.75000   0.00000  Uiso   1.00
C91    C     0.85918   0.54487   0.75000   0.00000  Uiso   1.00
N92    N     0.63142   0.38367   0.75000   0.00000  Uiso   1.00
C93    C     0.58338   0.29905   0.75000   0.00000  Uiso   1.00
C94    C     0.49093   0.26218   0.75000   0.00000  Uiso   1.00
H95    H     0.68364   0.67430   0.75000   0.00000  Uiso   1.00
H96    H     0.00027   0.79945   0.75000   0.00000  Uiso   1.00
H97    H     0.77793   0.83162   0.75000   0.00000  Uiso   1.00
H98    H     0.66579   0.53416   0.75000   0.00000  Uiso   1.00
H99    H     0.88758   0.50206   0.75000   0.00000  Uiso   1.00
H100   H     0.98242   0.65931   0.75000   0.00000  Uiso   1.00
C101   C     0.08238   0.03285   0.75000   0.00000  Uiso   1.00
C102   C     0.17483   0.06972   0.75000   0.00000  Uiso   1.00
C103   C     0.29730   0.05215   0.75000   0.00000  Uiso   1.00
C104   C     0.22831   0.15745   0.75000   0.00000  Uiso   1.00
C105   C     0.21063   0.01759   0.75000   0.00000  Uiso   1.00
N106   N     0.03434   0.94823   0.75000   0.00000  Uiso   1.00
C107   C     0.31499   0.19202   0.75000   0.00000  Uiso   1.00
C108   C     0.43745   0.17445   0.75000   0.00000  Uiso   1.00
C109   C     0.36846   0.27975   0.75000   0.00000  Uiso   1.00
C110   C     0.35078   0.13989   0.75000   0.00000  Uiso   1.00
C111   C     0.45513   0.31431   0.75000   0.00000  Uiso   1.00
N112   N     0.61633   0.24775   0.75000   0.00000  Uiso   1.00
C113   C     0.70095   0.28433   0.75000   0.00000  Uiso   1.00
C114   C     0.73782   0.22875   0.75000   0.00000  Uiso   1.00
H115   H     0.32570   0.00934   0.75000   0.00000  Uiso   1.00
H116   H     0.20055   0.20082   0.75000   0.00000  Uiso   1.00
H117   H     0.16838   0.94631   0.75000   0.00000  Uiso   1.00
H118   H     0.46584   0.13163   0.75000   0.00000  Uiso   1.00
H119   H     0.49794   0.38552   0.75000   0.00000  Uiso   1.00
H120   H     0.34069   0.32311   0.75000   0.00000  Uiso   1.00
loop_
_geom_bond_atom_site_label_1
_geom_bond_atom_site_label_2
_geom_bond_distance
_geom_bond_site_symmetry_2
_ccdc_geom_bond_type
C1     C2      1.480   .     S
C1     N6      1.350   1_455 D
C1     N26     1.350   1_565 S
C2     C4      1.406   .     S
C2     C5      1.406   .     D
C3     C5      1.387   .     S
C3     C10     1.406   .     D
C3     H15     1.140   .     S
C4     C7      1.388   .     D
C4     H16     1.140   1_565 S
C5     H17     1.140   1_455 S
N6     C1      1.350   1_655 D
N6     C41     1.350   .     S
C7     C9      1.406   .     S
C7     C10     1.406   .     S
C8     C10     1.387   .     S
C8     H18     1.140   .     S
C8     C54     1.406   .     D
C9     C11     1.387   .     D
C9     H20     1.140   .     S
C11    H19     1.140   .     S
C11    C54     1.406   .     S
N12    C13     1.350   .     D
N12    C53     1.350   .     S
C13    C14     1.480   .     S
C13    N32     1.350   .     S
C14    C28     1.406   .     S
C14    C31     1.406   .     D
H16    C4      1.140   1_545 S
H17    C5      1.140   1_655 S
C21    C22     1.480   .     S
C21    N26     1.350   .     D
C21    N46     1.350   1_455 S
C22    C24     1.406   .     D
C22    C25     1.406   .     S
C23    C25     1.387   .     D
C23    C30     1.406   .     S
C23    H35     1.140   .     S
C24    C27     1.388   .     S
C24    H36     1.140   1_455 S
C25    H37     1.140   .     S
N26    C1      1.350   1_545 S
C27    C29     1.406   .     D
C27    C30     1.406   .     S
C28    C30     1.387   .     D
C28    H38     1.140   .     S
C29    C31     1.387   .     S
C29    H40     1.140   .     S
C31    H39     1.140   .     S
N32    C33     1.350   .     D
C33    C34     1.480   .     S
C33    N52     1.350   .     S
C34    C48     1.406   .     D
C34    C51     1.406   .     S
H36    C24     1.140   1_655 S
C41    C42     1.480   .     S
C41    N46     1.350   1_565 D
C42    C44     1.406   .     S
C42    C45     1.406   .     D
C43    C45     1.387   .     S
C43    C50     1.406   .     D
C43    H55     1.140   .     S
C44    C47     1.388   .     D
C44    H56     1.140   .     S
C45    H57     1.140   1_565 S
N46    C21     1.350   1_655 S
N46    C41     1.350   1_545 D
C47    C49     1.406   .     S
C47    C50     1.406   .     S
C48    C50     1.387   .     S
C48    H58     1.140   .     S
C49    C51     1.387   .     D
C49    H60     1.140   .     S
C51    H59     1.140   .     S
N52    C53     1.350   .     D
C53    C54     1.480   .     S
H57    C45     1.140   1_545 S
C61    C62     1.480   .     S
C61    N66     1.350   1_655 D
C61    N86     1.350   1_545 S
C62    C64     1.406   .     D
C62    C65     1.406   .     S
C63    C65     1.387   .     D
C63    C70     1.406   .     S
C63    H75     1.140   .     S
C64    C67     1.388   .     S
C64    H76     1.140   1_545 S
C65    H77     1.140   1_655 S
N66    C61     1.350   1_455 D
N66    C101    1.350   .     S
C67    C69     1.406   .     S
C67    C70     1.406   .     D
C68    C70     1.387   .     S
C68    H78     1.140   .     S
C68    C114    1.406   .     D
C69    C71     1.387   .     D
C69    H80     1.140   .     S
C71    H79     1.140   .     S
C71    C114    1.406   .     S
N72    C73     1.350   .     D
N72    C113    1.350   .     S
C73    C74     1.480   .     S
C73    N92     1.350   .     S
C74    C88     1.406   .     S
C74    C91     1.406   .     D
H76    C64     1.140   1_565 S
H77    C65     1.140   1_455 S
C81    C82     1.480   .     S
C81    N86     1.350   .     D
C81    N106    1.350   1_655 S
C82    C84     1.406   .     D
C82    C85     1.406   .     S
C83    C85     1.387   .     D
C83    C90     1.406   .     S
C83    H95     1.140   .     S
C84    C87     1.388   .     S
C84    H96     1.140   1_655 S
C85    H97     1.140   .     S
N86    C61     1.350   1_565 S
C87    C89     1.406   .     D
C87    C90     1.406   .     S
C88    C90     1.387   .     D
C88    H98     1.140   .     S
C89    C91     1.387   .     S
C89    H100    1.140   .     S
C91    H99     1.140   .     S
N92    C93     1.350   .     D
C93    C94     1.480   .     S
C93    N112    1.350   .     S
C94    C108    1.406   .     D
C94    C111    1.406   .     S
H96    C84     1.140   1_455 S
C101   C102    1.480   .     S
C101   N106    1.350   1_545 D
C102   C104    1.406   .     S
C102   C105    1.406   .     D
C103   C105    1.387   .     S
C103   C110    1.406   .     D
C103   H115    1.140   .     S
C104   C107    1.388   .     D
C104   H116    1.140   .     S
C105   H117    1.140   1_545 S
N106   C81     1.350   1_455 S
N106   C101    1.350   1_565 D
C107   C109    1.406   .     S
C107   C110    1.406   .     S
C108   C110    1.387   .     S
C108   H118    1.140   .     S
C109   C111    1.387   .     D
C109   H120    1.140   .     S
C111   H119    1.140   .     S
N112   C113    1.350   .     D
C113   C114    1.480   .     S
H117   C105    1.140   1_565 S
