data_188
_audit_creation_date              2023-09-08
_audit_creation_method            'Materials Studio'
_symmetry_space_group_name_H-M    'P1'
_symmetry_Int_Tables_number       1
_symmetry_cell_setting            triclinic
loop_
_symmetry_equiv_pos_as_xyz
  x,y,z
_cell_length_a                    14.9467
_cell_length_b                    14.9467
_cell_length_c                    3.4418
_cell_angle_alpha                 90.0000
_cell_angle_beta                  90.0000
_cell_angle_gamma                 120.0000
loop_
_atom_site_label
_atom_site_type_symbol
_atom_site_fract_x
_atom_site_fract_y
_atom_site_fract_z
_atom_site_U_iso_or_equiv
_atom_site_adp_type
_atom_site_occupancy
C1     C     0.22942   0.60034   0.50000   0.00000  Uiso   1.00
N2     N     0.26883   0.70361   0.50000   0.00000  Uiso   1.00
H3     H     0.08834   0.65957   0.50000   0.00000  Uiso   1.00
C4     C     0.10668   0.35921   0.50000   0.00000  Uiso   1.00
H5     H     0.18749   0.39298   0.50000   0.00000  Uiso   1.00
C6     C     0.05322   0.25204   0.50000   0.00000  Uiso   1.00
H7     H     0.09492   0.21008   0.50000   0.00000  Uiso   1.00
C8     C     0.94399   0.36151   0.50000   0.00000  Uiso   1.00
C9     C     0.11226   0.52870   0.50000   0.00000  Uiso   1.00
C10    C     0.05320   0.57739   0.50000   0.00000  Uiso   1.00
C11    C     0.39966   0.62908   0.50000   0.00000  Uiso   1.00
N12    N     0.29639   0.56522   0.50000   0.00000  Uiso   1.00
H13    H     0.34043   0.42877   0.50000   0.00000  Uiso   1.00
C14    C     0.64079   0.74747   0.50000   0.00000  Uiso   1.00
H15    H     0.60702   0.79451   0.50000   0.00000  Uiso   1.00
C16    C     0.74796   0.80118   0.50000   0.00000  Uiso   1.00
H17    H     0.78992   0.88484   0.50000   0.00000  Uiso   1.00
C18    C     0.63849   0.58248   0.50000   0.00000  Uiso   1.00
C19    C     0.47130   0.58356   0.50000   0.00000  Uiso   1.00
C20    C     0.42261   0.47581   0.50000   0.00000  Uiso   1.00
C21    C     0.37092   0.77058   0.50000   0.00000  Uiso   1.00
N22    N     0.43478   0.73117   0.50000   0.00000  Uiso   1.00
H23    H     0.57123   0.91166   0.50000   0.00000  Uiso   1.00
C24    C     0.25253   0.89332   0.50000   0.00000  Uiso   1.00
H25    H     0.20549   0.81251   0.50000   0.00000  Uiso   1.00
C26    C     0.19882   0.94678   0.50000   0.00000  Uiso   1.00
H27    H     0.11516   0.90508   0.50000   0.00000  Uiso   1.00
C28    C     0.41752   0.05601   0.50000   0.00000  Uiso   1.00
C29    C     0.41644   0.88774   0.50000   0.00000  Uiso   1.00
C30    C     0.52419   0.94680   0.50000   0.00000  Uiso   1.00
C31    C     0.60034   0.22942   0.50000   0.00000  Uiso   1.00
N32    N     0.70361   0.26883   0.50000   0.00000  Uiso   1.00
H33    H     0.65957   0.08834   0.50000   0.00000  Uiso   1.00
C34    C     0.35921   0.10668   0.50000   0.00000  Uiso   1.00
H35    H     0.39298   0.18749   0.50000   0.00000  Uiso   1.00
C36    C     0.25204   0.05322   0.50000   0.00000  Uiso   1.00
H37    H     0.21008   0.09492   0.50000   0.00000  Uiso   1.00
C38    C     0.36151   0.94399   0.50000   0.00000  Uiso   1.00
C39    C     0.52870   0.11226   0.50000   0.00000  Uiso   1.00
C40    C     0.57739   0.05320   0.50000   0.00000  Uiso   1.00
C41    C     0.62908   0.39966   0.50000   0.00000  Uiso   1.00
N42    N     0.56522   0.29639   0.50000   0.00000  Uiso   1.00
H43    H     0.42877   0.34043   0.50000   0.00000  Uiso   1.00
C44    C     0.74747   0.64079   0.50000   0.00000  Uiso   1.00
H45    H     0.79451   0.60702   0.50000   0.00000  Uiso   1.00
C46    C     0.80118   0.74796   0.50000   0.00000  Uiso   1.00
H47    H     0.88484   0.78992   0.50000   0.00000  Uiso   1.00
C48    C     0.58248   0.63849   0.50000   0.00000  Uiso   1.00
C49    C     0.58356   0.47130   0.50000   0.00000  Uiso   1.00
C50    C     0.47581   0.42261   0.50000   0.00000  Uiso   1.00
C51    C     0.77058   0.37092   0.50000   0.00000  Uiso   1.00
N52    N     0.73117   0.43478   0.50000   0.00000  Uiso   1.00
H53    H     0.91166   0.57123   0.50000   0.00000  Uiso   1.00
C54    C     0.89332   0.25253   0.50000   0.00000  Uiso   1.00
H55    H     0.81251   0.20549   0.50000   0.00000  Uiso   1.00
C56    C     0.94678   0.19882   0.50000   0.00000  Uiso   1.00
H57    H     0.90508   0.11516   0.50000   0.00000  Uiso   1.00
C58    C     0.05601   0.41752   0.50000   0.00000  Uiso   1.00
C59    C     0.88774   0.41644   0.50000   0.00000  Uiso   1.00
C60    C     0.94680   0.52419   0.50000   0.00000  Uiso   1.00
loop_
_geom_bond_atom_site_label_1
_geom_bond_atom_site_label_2
_geom_bond_distance
_geom_bond_site_symmetry_2
_ccdc_geom_bond_type
C1     N2      1.349   .     S
C1     C9      1.529   .     S
C1     N12     1.343   .     D
N2     C21     1.343   .     D
H3     C10     1.067   .     S
C4     H5      1.051   .     S
C4     C6      1.387   .     S
C4     C58     1.412   .     D
C6     H7      1.083   .     S
C6     C56     1.378   1_455 D
C8     C54     1.412   .     D
C8     C58     1.450   1_655 S
C8     C59     1.439   .     S
C9     C10     1.397   .     D
C9     C58     1.439   .     S
C10    C60     1.377   1_455 S
C11    N12     1.349   .     S
C11    C19     1.529   .     S
C11    N22     1.343   .     D
H13    C20     1.067   .     S
C14    H15     1.051   .     S
C14    C16     1.387   .     D
C14    C48     1.412   .     S
C16    H17     1.083   .     S
C16    C46     1.378   .     S
C18    C44     1.412   .     S
C18    C48     1.450   .     S
C18    C49     1.439   .     D
C19    C20     1.397   .     S
C19    C48     1.439   .     D
C20    C50     1.377   .     D
C21    N22     1.349   .     S
C21    C29     1.529   .     S
H23    C30     1.067   .     S
C24    H25     1.051   .     S
C24    C26     1.387   .     S
C24    C38     1.412   .     D
C26    H27     1.083   .     S
C26    C36     1.378   1_565 D
C28    C34     1.412   .     D
C28    C38     1.450   1_545 S
C28    C39     1.439   .     S
C29    C30     1.397   .     D
C29    C38     1.439   .     S
C30    C40     1.377   1_565 S
C31    N32     1.349   .     S
C31    C39     1.529   .     S
C31    N42     1.343   .     D
N32    C51     1.343   .     D
H33    C40     1.067   .     S
C34    H35     1.051   .     S
C34    C36     1.387   .     S
C36    C26     1.378   1_545 D
C36    H37     1.083   .     S
C38    C28     1.450   1_565 S
C39    C40     1.397   .     D
C40    C30     1.377   1_545 S
C41    N42     1.349   .     S
C41    C49     1.529   .     S
C41    N52     1.343   .     D
H43    C50     1.067   .     S
C44    H45     1.051   .     S
C44    C46     1.387   .     D
C46    H47     1.083   .     S
C49    C50     1.397   .     S
C51    N52     1.349   .     S
C51    C59     1.529   .     S
H53    C60     1.067   .     S
C54    H55     1.051   .     S
C54    C56     1.387   .     S
C56    C6      1.378   1_655 D
C56    H57     1.083   .     S
C58    C8      1.450   1_455 S
C59    C60     1.397   .     D
C60    C10     1.377   1_655 S
