data_189
_audit_creation_date              2023-09-08
_audit_creation_method            'Materials Studio'
_symmetry_space_group_name_H-M    'P1'
_symmetry_Int_Tables_number       1
_symmetry_cell_setting            triclinic
loop_
_symmetry_equiv_pos_as_xyz
  x,y,z
_cell_length_a                    36.2200
_cell_length_b                    36.2200
_cell_length_c                    4.6800
_cell_angle_alpha                 90.0000
_cell_angle_beta                  90.0000
_cell_angle_gamma                 90.0000
loop_
_atom_site_label
_atom_site_type_symbol
_atom_site_fract_x
_atom_site_fract_y
_atom_site_fract_z
_atom_site_U_iso_or_equiv
_atom_site_adp_type
_atom_site_occupancy
C1     C     0.07547   0.03148   0.40963   0.00000  Uiso   1.00
C2     C     0.07908   0.97208   0.41758   0.00000  Uiso   1.00
C3     C     0.41969   0.47606   0.32110   0.00000  Uiso   1.00
C4     C     0.92453   0.96852   0.40963   0.00000  Uiso   1.00
C5     C     0.92092   0.02792   0.41758   0.00000  Uiso   1.00
C6     C     0.58031   0.52394   0.32110   0.00000  Uiso   1.00
C7     C     0.96852   0.07547   0.40963   0.00000  Uiso   1.00
C8     C     0.02792   0.07908   0.41758   0.00000  Uiso   1.00
C9     C     0.52394   0.41969   0.32110   0.00000  Uiso   1.00
C10    C     0.03148   0.92453   0.40963   0.00000  Uiso   1.00
C11    C     0.97208   0.92092   0.41758   0.00000  Uiso   1.00
C12    C     0.47606   0.58031   0.32110   0.00000  Uiso   1.00
C13    C     0.11444   0.02136   0.42438   0.00000  Uiso   1.00
C14    C     0.11658   0.98569   0.44152   0.00000  Uiso   1.00
C15    C     0.38287   0.49170   0.30840   0.00000  Uiso   1.00
C16    C     0.88556   0.97864   0.42438   0.00000  Uiso   1.00
C17    C     0.88342   0.01431   0.44152   0.00000  Uiso   1.00
C18    C     0.61713   0.50830   0.30840   0.00000  Uiso   1.00
C19    C     0.97864   0.11444   0.42438   0.00000  Uiso   1.00
C20    C     0.01431   0.11658   0.44152   0.00000  Uiso   1.00
C21    C     0.50830   0.38287   0.30840   0.00000  Uiso   1.00
C22    C     0.02136   0.88556   0.42438   0.00000  Uiso   1.00
C23    C     0.98569   0.88342   0.44152   0.00000  Uiso   1.00
C24    C     0.49170   0.61713   0.30840   0.00000  Uiso   1.00
H25    H     0.13833   0.03924   0.41647   0.00000  Uiso   1.00
H26    H     0.14208   0.97033   0.46367   0.00000  Uiso   1.00
H27    H     0.35635   0.47806   0.32152   0.00000  Uiso   1.00
H28    H     0.86167   0.96076   0.41647   0.00000  Uiso   1.00
H29    H     0.85792   0.02967   0.46367   0.00000  Uiso   1.00
H30    H     0.64365   0.52195   0.32152   0.00000  Uiso   1.00
H31    H     0.96076   0.13833   0.41647   0.00000  Uiso   1.00
H32    H     0.02967   0.14208   0.46367   0.00000  Uiso   1.00
H33    H     0.52195   0.35635   0.32152   0.00000  Uiso   1.00
H34    H     0.03924   0.86167   0.41647   0.00000  Uiso   1.00
H35    H     0.97033   0.85792   0.46367   0.00000  Uiso   1.00
H36    H     0.47806   0.64365   0.32152   0.00000  Uiso   1.00
N37    N     0.50505   0.55343   0.31467   0.00000  Uiso   1.00
N38    N     0.49495   0.44657   0.31467   0.00000  Uiso   1.00
N39    N     0.44657   0.50505   0.31467   0.00000  Uiso   1.00
N40    N     0.55343   0.49495   0.31467   0.00000  Uiso   1.00
C41    C     0.53498   0.57332   0.29483   0.00000  Uiso   1.00
C42    C     0.46502   0.42668   0.29483   0.00000  Uiso   1.00
C43    C     0.42668   0.53498   0.29483   0.00000  Uiso   1.00
C44    C     0.57332   0.46502   0.29483   0.00000  Uiso   1.00
C45    C     0.52698   0.61267   0.27210   0.00000  Uiso   1.00
C46    C     0.47302   0.38733   0.27210   0.00000  Uiso   1.00
C47    C     0.38733   0.52698   0.27210   0.00000  Uiso   1.00
C48    C     0.61267   0.47302   0.27210   0.00000  Uiso   1.00
H49    H     0.54648   0.63509   0.24516   0.00000  Uiso   1.00
H50    H     0.45352   0.36491   0.24516   0.00000  Uiso   1.00
H51    H     0.36491   0.54648   0.24516   0.00000  Uiso   1.00
H52    H     0.63509   0.45352   0.24516   0.00000  Uiso   1.00
C53    C     0.06363   0.07029   0.40640   0.00000  Uiso   1.00
C54    C     0.42698   0.44003   0.32533   0.00000  Uiso   1.00
C55    C     0.93638   0.92971   0.40640   0.00000  Uiso   1.00
C56    C     0.57302   0.55997   0.32533   0.00000  Uiso   1.00
C57    C     0.92971   0.06363   0.40640   0.00000  Uiso   1.00
C58    C     0.55997   0.42698   0.32533   0.00000  Uiso   1.00
C59    C     0.07029   0.93638   0.40640   0.00000  Uiso   1.00
C60    C     0.44003   0.57302   0.32533   0.00000  Uiso   1.00
C61    C     0.09221   0.10037   0.41291   0.00000  Uiso   1.00
C62    C     0.39647   0.41218   0.35031   0.00000  Uiso   1.00
C63    C     0.90779   0.89963   0.41291   0.00000  Uiso   1.00
C64    C     0.60353   0.58782   0.35031   0.00000  Uiso   1.00
C65    C     0.89963   0.09221   0.41291   0.00000  Uiso   1.00
C66    C     0.58782   0.39647   0.35031   0.00000  Uiso   1.00
C67    C     0.10037   0.90779   0.41291   0.00000  Uiso   1.00
C68    C     0.41218   0.60353   0.35031   0.00000  Uiso   1.00
C69    C     0.11963   0.10109   0.62536   0.00000  Uiso   1.00
C70    C     0.12913   0.90846   0.21104   0.00000  Uiso   1.00
C71    C     0.36691   0.41149   0.15584   0.00000  Uiso   1.00
C72    C     0.38507   0.60224   0.56487   0.00000  Uiso   1.00
C73    C     0.88037   0.89891   0.62536   0.00000  Uiso   1.00
C74    C     0.87087   0.09154   0.21104   0.00000  Uiso   1.00
C75    C     0.63309   0.58851   0.15584   0.00000  Uiso   1.00
C76    C     0.61493   0.39776   0.56487   0.00000  Uiso   1.00
C77    C     0.89891   0.11963   0.62536   0.00000  Uiso   1.00
C78    C     0.09154   0.12913   0.21104   0.00000  Uiso   1.00
C79    C     0.58851   0.36691   0.15584   0.00000  Uiso   1.00
C80    C     0.39776   0.38507   0.56487   0.00000  Uiso   1.00
C81    C     0.10109   0.88037   0.62536   0.00000  Uiso   1.00
C82    C     0.90846   0.87087   0.21104   0.00000  Uiso   1.00
C83    C     0.41149   0.63309   0.15584   0.00000  Uiso   1.00
C84    C     0.60224   0.61493   0.56487   0.00000  Uiso   1.00
H85    H     0.12042   0.07995   0.78911   0.00000  Uiso   1.00
H86    H     0.12930   0.92904   0.04290   0.00000  Uiso   1.00
H87    H     0.36583   0.43099  -0.01957   0.00000  Uiso   1.00
H88    H     0.38469   0.57965   0.71678   0.00000  Uiso   1.00
H89    H     0.87958   0.92005   0.78911   0.00000  Uiso   1.00
H90    H     0.87070   0.07096   0.04290   0.00000  Uiso   1.00
H91    H     0.63417   0.56901  -0.01957   0.00000  Uiso   1.00
H92    H     0.61531   0.42035   0.71678   0.00000  Uiso   1.00
H93    H     0.92005   0.12042   0.78911   0.00000  Uiso   1.00
H94    H     0.07096   0.12930   0.04290   0.00000  Uiso   1.00
H95    H     0.56901   0.36583  -0.01957   0.00000  Uiso   1.00
H96    H     0.42035   0.38469   0.71678   0.00000  Uiso   1.00
H97    H     0.07995   0.87958   0.78911   0.00000  Uiso   1.00
H98    H     0.92904   0.87070   0.04290   0.00000  Uiso   1.00
H99    H     0.43099   0.63417  -0.01957   0.00000  Uiso   1.00
H100   H     0.57965   0.61531   0.71678   0.00000  Uiso   1.00
C101   C     0.14618   0.12919   0.63137   0.00000  Uiso   1.00
C102   C     0.15814   0.88294   0.22584   0.00000  Uiso   1.00
C103   C     0.33856   0.38546   0.18385   0.00000  Uiso   1.00
C104   C     0.35807   0.62982   0.58495   0.00000  Uiso   1.00
C105   C     0.85383   0.87081   0.63137   0.00000  Uiso   1.00
C106   C     0.84186   0.11706   0.22584   0.00000  Uiso   1.00
C107   C     0.66144   0.61454   0.18385   0.00000  Uiso   1.00
C108   C     0.64193   0.37018   0.58495   0.00000  Uiso   1.00
C109   C     0.87081   0.14618   0.63137   0.00000  Uiso   1.00
C110   C     0.11706   0.15814   0.22584   0.00000  Uiso   1.00
C111   C     0.61454   0.33856   0.18385   0.00000  Uiso   1.00
C112   C     0.37018   0.35807   0.58495   0.00000  Uiso   1.00
C113   C     0.12919   0.85383   0.63137   0.00000  Uiso   1.00
C114   C     0.88294   0.84186   0.22584   0.00000  Uiso   1.00
C115   C     0.38546   0.66144   0.18385   0.00000  Uiso   1.00
C116   C     0.62982   0.64193   0.58495   0.00000  Uiso   1.00
H117   H     0.16760   0.12814   0.79168   0.00000  Uiso   1.00
H118   H     0.18046   0.88408   0.07234   0.00000  Uiso   1.00
H119   H     0.31558   0.38566   0.03583   0.00000  Uiso   1.00
H120   H     0.33703   0.62732   0.74738   0.00000  Uiso   1.00
H121   H     0.83240   0.87186   0.79168   0.00000  Uiso   1.00
H122   H     0.81954   0.11592   0.07234   0.00000  Uiso   1.00
H123   H     0.68442   0.61434   0.03583   0.00000  Uiso   1.00
H124   H     0.66297   0.37268   0.74738   0.00000  Uiso   1.00
H125   H     0.87186   0.16760   0.79168   0.00000  Uiso   1.00
H126   H     0.11592   0.18046   0.07234   0.00000  Uiso   1.00
H127   H     0.61434   0.31558   0.03583   0.00000  Uiso   1.00
H128   H     0.37268   0.33703   0.74738   0.00000  Uiso   1.00
H129   H     0.12814   0.83240   0.79168   0.00000  Uiso   1.00
H130   H     0.88408   0.81954   0.07234   0.00000  Uiso   1.00
H131   H     0.38566   0.68442   0.03583   0.00000  Uiso   1.00
H132   H     0.62732   0.66297   0.74738   0.00000  Uiso   1.00
C133   C     0.14442   0.15854   0.43575   0.00000  Uiso   1.00
C134   C     0.33977   0.35873   0.39861   0.00000  Uiso   1.00
C135   C     0.85558   0.84146   0.43575   0.00000  Uiso   1.00
C136   C     0.66023   0.64127   0.39861   0.00000  Uiso   1.00
C137   C     0.84146   0.14442   0.43575   0.00000  Uiso   1.00
C138   C     0.64127   0.33977   0.39861   0.00000  Uiso   1.00
C139   C     0.15854   0.85558   0.43575   0.00000  Uiso   1.00
C140   C     0.35873   0.66023   0.39861   0.00000  Uiso   1.00
N141   N     0.05393   0.00256   0.40363   0.00000  Uiso   1.00
N142   N     0.94607   0.99744   0.40363   0.00000  Uiso   1.00
N143   N     0.99744   0.05393   0.40363   0.00000  Uiso   1.00
N144   N     0.00256   0.94607   0.40363   0.00000  Uiso   1.00
N145   N     0.68999   0.66744   0.41645   0.00000  Uiso   1.00
C146   C     0.69936   0.68614   0.64212   0.00000  Uiso   1.00
C147   C     0.81161   0.79990   0.66365   0.00000  Uiso   1.00
N148   N     0.83011   0.81101   0.44158   0.00000  Uiso   1.00
H149   H     0.81429   0.81395   0.86696   0.00000  Uiso   1.00
C150   C     0.78513   0.76876   0.64714   0.00000  Uiso   1.00
C151   C     0.75476   0.77016   0.83243   0.00000  Uiso   1.00
C152   C     0.72782   0.74281   0.82791   0.00000  Uiso   1.00
C153   C     0.73017   0.71308   0.63746   0.00000  Uiso   1.00
C154   C     0.76134   0.71022   0.45372   0.00000  Uiso   1.00
C155   C     0.78900   0.73818   0.45822   0.00000  Uiso   1.00
H156   H     0.75180   0.79294   0.98137   0.00000  Uiso   1.00
O157   O     0.76616   0.67975   0.27039   0.00000  Uiso   1.00
O158   O     0.82013   0.73388   0.28051   0.00000  Uiso   1.00
H159   H     0.74502   0.29537   0.97382   0.00000  Uiso   1.00
H160   H     0.65626   0.24585   0.34069   0.00000  Uiso   1.00
H161   H     0.74836   0.15753   0.34433   0.00000  Uiso   1.00
H162   H     0.31596   0.31683   0.83926   0.00000  Uiso   1.00
N163   N     0.31001   0.33256   0.41645   0.00000  Uiso   1.00
C164   C     0.30065   0.31386   0.64212   0.00000  Uiso   1.00
C165   C     0.18839   0.20010   0.66365   0.00000  Uiso   1.00
N166   N     0.16989   0.18899   0.44158   0.00000  Uiso   1.00
H167   H     0.18571   0.18605   0.86696   0.00000  Uiso   1.00
C168   C     0.21488   0.23124   0.64714   0.00000  Uiso   1.00
C169   C     0.24524   0.22984   0.83243   0.00000  Uiso   1.00
C170   C     0.27218   0.25719   0.82791   0.00000  Uiso   1.00
C171   C     0.26983   0.28692   0.63746   0.00000  Uiso   1.00
C172   C     0.23866   0.28978   0.45372   0.00000  Uiso   1.00
C173   C     0.21100   0.26182   0.45822   0.00000  Uiso   1.00
H174   H     0.24821   0.20707   0.98137   0.00000  Uiso   1.00
O175   O     0.23384   0.32025   0.27039   0.00000  Uiso   1.00
O176   O     0.17987   0.26612   0.28051   0.00000  Uiso   1.00
H177   H     0.25498   0.70463   0.97382   0.00000  Uiso   1.00
H178   H     0.34374   0.75415   0.34069   0.00000  Uiso   1.00
H179   H     0.25164   0.84247   0.34433   0.00000  Uiso   1.00
H180   H     0.68405   0.68317   0.83926   0.00000  Uiso   1.00
N181   N     0.33256   0.68999   0.41645   0.00000  Uiso   1.00
C182   C     0.31386   0.69936   0.64212   0.00000  Uiso   1.00
C183   C     0.20010   0.81161   0.66365   0.00000  Uiso   1.00
N184   N     0.18899   0.83011   0.44158   0.00000  Uiso   1.00
H185   H     0.18605   0.81429   0.86696   0.00000  Uiso   1.00
C186   C     0.23124   0.78513   0.64714   0.00000  Uiso   1.00
C187   C     0.22984   0.75476   0.83243   0.00000  Uiso   1.00
C188   C     0.25719   0.72782   0.82791   0.00000  Uiso   1.00
C189   C     0.28692   0.73017   0.63746   0.00000  Uiso   1.00
C190   C     0.28978   0.76134   0.45372   0.00000  Uiso   1.00
C191   C     0.26182   0.78900   0.45822   0.00000  Uiso   1.00
H192   H     0.20707   0.75180   0.98137   0.00000  Uiso   1.00
O193   O     0.32025   0.76616   0.27039   0.00000  Uiso   1.00
O194   O     0.26612   0.82013   0.28051   0.00000  Uiso   1.00
H195   H     0.70463   0.74502   0.97382   0.00000  Uiso   1.00
H196   H     0.75415   0.65626   0.34069   0.00000  Uiso   1.00
H197   H     0.84247   0.74836   0.34433   0.00000  Uiso   1.00
H198   H     0.68317   0.31596   0.83926   0.00000  Uiso   1.00
N199   N     0.66744   0.31001   0.41645   0.00000  Uiso   1.00
C200   C     0.68614   0.30065   0.64212   0.00000  Uiso   1.00
C201   C     0.79990   0.18839   0.66365   0.00000  Uiso   1.00
N202   N     0.81101   0.16989   0.44158   0.00000  Uiso   1.00
H203   H     0.81395   0.18571   0.86696   0.00000  Uiso   1.00
C204   C     0.76876   0.21488   0.64714   0.00000  Uiso   1.00
C205   C     0.77016   0.24524   0.83243   0.00000  Uiso   1.00
C206   C     0.74281   0.27218   0.82791   0.00000  Uiso   1.00
C207   C     0.71308   0.26983   0.63746   0.00000  Uiso   1.00
C208   C     0.71022   0.23866   0.45372   0.00000  Uiso   1.00
C209   C     0.73818   0.21100   0.45822   0.00000  Uiso   1.00
H210   H     0.79294   0.24821   0.98137   0.00000  Uiso   1.00
O211   O     0.67975   0.23384   0.27039   0.00000  Uiso   1.00
O212   O     0.73388   0.17987   0.28051   0.00000  Uiso   1.00
H213   H     0.29537   0.25498   0.97382   0.00000  Uiso   1.00
H214   H     0.24585   0.34374   0.34069   0.00000  Uiso   1.00
H215   H     0.15753   0.25164   0.34433   0.00000  Uiso   1.00
H216   H     0.31683   0.68405   0.83926   0.00000  Uiso   1.00
Cu217  Cu    0.00000   0.00000   0.29983   0.00000  Uiso   1.00
Cu218  Cu    0.50000   0.50000   0.42927   0.00000  Uiso   1.00
loop_
_geom_bond_atom_site_label_1
_geom_bond_atom_site_label_2
_geom_bond_distance
_geom_bond_site_symmetry_2
_ccdc_geom_bond_type
C1     C13     1.460   .     S
C1     C53     1.470   .     S
C1     N141    1.306   .     D
C2     C14     1.449   .     S
C2     C59     1.333   .     D
C2     N141    1.433   1_565 S
C3     C15     1.450   .     S
C3     N39     1.432   .     S
C3     C54     1.332   .     D
C4     C16     1.460   .     S
C4     C55     1.470   .     S
C4     N142    1.306   .     D
C5     C17     1.449   .     S
C5     C57     1.333   .     D
C5     N142    1.433   1_545 S
C6     C18     1.450   .     S
C6     N40     1.432   .     S
C6     C56     1.332   .     D
C7     C19     1.460   .     S
C7     C57     1.470   .     S
C7     N143    1.306   .     D
C8     C20     1.449   .     S
C8     C53     1.333   .     D
C8     N143    1.433   1_455 S
C9     C21     1.450   .     S
C9     N38     1.432   .     S
C9     C58     1.332   .     D
C10    C22     1.460   .     S
C10    C59     1.470   .     S
C10    N144    1.306   .     D
C11    C23     1.449   .     S
C11    C55     1.333   .     D
C11    N144    1.433   1_655 S
C12    C24     1.450   .     S
C12    N37     1.432   .     S
C12    C60     1.332   .     D
C13    C14     1.297   1_545 D
C13    H25     1.082   .     S
C14    C13     1.297   1_565 D
C14    H26     1.083   .     S
C15    H27     1.082   .     S
C15    C47     1.299   .     D
C16    C17     1.297   1_565 D
C16    H28     1.082   .     S
C17    C16     1.297   1_545 D
C17    H29     1.083   .     S
C18    H30     1.082   .     S
C18    C48     1.299   .     D
C19    C20     1.297   1_655 D
C19    H31     1.082   .     S
C20    C19     1.297   1_455 D
C20    H32     1.083   .     S
C21    H33     1.082   .     S
C21    C46     1.299   .     D
C22    C23     1.297   1_455 D
C22    H34     1.082   .     S
C23    C22     1.297   1_655 D
C23    H35     1.083   .     S
C24    H36     1.082   .     S
C24    C45     1.299   .     D
N37    C41     1.305   .     D
N37    Cu218   2.017   .     S
N38    C42     1.305   .     D
N38    Cu218   2.017   .     S
N39    C43     1.305   .     D
N39    Cu218   2.017   .     S
N40    C44     1.305   .     D
N40    Cu218   2.017   .     S
C41    C45     1.459   .     S
C41    C56     1.467   .     S
C42    C46     1.459   .     S
C42    C54     1.467   .     S
C43    C47     1.459   .     S
C43    C60     1.467   .     S
C44    C48     1.459   .     S
C44    C58     1.467   .     S
C45    H49     1.083   .     S
C46    H50     1.083   .     S
C47    H51     1.083   .     S
C48    H52     1.083   .     S
C53    C61     1.503   .     S
C54    C62     1.501   .     S
C55    C63     1.504   .     S
C56    C64     1.501   .     S
C57    C65     1.503   .     S
C58    C66     1.501   .     S
C59    C67     1.504   .     S
C60    C68     1.501   .     S
C61    C69     1.405   .     D
C61    C78     1.406   .     S
C62    C71     1.405   .     D
C62    C80     1.405   .     S
C63    C73     1.405   .     D
C63    C82     1.406   .     S
C64    C75     1.405   .     D
C64    C84     1.405   .     S
C65    C74     1.406   .     S
C65    C77     1.405   .     D
C66    C76     1.405   .     D
C66    C79     1.405   .     S
C67    C70     1.406   .     S
C67    C81     1.405   .     D
C68    C72     1.405   .     D
C68    C83     1.405   .     S
C69    H85     1.084   .     S
C69    C101    1.401   .     S
C70    H86     1.084   .     S
C70    C102    1.401   .     D
C71    H87     1.084   .     S
C71    C103    1.400   .     S
C72    H88     1.084   .     S
C72    C104    1.401   .     S
C73    H89     1.084   .     S
C73    C105    1.401   .     S
C74    H90     1.084   .     S
C74    C106    1.401   .     D
C75    H91     1.084   .     S
C75    C107    1.400   .     S
C76    H92     1.084   .     S
C76    C108    1.401   .     S
C77    H93     1.084   .     S
C77    C109    1.401   .     S
C78    H94     1.084   .     S
C78    C110    1.401   .     D
C79    H95     1.084   .     S
C79    C111    1.400   .     D
C80    H96     1.084   .     S
C80    C112    1.401   .     D
C81    H97     1.084   .     S
C81    C113    1.401   .     S
C82    H98     1.084   .     S
C82    C114    1.401   .     D
C83    H99     1.084   .     S
C83    C115    1.400   .     D
C84    H100    1.084   .     S
C84    C116    1.401   .     D
C101   H117    1.080   .     S
C101   C133    1.404   .     D
C102   H118    1.082   .     S
C102   C139    1.395   .     S
C103   H119    1.083   .     S
C103   C134    1.396   .     D
C104   H120    1.080   .     S
C104   C140    1.405   .     D
C105   H121    1.080   .     S
C105   C135    1.404   .     D
C106   H122    1.082   .     S
C106   C137    1.395   .     S
C107   H123    1.083   .     S
C107   C136    1.396   .     D
C108   H124    1.080   .     S
C108   C138    1.405   .     D
C109   H125    1.080   .     S
C109   C137    1.404   .     D
C110   H126    1.082   .     S
C110   C133    1.395   .     S
C111   H127    1.083   .     S
C111   C138    1.396   .     S
C112   H128    1.080   .     S
C112   C134    1.405   .     S
C113   H129    1.080   .     S
C113   C139    1.404   .     D
C114   H130    1.082   .     S
C114   C135    1.395   .     S
C115   H131    1.083   .     S
C115   C140    1.396   .     S
C116   H132    1.080   .     S
C116   C136    1.405   .     S
C133   N166    1.438   .     S
C134   N163    1.438   .     S
C135   N148    1.438   .     S
C136   N145    1.438   .     S
C137   N202    1.438   .     S
C138   N199    1.438   .     S
C139   N184    1.438   .     S
C140   N181    1.438   .     S
N141   C2      1.433   1_545 S
N141   Cu217   2.015   .     S
N142   C5      1.433   1_565 S
N142   Cu217   2.015   1_665 S
N143   C8      1.433   1_655 S
N143   Cu217   2.015   1_655 S
N144   C11     1.433   1_455 S
N144   Cu217   2.015   1_565 S
N145   C146    1.300   .     D
C146   C153    1.483   .     S
C146   H180    1.082   .     S
C147   N148    1.300   .     D
C147   H149    1.083   .     S
C147   C150    1.483   .     S
C150   C151    1.401   .     D
C150   C155    1.424   .     S
C151   C152    1.390   .     S
C151   H156    1.085   .     S
C152   C153    1.400   .     D
C152   H195    1.086   .     S
C153   C154    1.423   .     S
C154   C155    1.425   .     D
C154   O157    1.409   .     S
C155   O158    1.410   .     S
O157   H196    1.011   .     S
O158   H197    1.010   .     S
H159   C206    1.086   .     S
H160   O211    1.011   .     S
H161   O212    1.010   .     S
H162   C164    1.082   .     S
N163   C164    1.300   .     D
C164   C171    1.483   .     S
C165   N166    1.300   .     D
C165   H167    1.083   .     S
C165   C168    1.483   .     S
C168   C169    1.401   .     D
C168   C173    1.424   .     S
C169   C170    1.390   .     S
C169   H174    1.085   .     S
C170   C171    1.400   .     D
C170   H213    1.086   .     S
C171   C172    1.423   .     S
C172   C173    1.425   .     D
C172   O175    1.409   .     S
C173   O176    1.410   .     S
O175   H214    1.011   .     S
O176   H215    1.010   .     S
H177   C188    1.086   .     S
H178   O193    1.011   .     S
H179   O194    1.010   .     S
N181   C182    1.300   .     D
C182   C189    1.483   .     S
C182   H216    1.082   .     S
C183   N184    1.300   .     D
C183   H185    1.083   .     S
C183   C186    1.483   .     S
C186   C187    1.401   .     D
C186   C191    1.424   .     S
C187   C188    1.390   .     S
C187   H192    1.085   .     S
C188   C189    1.400   .     D
C189   C190    1.423   .     S
C190   C191    1.425   .     D
C190   O193    1.409   .     S
C191   O194    1.410   .     S
H198   C200    1.082   .     S
N199   C200    1.300   .     D
C200   C207    1.483   .     S
C201   N202    1.300   .     D
C201   H203    1.083   .     S
C201   C204    1.483   .     S
C204   C205    1.401   .     S
C204   C209    1.424   .     D
C205   C206    1.390   .     D
C205   H210    1.085   .     S
C206   C207    1.400   .     S
C207   C208    1.423   .     D
C208   C209    1.425   .     S
C208   O211    1.409   .     S
C209   O212    1.410   .     S
Cu217  N143    2.015   1_455 S
Cu217  N144    2.015   1_545 S
Cu217  N142    2.015   1_445 S
