data_190
_audit_creation_date              2023-09-08
_audit_creation_method            'Materials Studio'
_symmetry_space_group_name_H-M    'P1'
_symmetry_Int_Tables_number       1
_symmetry_cell_setting            triclinic
loop_
_symmetry_equiv_pos_as_xyz
  x,y,z
_cell_length_a                    41.9700
_cell_length_b                    41.9700
_cell_length_c                    5.0000
_cell_angle_alpha                 90.0000
_cell_angle_beta                  90.0000
_cell_angle_gamma                 90.0000
loop_
_atom_site_label
_atom_site_type_symbol
_atom_site_fract_x
_atom_site_fract_y
_atom_site_fract_z
_atom_site_U_iso_or_equiv
_atom_site_adp_type
_atom_site_occupancy
C1     C     0.31466   0.69592   0.49205   0.00000  Uiso   1.00
C2     C     0.68534   0.30408   0.49205   0.00000  Uiso   1.00
C3     C     0.30408   0.31466   0.49205   0.00000  Uiso   1.00
C4     C     0.69592   0.68534   0.49205   0.00000  Uiso   1.00
C5     C     0.06611   0.02463   0.09059   0.00000  Uiso   1.00
C6     C     0.06739   0.97333   0.09091   0.00000  Uiso   1.00
C7     C     0.43387   0.47542   0.83284   0.00000  Uiso   1.00
C8     C     0.93389   0.97537   0.09059   0.00000  Uiso   1.00
C9     C     0.93261   0.02667   0.09091   0.00000  Uiso   1.00
C10    C     0.56613   0.52458   0.83284   0.00000  Uiso   1.00
C11    C     0.97537   0.06611   0.09059   0.00000  Uiso   1.00
C12    C     0.02667   0.06739   0.09091   0.00000  Uiso   1.00
C13    C     0.52458   0.43387   0.83284   0.00000  Uiso   1.00
C14    C     0.02463   0.93389   0.09059   0.00000  Uiso   1.00
C15    C     0.97333   0.93261   0.09091   0.00000  Uiso   1.00
C16    C     0.47542   0.56613   0.83284   0.00000  Uiso   1.00
C17    C     0.09948   0.01474   0.10510   0.00000  Uiso   1.00
C18    C     0.10026   0.98383   0.11328   0.00000  Uiso   1.00
C19    C     0.40051   0.48533   0.81832   0.00000  Uiso   1.00
C20    C     0.90052   0.98526   0.10510   0.00000  Uiso   1.00
C21    C     0.89974   0.01617   0.11328   0.00000  Uiso   1.00
C22    C     0.59949   0.51467   0.81832   0.00000  Uiso   1.00
C23    C     0.98526   0.09948   0.10510   0.00000  Uiso   1.00
C24    C     0.01617   0.10026   0.11328   0.00000  Uiso   1.00
C25    C     0.51467   0.40051   0.81832   0.00000  Uiso   1.00
C26    C     0.01474   0.90052   0.10510   0.00000  Uiso   1.00
C27    C     0.98383   0.89974   0.11328   0.00000  Uiso   1.00
C28    C     0.48533   0.59949   0.81832   0.00000  Uiso   1.00
H29    H     0.12049   0.02965   0.10640   0.00000  Uiso   1.00
H30    H     0.12174   0.96977   0.13219   0.00000  Uiso   1.00
H31    H     0.37948   0.47044   0.81695   0.00000  Uiso   1.00
H32    H     0.87951   0.97035   0.10640   0.00000  Uiso   1.00
H33    H     0.87826   0.03023   0.13219   0.00000  Uiso   1.00
H34    H     0.62052   0.52956   0.81695   0.00000  Uiso   1.00
H35    H     0.97035   0.12049   0.10640   0.00000  Uiso   1.00
H36    H     0.03023   0.12174   0.13219   0.00000  Uiso   1.00
H37    H     0.52956   0.37948   0.81695   0.00000  Uiso   1.00
H38    H     0.02965   0.87951   0.10640   0.00000  Uiso   1.00
H39    H     0.96977   0.87826   0.13219   0.00000  Uiso   1.00
H40    H     0.47044   0.62052   0.81695   0.00000  Uiso   1.00
N41    N     0.49964   0.54671   0.84513   0.00000  Uiso   1.00
N42    N     0.50037   0.45329   0.84513   0.00000  Uiso   1.00
N43    N     0.45329   0.49964   0.84513   0.00000  Uiso   1.00
N44    N     0.54671   0.50037   0.84513   0.00000  Uiso   1.00
C45    C     0.52672   0.56737   0.83260   0.00000  Uiso   1.00
C46    C     0.47328   0.43263   0.83260   0.00000  Uiso   1.00
C47    C     0.43263   0.52672   0.83260   0.00000  Uiso   1.00
C48    C     0.56737   0.47328   0.83260   0.00000  Uiso   1.00
C49    C     0.51625   0.60025   0.81018   0.00000  Uiso   1.00
C50    C     0.48375   0.39975   0.81018   0.00000  Uiso   1.00
C51    C     0.39975   0.51625   0.81018   0.00000  Uiso   1.00
C52    C     0.60025   0.48375   0.81018   0.00000  Uiso   1.00
H53    H     0.53032   0.62172   0.79123   0.00000  Uiso   1.00
H54    H     0.46968   0.37828   0.79123   0.00000  Uiso   1.00
H55    H     0.37828   0.53032   0.79123   0.00000  Uiso   1.00
H56    H     0.62172   0.46968   0.79123   0.00000  Uiso   1.00
C57    C     0.05708   0.05840   0.09370   0.00000  Uiso   1.00
C58    C     0.44287   0.44165   0.82965   0.00000  Uiso   1.00
C59    C     0.94292   0.94160   0.09370   0.00000  Uiso   1.00
C60    C     0.55713   0.55835   0.82965   0.00000  Uiso   1.00
C61    C     0.94160   0.05708   0.09370   0.00000  Uiso   1.00
C62    C     0.55835   0.44287   0.82965   0.00000  Uiso   1.00
C63    C     0.05840   0.94292   0.09370   0.00000  Uiso   1.00
C64    C     0.44165   0.55713   0.82965   0.00000  Uiso   1.00
C65    C     0.08268   0.08288   0.12700   0.00000  Uiso   1.00
C66    C     0.41726   0.41719   0.79599   0.00000  Uiso   1.00
C67    C     0.91732   0.91712   0.12700   0.00000  Uiso   1.00
C68    C     0.58274   0.58281   0.79599   0.00000  Uiso   1.00
C69    C     0.91712   0.08268   0.12700   0.00000  Uiso   1.00
C70    C     0.58281   0.41726   0.79599   0.00000  Uiso   1.00
C71    C     0.08288   0.91732   0.12700   0.00000  Uiso   1.00
C72    C     0.41719   0.58274   0.79599   0.00000  Uiso   1.00
C73    C     0.10333   0.08152   0.34752   0.00000  Uiso   1.00
C74    C     0.10785   0.91376  -0.05748   0.00000  Uiso   1.00
C75    C     0.39664   0.41859   0.57533   0.00000  Uiso   1.00
C76    C     0.39220   0.58634   0.98024   0.00000  Uiso   1.00
C77    C     0.89668   0.91848   0.34752   0.00000  Uiso   1.00
C78    C     0.89215   0.08624  -0.05748   0.00000  Uiso   1.00
C79    C     0.60336   0.58141   0.57533   0.00000  Uiso   1.00
C80    C     0.60780   0.41366   0.98024   0.00000  Uiso   1.00
C81    C     0.91848   0.10333   0.34752   0.00000  Uiso   1.00
C82    C     0.08624   0.10785  -0.05748   0.00000  Uiso   1.00
C83    C     0.58141   0.39664   0.57533   0.00000  Uiso   1.00
C84    C     0.41366   0.39220   0.98024   0.00000  Uiso   1.00
C85    C     0.08152   0.89668   0.34752   0.00000  Uiso   1.00
C86    C     0.91376   0.89215  -0.05748   0.00000  Uiso   1.00
C87    C     0.41859   0.60336   0.57533   0.00000  Uiso   1.00
C88    C     0.58634   0.60780   0.98024   0.00000  Uiso   1.00
H89    H     0.10078   0.06277   0.49511   0.00000  Uiso   1.00
H90    H     0.10954   0.92949  -0.22871   0.00000  Uiso   1.00
H91    H     0.39922   0.43736   0.42793   0.00000  Uiso   1.00
H92    H     0.39048   0.57063   1.15160   0.00000  Uiso   1.00
H93    H     0.89922   0.93723   0.49511   0.00000  Uiso   1.00
H94    H     0.89046   0.07051  -0.22871   0.00000  Uiso   1.00
H95    H     0.60078   0.56264   0.42793   0.00000  Uiso   1.00
H96    H     0.60952   0.42937   1.15160   0.00000  Uiso   1.00
H97    H     0.93723   0.10078   0.49511   0.00000  Uiso   1.00
H98    H     0.07051   0.10954  -0.22871   0.00000  Uiso   1.00
H99    H     0.56264   0.39922   0.42793   0.00000  Uiso   1.00
H100   H     0.42937   0.39048   1.15160   0.00000  Uiso   1.00
H101   H     0.06277   0.89922   0.49511   0.00000  Uiso   1.00
H102   H     0.92949   0.89046  -0.22871   0.00000  Uiso   1.00
H103   H     0.43736   0.60078   0.42793   0.00000  Uiso   1.00
H104   H     0.57063   0.60952   1.15160   0.00000  Uiso   1.00
C105   C     0.12752   0.10410   0.37949   0.00000  Uiso   1.00
C106   C     0.13119   0.89037  -0.01921   0.00000  Uiso   1.00
C107   C     0.37243   0.39603   0.54299   0.00000  Uiso   1.00
C108   C     0.36888   0.60974   0.94158   0.00000  Uiso   1.00
C109   C     0.87248   0.89590   0.37949   0.00000  Uiso   1.00
C110   C     0.86881   0.10963  -0.01921   0.00000  Uiso   1.00
C111   C     0.62757   0.60397   0.54299   0.00000  Uiso   1.00
C112   C     0.63112   0.39026   0.94158   0.00000  Uiso   1.00
C113   C     0.89590   0.12752   0.37949   0.00000  Uiso   1.00
C114   C     0.10963   0.13119  -0.01921   0.00000  Uiso   1.00
C115   C     0.60397   0.37243   0.54299   0.00000  Uiso   1.00
C116   C     0.39026   0.36888   0.94158   0.00000  Uiso   1.00
C117   C     0.10410   0.87248   0.37949   0.00000  Uiso   1.00
C118   C     0.89037   0.86881  -0.01921   0.00000  Uiso   1.00
C119   C     0.39603   0.62757   0.54299   0.00000  Uiso   1.00
C120   C     0.60974   0.63112   0.94158   0.00000  Uiso   1.00
H121   H     0.14332   0.10151   0.54800   0.00000  Uiso   1.00
H122   H     0.15066   0.88822  -0.16010   0.00000  Uiso   1.00
H123   H     0.35665   0.39866   0.37436   0.00000  Uiso   1.00
H124   H     0.34939   0.61192   1.08229   0.00000  Uiso   1.00
H125   H     0.85668   0.89849   0.54800   0.00000  Uiso   1.00
H126   H     0.84934   0.11178  -0.16010   0.00000  Uiso   1.00
H127   H     0.64335   0.60134   0.37436   0.00000  Uiso   1.00
H128   H     0.65061   0.38808   1.08229   0.00000  Uiso   1.00
H129   H     0.89849   0.14332   0.54800   0.00000  Uiso   1.00
H130   H     0.11178   0.15066  -0.16010   0.00000  Uiso   1.00
H131   H     0.60134   0.35665   0.37436   0.00000  Uiso   1.00
H132   H     0.38808   0.34939   1.08229   0.00000  Uiso   1.00
H133   H     0.10151   0.85668   0.54800   0.00000  Uiso   1.00
H134   H     0.88822   0.84934  -0.16010   0.00000  Uiso   1.00
H135   H     0.39866   0.64335   0.37436   0.00000  Uiso   1.00
H136   H     0.61192   0.65061   1.08229   0.00000  Uiso   1.00
C137   C     0.13045   0.12960   0.19854   0.00000  Uiso   1.00
C138   C     0.36947   0.37051   0.72369   0.00000  Uiso   1.00
C139   C     0.86955   0.87040   0.19854   0.00000  Uiso   1.00
C140   C     0.63053   0.62949   0.72369   0.00000  Uiso   1.00
C141   C     0.87040   0.13045   0.19854   0.00000  Uiso   1.00
C142   C     0.62949   0.36947   0.72369   0.00000  Uiso   1.00
C143   C     0.12960   0.86955   0.19854   0.00000  Uiso   1.00
C144   C     0.37051   0.63053   0.72369   0.00000  Uiso   1.00
N145   N     0.04671   0.00040   0.07840   0.00000  Uiso   1.00
N146   N     0.95329   0.99960   0.07840   0.00000  Uiso   1.00
N147   N     0.99960   0.04671   0.07840   0.00000  Uiso   1.00
N148   N     0.00040   0.95329   0.07840   0.00000  Uiso   1.00
N149   N     0.65380   0.65439   0.69354   0.00000  Uiso   1.00
C150   C     0.67368   0.65813   0.49632   0.00000  Uiso   1.00
H151   H     0.67431   0.64172   0.32981   0.00000  Uiso   1.00
C152   C     0.82641   0.84170   0.42532   0.00000  Uiso   1.00
N153   N     0.84630   0.84549   0.22821   0.00000  Uiso   1.00
H154   H     0.82577   0.85806   0.59217   0.00000  Uiso   1.00
C155   C     0.71930   0.68726   0.29265   0.00000  Uiso   1.00
N156   N     0.73973   0.71239   0.28561   0.00000  Uiso   1.00
C157   C     0.73859   0.73645   0.46876   0.00000  Uiso   1.00
C158   C     0.71555   0.73530   0.67206   0.00000  Uiso   1.00
C159   C     0.69419   0.70980   0.68269   0.00000  Uiso   1.00
C160   C     0.80416   0.81449   0.42907   0.00000  Uiso   1.00
C161   C     0.78076   0.81254   0.62828   0.00000  Uiso   1.00
N162   N     0.76033   0.78741   0.63488   0.00000  Uiso   1.00
C163   C     0.76149   0.76337   0.45154   0.00000  Uiso   1.00
C164   C     0.78455   0.76455   0.24840   0.00000  Uiso   1.00
C165   C     0.80590   0.79006   0.23815   0.00000  Uiso   1.00
H166   H     0.72125   0.66884   0.14168   0.00000  Uiso   1.00
H167   H     0.67638   0.70909   0.83952   0.00000  Uiso   1.00
H168   H     0.77880   0.83093   0.77948   0.00000  Uiso   1.00
H169   H     0.78590   0.74598   0.09853   0.00000  Uiso   1.00
H170   H     0.82371   0.79080   0.08136   0.00000  Uiso   1.00
H171   H     0.28577   0.24609   0.82166   0.00000  Uiso   1.00
N172   N     0.34621   0.34561   0.69354   0.00000  Uiso   1.00
C173   C     0.32632   0.34187   0.49632   0.00000  Uiso   1.00
H174   H     0.32569   0.35828   0.32981   0.00000  Uiso   1.00
C175   C     0.17359   0.15830   0.42532   0.00000  Uiso   1.00
N176   N     0.15370   0.15451   0.22821   0.00000  Uiso   1.00
H177   H     0.17423   0.14195   0.59217   0.00000  Uiso   1.00
C178   C     0.28070   0.31274   0.29265   0.00000  Uiso   1.00
N179   N     0.26027   0.28761   0.28561   0.00000  Uiso   1.00
C180   C     0.26141   0.26355   0.46876   0.00000  Uiso   1.00
C181   C     0.28445   0.26470   0.67206   0.00000  Uiso   1.00
C182   C     0.30581   0.29020   0.68269   0.00000  Uiso   1.00
C183   C     0.19584   0.18552   0.42907   0.00000  Uiso   1.00
C184   C     0.21924   0.18746   0.62828   0.00000  Uiso   1.00
N185   N     0.23967   0.21259   0.63488   0.00000  Uiso   1.00
C186   C     0.23852   0.23663   0.45154   0.00000  Uiso   1.00
C187   C     0.21545   0.23545   0.24840   0.00000  Uiso   1.00
C188   C     0.19410   0.20994   0.23815   0.00000  Uiso   1.00
H189   H     0.27875   0.33116   0.14168   0.00000  Uiso   1.00
H190   H     0.32362   0.29091   0.83952   0.00000  Uiso   1.00
H191   H     0.22120   0.16907   0.77948   0.00000  Uiso   1.00
H192   H     0.21410   0.25402   0.09853   0.00000  Uiso   1.00
H193   H     0.17629   0.20920   0.08136   0.00000  Uiso   1.00
H194   H     0.71423   0.75391   0.82166   0.00000  Uiso   1.00
N195   N     0.34561   0.65380   0.69354   0.00000  Uiso   1.00
C196   C     0.34187   0.67368   0.49632   0.00000  Uiso   1.00
H197   H     0.35828   0.67431   0.32981   0.00000  Uiso   1.00
C198   C     0.15830   0.82641   0.42532   0.00000  Uiso   1.00
N199   N     0.15451   0.84630   0.22821   0.00000  Uiso   1.00
H200   H     0.14195   0.82577   0.59217   0.00000  Uiso   1.00
C201   C     0.31274   0.71930   0.29265   0.00000  Uiso   1.00
N202   N     0.28761   0.73973   0.28561   0.00000  Uiso   1.00
C203   C     0.26355   0.73859   0.46876   0.00000  Uiso   1.00
C204   C     0.26470   0.71555   0.67206   0.00000  Uiso   1.00
C205   C     0.29020   0.69419   0.68269   0.00000  Uiso   1.00
C206   C     0.18552   0.80416   0.42907   0.00000  Uiso   1.00
C207   C     0.18746   0.78076   0.62828   0.00000  Uiso   1.00
N208   N     0.21259   0.76033   0.63488   0.00000  Uiso   1.00
C209   C     0.23663   0.76149   0.45154   0.00000  Uiso   1.00
C210   C     0.23545   0.78455   0.24840   0.00000  Uiso   1.00
C211   C     0.20994   0.80590   0.23815   0.00000  Uiso   1.00
H212   H     0.33116   0.72125   0.14168   0.00000  Uiso   1.00
H213   H     0.29091   0.67638   0.83952   0.00000  Uiso   1.00
H214   H     0.16907   0.77880   0.77948   0.00000  Uiso   1.00
H215   H     0.25402   0.78590   0.09853   0.00000  Uiso   1.00
H216   H     0.20920   0.82371   0.08136   0.00000  Uiso   1.00
H217   H     0.75391   0.28577   0.82166   0.00000  Uiso   1.00
N218   N     0.65439   0.34621   0.69354   0.00000  Uiso   1.00
C219   C     0.65813   0.32632   0.49632   0.00000  Uiso   1.00
H220   H     0.64172   0.32569   0.32981   0.00000  Uiso   1.00
C221   C     0.84170   0.17359   0.42532   0.00000  Uiso   1.00
N222   N     0.84549   0.15370   0.22821   0.00000  Uiso   1.00
H223   H     0.85806   0.17423   0.59217   0.00000  Uiso   1.00
C224   C     0.68726   0.28070   0.29265   0.00000  Uiso   1.00
N225   N     0.71239   0.26027   0.28561   0.00000  Uiso   1.00
C226   C     0.73645   0.26141   0.46876   0.00000  Uiso   1.00
C227   C     0.73530   0.28445   0.67206   0.00000  Uiso   1.00
C228   C     0.70980   0.30581   0.68269   0.00000  Uiso   1.00
C229   C     0.81449   0.19584   0.42907   0.00000  Uiso   1.00
C230   C     0.81254   0.21924   0.62828   0.00000  Uiso   1.00
N231   N     0.78741   0.23967   0.63488   0.00000  Uiso   1.00
C232   C     0.76337   0.23852   0.45154   0.00000  Uiso   1.00
C233   C     0.76455   0.21545   0.24840   0.00000  Uiso   1.00
C234   C     0.79006   0.19410   0.23815   0.00000  Uiso   1.00
H235   H     0.66884   0.27875   0.14168   0.00000  Uiso   1.00
H236   H     0.70909   0.32362   0.83952   0.00000  Uiso   1.00
H237   H     0.83093   0.22120   0.77948   0.00000  Uiso   1.00
H238   H     0.74598   0.21410   0.09853   0.00000  Uiso   1.00
H239   H     0.79080   0.17629   0.08136   0.00000  Uiso   1.00
H240   H     0.24609   0.71423   0.82166   0.00000  Uiso   1.00
Cu241  Cu    0.00000   0.00000  -0.01269   0.00000  Uiso   1.00
Cu242  Cu    0.50000   0.50000   0.93621   0.00000  Uiso   1.00
loop_
_geom_bond_atom_site_label_1
_geom_bond_atom_site_label_2
_geom_bond_distance
_geom_bond_site_symmetry_2
_ccdc_geom_bond_type
C1     C196    1.475   .     S
C1     C201    1.401   .     D
C1     C205    1.403   .     S
C2     C219    1.475   .     S
C2     C224    1.401   .     D
C2     C228    1.403   .     S
C3     C173    1.475   .     S
C3     C178    1.401   .     S
C3     C182    1.403   .     D
C4     C150    1.475   .     S
C4     C155    1.401   .     D
C4     C159    1.403   .     S
C5     C17     1.462   .     S
C5     C57     1.467   .     D
C5     N145    1.304   .     S
C6     C18     1.453   .     S
C6     C63     1.331   .     S
C6     N145    1.431   1_565 D
C7     C19     1.462   .     S
C7     N43     1.304   .     S
C7     C58     1.467   .     D
C8     C20     1.462   .     S
C8     C59     1.467   .     D
C8     N146    1.304   .     S
C9     C21     1.452   .     S
C9     C61     1.331   .     S
C9     N146    1.431   1_545 D
C10    C22     1.462   .     S
C10    N44     1.304   .     S
C10    C60     1.467   .     D
C11    C23     1.462   .     S
C11    C61     1.467   .     D
C11    N147    1.304   .     S
C12    C24     1.453   .     S
C12    C57     1.331   .     S
C12    N147    1.431   1_455 D
C13    C25     1.462   .     S
C13    N42     1.304   .     S
C13    C62     1.467   .     D
C14    C26     1.462   .     S
C14    C63     1.467   .     D
C14    N148    1.304   .     S
C15    C27     1.452   .     S
C15    C59     1.331   .     S
C15    N148    1.431   1_655 D
C16    C28     1.462   .     S
C16    N41     1.304   .     S
C16    C64     1.467   .     D
C17    C18     1.299   1_545 D
C17    H29     1.081   .     S
C18    C17     1.299   1_565 D
C18    H30     1.082   .     S
C19    H31     1.081   .     S
C19    C51     1.299   .     D
C20    C21     1.299   1_565 D
C20    H32     1.081   .     S
C21    C20     1.299   1_545 D
C21    H33     1.082   .     S
C22    H34     1.081   .     S
C22    C52     1.299   .     D
C23    C24     1.299   1_655 D
C23    H35     1.081   .     S
C24    C23     1.299   1_455 D
C24    H36     1.082   .     S
C25    H37     1.081   .     S
C25    C50     1.299   .     D
C26    C27     1.299   1_455 D
C26    H38     1.081   .     S
C27    C26     1.299   1_655 D
C27    H39     1.082   .     S
C28    H40     1.081   .     S
C28    C49     1.299   .     D
N41    C45     1.431   .     D
N41    Cu242   2.013   .     S
N42    C46     1.431   .     D
N42    Cu242   2.013   .     S
N43    C47     1.431   .     D
N43    Cu242   2.013   .     S
N44    C48     1.431   .     D
N44    Cu242   2.013   .     S
C45    C49     1.453   .     S
C45    C60     1.331   .     S
C46    C50     1.453   .     S
C46    C58     1.331   .     S
C47    C51     1.453   .     S
C47    C64     1.331   .     S
C48    C52     1.453   .     S
C48    C62     1.331   .     S
C49    H53     1.082   .     S
C50    H54     1.082   .     S
C51    H55     1.082   .     S
C52    H56     1.082   .     S
C57    C65     1.496   .     S
C58    C66     1.496   .     S
C59    C67     1.496   .     S
C60    C68     1.496   .     S
C61    C69     1.496   .     S
C62    C70     1.496   .     S
C63    C71     1.496   .     S
C64    C72     1.496   .     S
C65    C73     1.403   .     S
C65    C82     1.404   .     D
C66    C75     1.403   .     D
C66    C84     1.404   .     S
C67    C77     1.403   .     S
C67    C86     1.404   .     D
C68    C79     1.403   .     S
C68    C88     1.404   .     D
C69    C78     1.404   .     D
C69    C81     1.403   .     S
C70    C80     1.404   .     D
C70    C83     1.403   .     S
C71    C74     1.404   .     D
C71    C85     1.403   .     S
C72    C76     1.404   .     D
C72    C87     1.403   .     S
C73    H89     1.084   .     S
C73    C105    1.398   .     D
C74    H90     1.084   .     S
C74    C106    1.400   .     S
C75    H91     1.084   .     S
C75    C107    1.398   .     S
C76    H92     1.084   .     S
C76    C108    1.400   .     S
C77    H93     1.084   .     S
C77    C109    1.398   .     D
C78    H94     1.084   .     S
C78    C110    1.400   .     S
C79    H95     1.084   .     S
C79    C111    1.398   .     D
C80    H96     1.084   .     S
C80    C112    1.400   .     S
C81    H97     1.084   .     S
C81    C113    1.398   .     D
C82    H98     1.084   .     S
C82    C114    1.400   .     S
C83    H99     1.084   .     S
C83    C115    1.398   .     D
C84    H100    1.084   .     S
C84    C116    1.400   .     D
C85    H101    1.084   .     S
C85    C117    1.398   .     D
C86    H102    1.084   .     S
C86    C118    1.400   .     S
C87    H103    1.084   .     S
C87    C119    1.398   .     D
C88    H104    1.084   .     S
C88    C120    1.400   .     S
C105   H121    1.078   .     S
C105   C137    1.407   .     S
C106   H122    1.083   .     S
C106   C143    1.398   .     D
C107   H123    1.078   .     S
C107   C138    1.407   .     D
C108   H124    1.083   .     S
C108   C144    1.398   .     D
C109   H125    1.078   .     S
C109   C139    1.407   .     S
C110   H126    1.083   .     S
C110   C141    1.398   .     D
C111   H127    1.078   .     S
C111   C140    1.407   .     S
C112   H128    1.083   .     S
C112   C142    1.398   .     D
C113   H129    1.078   .     S
C113   C141    1.407   .     S
C114   H130    1.083   .     S
C114   C137    1.398   .     D
C115   H131    1.078   .     S
C115   C142    1.407   .     S
C116   H132    1.083   .     S
C116   C138    1.398   .     S
C117   H133    1.078   .     S
C117   C143    1.407   .     S
C118   H134    1.083   .     S
C118   C139    1.398   .     D
C119   H135    1.078   .     S
C119   C144    1.407   .     S
C120   H136    1.083   .     S
C120   C140    1.398   .     D
C137   N176    1.438   .     S
C138   N172    1.438   .     S
C139   N153    1.438   .     S
C140   N149    1.438   .     S
C141   N222    1.438   .     S
C142   N218    1.438   .     S
C143   N199    1.438   .     S
C144   N195    1.438   .     S
N145   C6      1.431   1_545 D
N145   Cu241   2.013   .     S
N146   C9      1.431   1_565 D
N146   Cu241   2.013   1_665 S
N147   C12     1.431   1_655 D
N147   Cu241   2.013   1_655 S
N148   C15     1.431   1_455 D
N148   Cu241   2.013   1_565 S
N149   C150    1.301   .     D
C150   H151    1.081   .     S
C152   N153    1.301   .     D
C152   H154    1.081   .     S
C152   C160    1.475   .     S
C155   N156    1.360   .     S
C155   H166    1.084   .     S
N156   C157    1.364   .     D
C157   C158    1.404   .     S
C157   C163    1.486   .     S
C158   C159    1.397   .     D
C158   H194    1.083   .     S
C159   H167    1.084   .     S
C160   C161    1.401   .     D
C160   C165    1.403   .     S
C161   N162    1.360   .     S
C161   H168    1.084   .     S
N162   C163    1.364   .     D
C163   C164    1.404   .     S
C164   C165    1.397   .     D
C164   H169    1.083   .     S
C165   H170    1.084   .     S
H171   C181    1.083   .     S
N172   C173    1.301   .     D
C173   H174    1.081   .     S
C175   N176    1.301   .     D
C175   H177    1.081   .     S
C175   C183    1.475   .     S
C178   N179    1.360   .     D
C178   H189    1.084   .     S
N179   C180    1.364   .     S
C180   C181    1.404   .     D
C180   C186    1.486   .     S
C181   C182    1.397   .     S
C182   H190    1.084   .     S
C183   C184    1.401   .     S
C183   C188    1.403   .     D
C184   N185    1.360   .     D
C184   H191    1.084   .     S
N185   C186    1.364   .     S
C186   C187    1.404   .     D
C187   C188    1.397   .     S
C187   H192    1.083   .     S
C188   H193    1.084   .     S
N195   C196    1.301   .     D
C196   H197    1.081   .     S
C198   N199    1.301   .     D
C198   H200    1.081   .     S
C198   C206    1.475   .     S
C201   N202    1.360   .     S
C201   H212    1.084   .     S
N202   C203    1.364   .     D
C203   C204    1.404   .     S
C203   C209    1.486   .     S
C204   C205    1.397   .     D
C204   H240    1.083   .     S
C205   H213    1.084   .     S
C206   C207    1.401   .     D
C206   C211    1.403   .     S
C207   N208    1.360   .     S
C207   H214    1.084   .     S
N208   C209    1.364   .     D
C209   C210    1.404   .     S
C210   C211    1.397   .     D
C210   H215    1.083   .     S
C211   H216    1.084   .     S
H217   C227    1.083   .     S
N218   C219    1.301   .     D
C219   H220    1.081   .     S
C221   N222    1.301   .     D
C221   H223    1.081   .     S
C221   C229    1.475   .     S
C224   N225    1.360   .     S
C224   H235    1.084   .     S
N225   C226    1.364   .     D
C226   C227    1.404   .     S
C226   C232    1.486   .     S
C227   C228    1.397   .     D
C228   H236    1.084   .     S
C229   C230    1.401   .     D
C229   C234    1.403   .     S
C230   N231    1.360   .     S
C230   H237    1.084   .     S
N231   C232    1.364   .     D
C232   C233    1.404   .     S
C233   C234    1.397   .     D
C233   H238    1.083   .     S
C234   H239    1.084   .     S
Cu241  N147    2.013   1_455 S
Cu241  N148    2.013   1_545 S
Cu241  N146    2.013   1_445 S
