data_192
_audit_creation_date              2023-09-08
_audit_creation_method            'Materials Studio'
_symmetry_space_group_name_H-M    'P1'
_symmetry_Int_Tables_number       1
_symmetry_cell_setting            triclinic
loop_
_symmetry_equiv_pos_as_xyz
  x,y,z
_cell_length_a                    39.2100
_cell_length_b                    39.2100
_cell_length_c                    4.7100
_cell_angle_alpha                 90.0000
_cell_angle_beta                  90.0000
_cell_angle_gamma                 90.0000
loop_
_atom_site_label
_atom_site_type_symbol
_atom_site_fract_x
_atom_site_fract_y
_atom_site_fract_z
_atom_site_U_iso_or_equiv
_atom_site_adp_type
_atom_site_occupancy
C1     C     0.24983   0.73572   0.66339   0.00000  Uiso   1.00
C2     C     0.75017   0.26428   0.66339   0.00000  Uiso   1.00
C3     C     0.26428   0.24983   0.66339   0.00000  Uiso   1.00
C4     C     0.73572   0.75017   0.66339   0.00000  Uiso   1.00
C5     C     0.22165   0.78627   0.46395   0.00000  Uiso   1.00
C6     C     0.24846   0.19299   0.82144   0.00000  Uiso   1.00
C7     C     0.27837   0.71375   0.67938   0.00000  Uiso   1.00
C8     C     0.25152   0.30703   0.32190   0.00000  Uiso   1.00
C9     C     0.77835   0.21373   0.46395   0.00000  Uiso   1.00
C10    C     0.75154   0.80701   0.82144   0.00000  Uiso   1.00
C11    C     0.72164   0.28625   0.67938   0.00000  Uiso   1.00
C12    C     0.74848   0.69297   0.32190   0.00000  Uiso   1.00
C13    C     0.21373   0.22165   0.46395   0.00000  Uiso   1.00
C14    C     0.80701   0.24846   0.82144   0.00000  Uiso   1.00
C15    C     0.28625   0.27837   0.67938   0.00000  Uiso   1.00
C16    C     0.69297   0.25152   0.32190   0.00000  Uiso   1.00
C17    C     0.78627   0.77835   0.46395   0.00000  Uiso   1.00
C18    C     0.19299   0.75154   0.82144   0.00000  Uiso   1.00
C19    C     0.71375   0.72164   0.67938   0.00000  Uiso   1.00
C20    C     0.30703   0.74848   0.32190   0.00000  Uiso   1.00
C21    C     0.25019   0.76429   0.47995   0.00000  Uiso   1.00
C22    C     0.27039   0.22091   0.83132   0.00000  Uiso   1.00
C23    C     0.74981   0.23571   0.47995   0.00000  Uiso   1.00
C24    C     0.72961   0.77909   0.83132   0.00000  Uiso   1.00
C25    C     0.23571   0.25019   0.47995   0.00000  Uiso   1.00
C26    C     0.77909   0.27039   0.83132   0.00000  Uiso   1.00
C27    C     0.76429   0.74981   0.47995   0.00000  Uiso   1.00
C28    C     0.22091   0.72961   0.83132   0.00000  Uiso   1.00
C29    C     0.19305   0.78033   0.64422   0.00000  Uiso   1.00
C30    C     0.30697   0.71969   0.49911   0.00000  Uiso   1.00
C31    C     0.80695   0.21967   0.64422   0.00000  Uiso   1.00
C32    C     0.69303   0.28031   0.49911   0.00000  Uiso   1.00
C33    C     0.21967   0.19305   0.64422   0.00000  Uiso   1.00
C34    C     0.28031   0.30697   0.49911   0.00000  Uiso   1.00
C35    C     0.78033   0.80695   0.64422   0.00000  Uiso   1.00
C36    C     0.71969   0.69303   0.49911   0.00000  Uiso   1.00
C37    C     0.07119   0.02499   0.74734   0.00000  Uiso   1.00
C38    C     0.07126   0.97012   0.75711   0.00000  Uiso   1.00
C39    C     0.42880   0.47502   0.39594   0.00000  Uiso   1.00
C40    C     0.92881   0.97501   0.74734   0.00000  Uiso   1.00
C41    C     0.92874   0.02988   0.75711   0.00000  Uiso   1.00
C42    C     0.57120   0.52498   0.39594   0.00000  Uiso   1.00
C43    C     0.97501   0.07119   0.74734   0.00000  Uiso   1.00
C44    C     0.02988   0.07126   0.75711   0.00000  Uiso   1.00
C45    C     0.52498   0.42880   0.39594   0.00000  Uiso   1.00
C46    C     0.02499   0.92881   0.74734   0.00000  Uiso   1.00
C47    C     0.97012   0.92874   0.75711   0.00000  Uiso   1.00
C48    C     0.47502   0.57120   0.39594   0.00000  Uiso   1.00
C49    C     0.10667   0.01355   0.76409   0.00000  Uiso   1.00
C50    C     0.10665   0.98052   0.78017   0.00000  Uiso   1.00
C51    C     0.39333   0.48646   0.37919   0.00000  Uiso   1.00
C52    C     0.89333   0.98645   0.76409   0.00000  Uiso   1.00
C53    C     0.89335   0.01948   0.78017   0.00000  Uiso   1.00
C54    C     0.60667   0.51354   0.37919   0.00000  Uiso   1.00
C55    C     0.98645   0.10667   0.76409   0.00000  Uiso   1.00
C56    C     0.01948   0.10665   0.78017   0.00000  Uiso   1.00
C57    C     0.51354   0.39333   0.37919   0.00000  Uiso   1.00
C58    C     0.01355   0.89333   0.76409   0.00000  Uiso   1.00
C59    C     0.98052   0.89335   0.78017   0.00000  Uiso   1.00
C60    C     0.48646   0.60667   0.37919   0.00000  Uiso   1.00
H61    H     0.12973   0.02851   0.75467   0.00000  Uiso   1.00
H62    H     0.12924   0.96479   0.79848   0.00000  Uiso   1.00
H63    H     0.37026   0.47151   0.38861   0.00000  Uiso   1.00
H64    H     0.87027   0.97149   0.75467   0.00000  Uiso   1.00
H65    H     0.87076   0.03521   0.79848   0.00000  Uiso   1.00
H66    H     0.62974   0.52849   0.38861   0.00000  Uiso   1.00
H67    H     0.97149   0.12973   0.75467   0.00000  Uiso   1.00
H68    H     0.03521   0.12924   0.79848   0.00000  Uiso   1.00
H69    H     0.52849   0.37026   0.38861   0.00000  Uiso   1.00
H70    H     0.02851   0.87027   0.75467   0.00000  Uiso   1.00
H71    H     0.96479   0.87076   0.79848   0.00000  Uiso   1.00
H72    H     0.47151   0.62974   0.38861   0.00000  Uiso   1.00
N73    N     0.50048   0.54973   0.39716   0.00000  Uiso   1.00
N74    N     0.49952   0.45027   0.39716   0.00000  Uiso   1.00
N75    N     0.45027   0.50048   0.39716   0.00000  Uiso   1.00
N76    N     0.54973   0.49952   0.39716   0.00000  Uiso   1.00
C77    C     0.52989   0.57126   0.38617   0.00000  Uiso   1.00
C78    C     0.47011   0.42874   0.38617   0.00000  Uiso   1.00
C79    C     0.42874   0.52989   0.38617   0.00000  Uiso   1.00
C80    C     0.57126   0.47011   0.38617   0.00000  Uiso   1.00
C81    C     0.51949   0.60665   0.36311   0.00000  Uiso   1.00
C82    C     0.48051   0.39335   0.36311   0.00000  Uiso   1.00
C83    C     0.39335   0.51949   0.36311   0.00000  Uiso   1.00
C84    C     0.60665   0.48051   0.36311   0.00000  Uiso   1.00
H85    H     0.53522   0.62924   0.34480   0.00000  Uiso   1.00
H86    H     0.46478   0.37076   0.34480   0.00000  Uiso   1.00
H87    H     0.37076   0.53522   0.34480   0.00000  Uiso   1.00
H88    H     0.62924   0.46478   0.34480   0.00000  Uiso   1.00
C89    C     0.06217   0.06126   0.73057   0.00000  Uiso   1.00
C90    C     0.43783   0.43875   0.41271   0.00000  Uiso   1.00
C91    C     0.93783   0.93874   0.73057   0.00000  Uiso   1.00
C92    C     0.56217   0.56125   0.41271   0.00000  Uiso   1.00
C93    C     0.93874   0.06217   0.73057   0.00000  Uiso   1.00
C94    C     0.56125   0.43783   0.41271   0.00000  Uiso   1.00
C95    C     0.06126   0.93783   0.73057   0.00000  Uiso   1.00
C96    C     0.43875   0.56217   0.41271   0.00000  Uiso   1.00
C97    C     0.08960   0.08759   0.69757   0.00000  Uiso   1.00
C98    C     0.41039   0.41242   0.44572   0.00000  Uiso   1.00
C99    C     0.91040   0.91241   0.69757   0.00000  Uiso   1.00
C100   C     0.58961   0.58758   0.44572   0.00000  Uiso   1.00
C101   C     0.91241   0.08960   0.69757   0.00000  Uiso   1.00
C102   C     0.58758   0.41039   0.44572   0.00000  Uiso   1.00
C103   C     0.08759   0.91040   0.69757   0.00000  Uiso   1.00
C104   C     0.41242   0.58961   0.44572   0.00000  Uiso   1.00
C105   C     0.11697   0.08966   0.88937   0.00000  Uiso   1.00
C106   C     0.11205   0.91265   0.48007   0.00000  Uiso   1.00
C107   C     0.38302   0.41036   0.25394   0.00000  Uiso   1.00
C108   C     0.38796   0.58736   0.66323   0.00000  Uiso   1.00
C109   C     0.88303   0.91034   0.88937   0.00000  Uiso   1.00
C110   C     0.88795   0.08735   0.48007   0.00000  Uiso   1.00
C111   C     0.61698   0.58964   0.25394   0.00000  Uiso   1.00
C112   C     0.61204   0.41264   0.66323   0.00000  Uiso   1.00
C113   C     0.91034   0.11697   0.88937   0.00000  Uiso   1.00
C114   C     0.08735   0.11205   0.48007   0.00000  Uiso   1.00
C115   C     0.58964   0.38302   0.25394   0.00000  Uiso   1.00
C116   C     0.41264   0.38796   0.66323   0.00000  Uiso   1.00
C117   C     0.08966   0.88303   0.88937   0.00000  Uiso   1.00
C118   C     0.91265   0.88795   0.48007   0.00000  Uiso   1.00
C119   C     0.41036   0.61698   0.25394   0.00000  Uiso   1.00
C120   C     0.58736   0.61204   0.66323   0.00000  Uiso   1.00
H121   H     0.11849   0.07234   1.06813   0.00000  Uiso   1.00
H122   H     0.11127   0.93356   0.32963   0.00000  Uiso   1.00
H123   H     0.38151   0.42768   0.07517   0.00000  Uiso   1.00
H124   H     0.38874   0.56645   0.81367   0.00000  Uiso   1.00
H125   H     0.88152   0.92767   1.06813   0.00000  Uiso   1.00
H126   H     0.88873   0.06644   0.32963   0.00000  Uiso   1.00
H127   H     0.61849   0.57232   0.07517   0.00000  Uiso   1.00
H128   H     0.61126   0.43355   0.81367   0.00000  Uiso   1.00
H129   H     0.92767   0.11849   1.06813   0.00000  Uiso   1.00
H130   H     0.06644   0.11127   0.32963   0.00000  Uiso   1.00
H131   H     0.57232   0.38151   0.07517   0.00000  Uiso   1.00
H132   H     0.43355   0.38874   0.81367   0.00000  Uiso   1.00
H133   H     0.07234   0.88152   1.06813   0.00000  Uiso   1.00
H134   H     0.93356   0.88873   0.32963   0.00000  Uiso   1.00
H135   H     0.42768   0.61849   0.07517   0.00000  Uiso   1.00
H136   H     0.56645   0.61126   0.81367   0.00000  Uiso   1.00
C137   C     0.14230   0.11449   0.85624   0.00000  Uiso   1.00
C138   C     0.13801   0.88836   0.45736   0.00000  Uiso   1.00
C139   C     0.35768   0.38553   0.28708   0.00000  Uiso   1.00
C140   C     0.36200   0.61165   0.68596   0.00000  Uiso   1.00
C141   C     0.85770   0.88551   0.85624   0.00000  Uiso   1.00
C142   C     0.86199   0.11164   0.45736   0.00000  Uiso   1.00
C143   C     0.64232   0.61447   0.28708   0.00000  Uiso   1.00
C144   C     0.63800   0.38835   0.68596   0.00000  Uiso   1.00
C145   C     0.88551   0.14230   0.85624   0.00000  Uiso   1.00
C146   C     0.11164   0.13801   0.45736   0.00000  Uiso   1.00
C147   C     0.61447   0.35768   0.28708   0.00000  Uiso   1.00
C148   C     0.38835   0.36200   0.68596   0.00000  Uiso   1.00
C149   C     0.11449   0.85770   0.85624   0.00000  Uiso   1.00
C150   C     0.88836   0.86199   0.45736   0.00000  Uiso   1.00
C151   C     0.38553   0.64232   0.28708   0.00000  Uiso   1.00
C152   C     0.61165   0.63800   0.68596   0.00000  Uiso   1.00
H153   H     0.16290   0.11569   1.00856   0.00000  Uiso   1.00
H154   H     0.15712   0.89069   0.29246   0.00000  Uiso   1.00
H155   H     0.33709   0.38432   0.13476   0.00000  Uiso   1.00
H156   H     0.34289   0.60933   0.85085   0.00000  Uiso   1.00
H157   H     0.83710   0.88431   1.00856   0.00000  Uiso   1.00
H158   H     0.84288   0.10931   0.29246   0.00000  Uiso   1.00
H159   H     0.66291   0.61568   0.13476   0.00000  Uiso   1.00
H160   H     0.65711   0.39067   0.85085   0.00000  Uiso   1.00
H161   H     0.88431   0.16290   1.00856   0.00000  Uiso   1.00
H162   H     0.10931   0.15712   0.29246   0.00000  Uiso   1.00
H163   H     0.61568   0.33709   0.13476   0.00000  Uiso   1.00
H164   H     0.39067   0.34289   0.85085   0.00000  Uiso   1.00
H165   H     0.11569   0.83710   1.00856   0.00000  Uiso   1.00
H166   H     0.89069   0.84288   0.29246   0.00000  Uiso   1.00
H167   H     0.38432   0.66291   0.13476   0.00000  Uiso   1.00
H168   H     0.60933   0.65711   0.85085   0.00000  Uiso   1.00
C169   C     0.13975   0.13880   0.63867   0.00000  Uiso   1.00
C170   C     0.36024   0.36121   0.50465   0.00000  Uiso   1.00
C171   C     0.86025   0.86120   0.63867   0.00000  Uiso   1.00
C172   C     0.63976   0.63879   0.50465   0.00000  Uiso   1.00
C173   C     0.86120   0.13975   0.63867   0.00000  Uiso   1.00
C174   C     0.63879   0.36024   0.50465   0.00000  Uiso   1.00
C175   C     0.13880   0.86025   0.63867   0.00000  Uiso   1.00
C176   C     0.36121   0.63976   0.50465   0.00000  Uiso   1.00
O177   O     0.22242   0.81224   0.25852   0.00000  Uiso   1.00
H178   H     0.25345   0.17153   0.96064   0.00000  Uiso   1.00
O179   O     0.27760   0.68777   0.88480   0.00000  Uiso   1.00
H180   H     0.24653   0.32849   0.18270   0.00000  Uiso   1.00
O181   O     0.77758   0.18776   0.25852   0.00000  Uiso   1.00
H182   H     0.74655   0.82847   0.96064   0.00000  Uiso   1.00
O183   O     0.72240   0.31223   0.88480   0.00000  Uiso   1.00
H184   H     0.75347   0.67152   0.18270   0.00000  Uiso   1.00
O185   O     0.18776   0.22242   0.25852   0.00000  Uiso   1.00
H186   H     0.82847   0.25345   0.96064   0.00000  Uiso   1.00
O187   O     0.31223   0.27760   0.88480   0.00000  Uiso   1.00
H188   H     0.67152   0.24653   0.18270   0.00000  Uiso   1.00
O189   O     0.81224   0.77758   0.25852   0.00000  Uiso   1.00
H190   H     0.17153   0.74655   0.96064   0.00000  Uiso   1.00
O191   O     0.68777   0.72240   0.88480   0.00000  Uiso   1.00
H192   H     0.32849   0.75347   0.18270   0.00000  Uiso   1.00
H193   H     0.70790   0.77976   0.97452   0.00000  Uiso   1.00
H194   H     0.29210   0.22024   0.97452   0.00000  Uiso   1.00
H195   H     0.22024   0.70790   0.97452   0.00000  Uiso   1.00
H196   H     0.77976   0.29210   0.97452   0.00000  Uiso   1.00
N197   N     0.04973   0.99953   0.74611   0.00000  Uiso   1.00
N198   N     0.95027   0.00047   0.74611   0.00000  Uiso   1.00
N199   N     0.00047   0.04973   0.74611   0.00000  Uiso   1.00
N200   N     0.99953   0.95027   0.74611   0.00000  Uiso   1.00
C201   C     0.77041   0.72089   0.31202   0.00000  Uiso   1.00
H202   H     0.79212   0.72022   0.16882   0.00000  Uiso   1.00
N203   N     0.66439   0.66545   0.54005   0.00000  Uiso   1.00
C204   C     0.69650   0.66329   0.47557   0.00000  Uiso   1.00
H205   H     0.70665   0.63985   0.38777   0.00000  Uiso   1.00
C206   C     0.80351   0.83670   0.66776   0.00000  Uiso   1.00
N207   N     0.83562   0.83453   0.60327   0.00000  Uiso   1.00
H208   H     0.79336   0.86014   0.75555   0.00000  Uiso   1.00
H209   H     0.82253   0.80049   0.21036   0.00000  Uiso   1.00
H210   H     0.67749   0.69949   0.93299   0.00000  Uiso   1.00
C211   C     0.22960   0.27911   0.31202   0.00000  Uiso   1.00
H212   H     0.20788   0.27978   0.16882   0.00000  Uiso   1.00
N213   N     0.33561   0.33455   0.54005   0.00000  Uiso   1.00
C214   C     0.30350   0.33671   0.47557   0.00000  Uiso   1.00
H215   H     0.29335   0.36016   0.38777   0.00000  Uiso   1.00
C216   C     0.19649   0.16330   0.66776   0.00000  Uiso   1.00
N217   N     0.16438   0.16547   0.60327   0.00000  Uiso   1.00
H218   H     0.20664   0.13986   0.75555   0.00000  Uiso   1.00
H219   H     0.17747   0.19951   0.21036   0.00000  Uiso   1.00
H220   H     0.32251   0.30051   0.93299   0.00000  Uiso   1.00
C221   C     0.27911   0.77041   0.31202   0.00000  Uiso   1.00
H222   H     0.27978   0.79212   0.16882   0.00000  Uiso   1.00
N223   N     0.33455   0.66439   0.54005   0.00000  Uiso   1.00
C224   C     0.33671   0.69650   0.47557   0.00000  Uiso   1.00
H225   H     0.36016   0.70665   0.38777   0.00000  Uiso   1.00
C226   C     0.16330   0.80351   0.66776   0.00000  Uiso   1.00
N227   N     0.16547   0.83562   0.60327   0.00000  Uiso   1.00
H228   H     0.13986   0.79336   0.75555   0.00000  Uiso   1.00
H229   H     0.19951   0.82253   0.21036   0.00000  Uiso   1.00
H230   H     0.30051   0.67749   0.93299   0.00000  Uiso   1.00
C231   C     0.72089   0.22960   0.31202   0.00000  Uiso   1.00
H232   H     0.72022   0.20788   0.16882   0.00000  Uiso   1.00
N233   N     0.66545   0.33561   0.54005   0.00000  Uiso   1.00
C234   C     0.66329   0.30350   0.47557   0.00000  Uiso   1.00
H235   H     0.63985   0.29335   0.38777   0.00000  Uiso   1.00
C236   C     0.83670   0.19649   0.66776   0.00000  Uiso   1.00
N237   N     0.83453   0.16438   0.60327   0.00000  Uiso   1.00
H238   H     0.86014   0.20664   0.75555   0.00000  Uiso   1.00
H239   H     0.80049   0.17747   0.21036   0.00000  Uiso   1.00
H240   H     0.69949   0.32251   0.93299   0.00000  Uiso   1.00
Cu241  Cu    0.00000   0.00000   0.63742   0.00000  Uiso   1.00
Cu242  Cu    0.50000   0.50000   0.50586   0.00000  Uiso   1.00
loop_
_geom_bond_atom_site_label_1
_geom_bond_atom_site_label_2
_geom_bond_distance
_geom_bond_site_symmetry_2
_ccdc_geom_bond_type
C1     C7      1.414   .     D
C1     C21     1.415   .     S
C1     C28     1.403   .     S
C2     C11     1.414   .     S
C2     C23     1.415   .     S
C2     C26     1.403   .     D
C3     C15     1.414   .     S
C3     C22     1.403   .     D
C3     C25     1.415   .     S
C4     C19     1.414   .     S
C4     C24     1.403   .     D
C4     C27     1.415   .     S
C5     C21     1.414   .     S
C5     C29     1.426   .     D
C5     O177    1.405   .     S
C6     C22     1.393   .     S
C6     C33     1.404   .     D
C6     H178    1.084   .     S
C7     C30     1.426   .     S
C7     O179    1.405   .     S
C8     C34     1.404   .     S
C8     H180    1.084   .     S
C8     C211    1.393   .     D
C9     C23     1.414   .     D
C9     C31     1.426   .     S
C9     O181    1.405   .     S
C10    C24     1.393   .     S
C10    C35     1.404   .     D
C10    H182    1.084   .     S
C11    C32     1.426   .     D
C11    O183    1.405   .     S
C12    C36     1.404   .     S
C12    H184    1.084   .     S
C12    C201    1.393   .     D
C13    C25     1.414   .     D
C13    C33     1.426   .     S
C13    O185    1.405   .     S
C14    C26     1.393   .     S
C14    C31     1.404   .     D
C14    H186    1.084   .     S
C15    C34     1.426   .     D
C15    O187    1.405   .     S
C16    C32     1.404   .     S
C16    H188    1.084   .     S
C16    C231    1.393   .     D
C17    C27     1.414   .     D
C17    C35     1.426   .     S
C17    O189    1.405   .     S
C18    C28     1.393   .     D
C18    C29     1.404   .     S
C18    H190    1.084   .     S
C19    C36     1.426   .     D
C19    O191    1.405   .     S
C20    C30     1.404   .     D
C20    H192    1.084   .     S
C20    C221    1.393   .     S
C21    C221    1.403   .     D
C22    H194    1.086   .     S
C23    C231    1.403   .     S
C24    H193    1.086   .     S
C25    C211    1.403   .     S
C26    H196    1.086   .     S
C27    C201    1.403   .     S
C28    H195    1.086   .     S
C29    C226    1.483   .     S
C30    C224    1.483   .     S
C31    C236    1.483   .     S
C32    C234    1.483   .     S
C33    C216    1.483   .     S
C34    C214    1.483   .     S
C35    C206    1.483   .     S
C36    C204    1.483   .     S
C37    C49     1.464   .     S
C37    C89     1.468   .     S
C37    N197    1.306   1_545 D
C38    C50     1.450   .     S
C38    C95     1.331   .     D
C38    N197    1.430   .     S
C39    C51     1.464   .     S
C39    N75     1.306   .     S
C39    C90     1.468   .     D
C40    C52     1.464   .     S
C40    C91     1.468   .     S
C40    N198    1.306   1_565 D
C41    C53     1.450   .     S
C41    C93     1.331   .     D
C41    N198    1.430   .     S
C42    C54     1.464   .     S
C42    N76     1.306   .     S
C42    C92     1.468   .     D
C43    C55     1.464   .     S
C43    C93     1.468   .     S
C43    N199    1.306   1_655 D
C44    C56     1.450   .     S
C44    C89     1.331   .     D
C44    N199    1.430   .     S
C45    C57     1.464   .     S
C45    N74     1.306   .     S
C45    C94     1.468   .     D
C46    C58     1.464   .     S
C46    C95     1.468   .     S
C46    N200    1.306   1_455 D
C47    C59     1.450   .     S
C47    C91     1.331   .     D
C47    N200    1.430   .     S
C48    C60     1.464   .     S
C48    N73     1.306   .     S
C48    C96     1.468   .     D
C49    C50     1.297   1_545 D
C49    H61     1.079   .     S
C50    C49     1.297   1_565 D
C50    H62     1.083   .     S
C51    H63     1.079   .     S
C51    C83     1.297   .     D
C52    C53     1.297   1_565 D
C52    H64     1.079   .     S
C53    C52     1.297   1_545 D
C53    H65     1.083   .     S
C54    H66     1.079   .     S
C54    C84     1.297   .     D
C55    C56     1.297   1_655 D
C55    H67     1.079   .     S
C56    C55     1.297   1_455 D
C56    H68     1.083   .     S
C57    H69     1.079   .     S
C57    C82     1.297   .     D
C58    C59     1.297   1_455 D
C58    H70     1.079   .     S
C59    C58     1.297   1_655 D
C59    H71     1.083   .     S
C60    H72     1.079   .     S
C60    C81     1.297   .     D
N73    C77     1.430   .     D
N73    Cu242   2.016   .     S
N74    C78     1.430   .     D
N74    Cu242   2.016   .     S
N75    C79     1.430   .     D
N75    Cu242   2.016   .     S
N76    C80     1.430   .     D
N76    Cu242   2.016   .     S
C77    C81     1.450   .     S
C77    C92     1.331   .     S
C78    C82     1.450   .     S
C78    C90     1.331   .     S
C79    C83     1.450   .     S
C79    C96     1.331   .     S
C80    C84     1.450   .     S
C80    C94     1.331   .     S
C81    H85     1.083   .     S
C82    H86     1.083   .     S
C83    H87     1.083   .     S
C84    H88     1.083   .     S
C89    C97     1.499   .     S
C90    C98     1.499   .     S
C91    C99     1.499   .     S
C92    C100    1.499   .     S
C93    C101    1.499   .     S
C94    C102    1.499   .     S
C95    C103    1.499   .     S
C96    C104    1.499   .     S
C97    C105    1.405   .     D
C97    C114    1.406   .     S
C98    C107    1.405   .     D
C98    C116    1.406   .     S
C99    C109    1.405   .     D
C99    C118    1.406   .     S
C100   C111    1.405   .     D
C100   C120    1.406   .     S
C101   C110    1.406   .     S
C101   C113    1.405   .     D
C102   C112    1.406   .     S
C102   C115    1.405   .     D
C103   C106    1.406   .     S
C103   C117    1.405   .     D
C104   C108    1.406   .     D
C104   C119    1.405   .     S
C105   H121    1.083   .     S
C105   C137    1.400   .     S
C106   H122    1.084   .     S
C106   C138    1.398   .     D
C107   H123    1.083   .     S
C107   C139    1.400   .     S
C108   H124    1.084   .     S
C108   C140    1.398   .     S
C109   H125    1.083   .     S
C109   C141    1.400   .     S
C110   H126    1.084   .     S
C110   C142    1.398   .     D
C111   H127    1.083   .     S
C111   C143    1.400   .     S
C112   H128    1.084   .     S
C112   C144    1.398   .     D
C113   H129    1.083   .     S
C113   C145    1.400   .     S
C114   H130    1.084   .     S
C114   C146    1.398   .     D
C115   H131    1.083   .     S
C115   C147    1.400   .     S
C116   H132    1.084   .     S
C116   C148    1.398   .     D
C117   H133    1.083   .     S
C117   C149    1.400   .     S
C118   H134    1.084   .     S
C118   C150    1.398   .     D
C119   H135    1.083   .     S
C119   C151    1.400   .     D
C120   H136    1.084   .     S
C120   C152    1.398   .     D
C137   H153    1.081   .     S
C137   C169    1.403   .     D
C138   H154    1.083   .     S
C138   C175    1.395   .     S
C139   H155    1.081   .     S
C139   C170    1.403   .     D
C140   H156    1.083   .     S
C140   C176    1.395   .     D
C141   H157    1.081   .     S
C141   C171    1.403   .     D
C142   H158    1.083   .     S
C142   C173    1.395   .     S
C143   H159    1.081   .     S
C143   C172    1.403   .     D
C144   H160    1.083   .     S
C144   C174    1.395   .     S
C145   H161    1.081   .     S
C145   C173    1.403   .     D
C146   H162    1.083   .     S
C146   C169    1.395   .     S
C147   H163    1.081   .     S
C147   C174    1.403   .     D
C148   H164    1.083   .     S
C148   C170    1.395   .     S
C149   H165    1.081   .     S
C149   C175    1.403   .     D
C150   H166    1.083   .     S
C150   C171    1.395   .     S
C151   H167    1.081   .     S
C151   C176    1.403   .     S
C152   H168    1.083   .     S
C152   C172    1.395   .     S
C169   N217    1.433   .     S
C170   N213    1.433   .     S
C171   N207    1.433   .     S
C172   N203    1.433   .     S
C173   N237    1.433   .     S
C174   N233    1.433   .     S
C175   N227    1.433   .     S
C176   N223    1.433   .     S
O177   H229    1.010   .     S
O179   H230    1.010   .     S
O181   H239    1.010   .     S
O183   H240    1.010   .     S
O185   H219    1.010   .     S
O187   H220    1.010   .     S
O189   H209    1.010   .     S
O191   H210    1.010   .     S
N197   C37     1.306   1_565 D
N197   Cu241   2.016   1_565 S
N198   C40     1.306   1_545 D
N198   Cu241   2.016   1_655 S
N199   C43     1.306   1_455 D
N199   Cu241   2.016   .     S
N200   C46     1.306   1_655 D
N200   Cu241   2.016   1_665 S
C201   H202    1.086   .     S
N203   C204    1.298   .     D
C204   H205    1.084   .     S
C206   N207    1.298   .     D
C206   H208    1.084   .     S
C211   H212    1.086   .     S
N213   C214    1.298   .     D
C214   H215    1.084   .     S
C216   N217    1.298   .     D
C216   H218    1.084   .     S
C221   H222    1.086   .     S
N223   C224    1.298   .     D
C224   H225    1.084   .     S
C226   N227    1.298   .     D
C226   H228    1.084   .     S
C231   H232    1.086   .     S
N233   C234    1.298   .     D
C234   H235    1.084   .     S
C236   N237    1.298   .     D
C236   H238    1.084   .     S
Cu241  N198    2.016   1_455 S
Cu241  N197    2.016   1_545 S
Cu241  N200    2.016   1_445 S
