data_193
_audit_creation_date              2023-09-08
_audit_creation_method            'Materials Studio'
_symmetry_space_group_name_H-M    'P1'
_symmetry_Int_Tables_number       1
_symmetry_cell_setting            triclinic
loop_
_symmetry_equiv_pos_as_xyz
  x,y,z
_cell_length_a                    25.4000
_cell_length_b                    25.4000
_cell_length_c                    7.9400
_cell_angle_alpha                 90.0000
_cell_angle_beta                  90.0000
_cell_angle_gamma                 90.0000
loop_
_atom_site_label
_atom_site_type_symbol
_atom_site_fract_x
_atom_site_fract_y
_atom_site_fract_z
_atom_site_U_iso_or_equiv
_atom_site_adp_type
_atom_site_occupancy
Cu1    Cu    0.34219   0.68193   0.52307   0.00000  Uiso   1.00
Cu2    Cu    0.29722   0.70816  -0.04879   0.00000  Uiso   1.00
N3     N     0.31995   0.03727   0.36554   0.00000  Uiso   1.00
N4     N     0.36086   0.32620   0.52947   0.00000  Uiso   1.00
N5     N     0.39444   0.63600   0.63789   0.00000  Uiso   1.00
N6     N     0.28845   0.62451   0.53449   0.00000  Uiso   1.00
N7     N     0.39372   0.74139   0.52051   0.00000  Uiso   1.00
N8     N     0.29136   0.72647   0.39845   0.00000  Uiso   1.00
N9     N     0.69978   0.69734   0.56929   0.00000  Uiso   1.00
N10    N     0.98498   0.66619   0.34845   0.00000  Uiso   1.00
N11    N     0.27862   0.06383  -0.05619   0.00000  Uiso   1.00
N12    N     0.31956   0.35276   0.10772   0.00000  Uiso   1.00
N13    N     0.34808   0.66362   0.07578   0.00000  Uiso   1.00
N14    N     0.24569   0.64870  -0.04610   0.00000  Uiso   1.00
N15    N     0.35095   0.76558  -0.06028   0.00000  Uiso   1.00
N16    N     0.24494   0.75406  -0.16359   0.00000  Uiso   1.00
N17    N     0.65436   0.72411   0.12656   0.00000  Uiso   1.00
N18    N     0.93954   0.69292  -0.09439   0.00000  Uiso   1.00
C19    C     0.33310  -0.13014   0.34289   0.00000  Uiso   1.00
C20    C     0.37214  -0.09893   0.26600   0.00000  Uiso   1.00
C21    C     0.28668  -0.10490   0.39637   0.00000  Uiso   1.00
C22    C     0.36791  -0.04361   0.26427   0.00000  Uiso   1.00
C23    C     0.28169  -0.05006   0.38939   0.00000  Uiso   1.00
C24    C     0.32330  -0.01864   0.33358   0.00000  Uiso   1.00
C25    C     0.35518   0.07337   0.33529   0.00000  Uiso   1.00
C26    C     0.34700   0.12881   0.39085   0.00000  Uiso   1.00
C27    C     0.30234   0.14373   0.48414   0.00000  Uiso   1.00
C28    C     0.38512   0.16728   0.35417   0.00000  Uiso   1.00
C29    C     0.29600   0.19589   0.53920   0.00000  Uiso   1.00
C30    C     0.37876   0.21946   0.40929   0.00000  Uiso   1.00
C31    C     0.33419   0.23433   0.50293   0.00000  Uiso   1.00
C32    C     0.32640   0.28947   0.56188   0.00000  Uiso   1.00
C33    C     0.35751   0.38134   0.57345   0.00000  Uiso   1.00
C34    C     0.32068   0.40163   0.68870   0.00000  Uiso   1.00
C35    C     0.39284   0.41628   0.49789   0.00000  Uiso   1.00
C36    C     0.31798   0.45607   0.72010   0.00000  Uiso   1.00
C37    C     0.38988   0.47061   0.52820   0.00000  Uiso   1.00
C38    C     0.35127   0.49187   0.63627   0.00000  Uiso   1.00
C39    C     0.34430   0.55116   0.64949   0.00000  Uiso   1.00
C40    C     0.38869   0.58249   0.67643   0.00000  Uiso   1.00
C41    C     0.29571   0.57348   0.59516   0.00000  Uiso   1.00
C42    C     0.43747   0.56226   0.74331   0.00000  Uiso   1.00
C43    C     0.24727   0.54541   0.59063   0.00000  Uiso   1.00
C44    C     0.44749   0.64768   0.66857   0.00000  Uiso   1.00
C45    C     0.47342   0.60209   0.73839   0.00000  Uiso   1.00
C46    C     0.23538   0.62738   0.48801   0.00000  Uiso   1.00
C47    C     0.20938   0.57955   0.53020   0.00000  Uiso   1.00
C48    C     0.47358   0.69477   0.63303   0.00000  Uiso   1.00
C49    C     0.21162   0.66859   0.39398   0.00000  Uiso   1.00
C50    C     0.44582   0.74010   0.57590   0.00000  Uiso   1.00
C51    C     0.38480   0.79336   0.46936   0.00000  Uiso   1.00
C52    C     0.29948   0.77731   0.33648   0.00000  Uiso   1.00
C53    C     0.24119   0.71210   0.34265   0.00000  Uiso   1.00
C54    C     0.53245   0.69430   0.62383   0.00000  Uiso   1.00
C55    C     0.46860   0.79115   0.56330   0.00000  Uiso   1.00
C56    C     0.43005   0.82464   0.50340   0.00000  Uiso   1.00
C57    C     0.34034   0.81175   0.37831   0.00000  Uiso   1.00
C58    C     0.25684   0.79186   0.22677   0.00000  Uiso   1.00
C59    C     0.22107   0.75160   0.22973   0.00000  Uiso   1.00
C60    C     0.56373   0.72908   0.71775   0.00000  Uiso   1.00
C61    C     0.55748   0.65897   0.51367   0.00000  Uiso   1.00
C62    C     0.61857   0.72966   0.69709   0.00000  Uiso   1.00
C63    C     0.61215   0.65877   0.49577   0.00000  Uiso   1.00
C64    C     0.64337   0.69461   0.58653   0.00000  Uiso   1.00
C65    C     0.72943   0.66653   0.47855   0.00000  Uiso   1.00
C66    C     0.78697   0.67461   0.46825   0.00000  Uiso   1.00
C67    C     0.81795   0.63930   0.37476   0.00000  Uiso   1.00
C68    C     0.81136   0.71753   0.54761   0.00000  Uiso   1.00
C69    C     0.87243   0.64666   0.36142   0.00000  Uiso   1.00
C70    C     0.86582   0.72470   0.53513   0.00000  Uiso   1.00
C71    C     0.89680   0.68941   0.44184   0.00000  Uiso   1.00
C72    C     0.95431   0.69753   0.43386   0.00000  Uiso   1.00
C73    C     1.04157   0.66978   0.34149   0.00000  Uiso   1.00
C74    C     1.06900   0.71475   0.39521   0.00000  Uiso   1.00
C75    C     1.07053   0.62646   0.28372   0.00000  Uiso   1.00
C76    C     1.12372   0.71395   0.40749   0.00000  Uiso   1.00
C77    C     1.12579   0.62624   0.29300   0.00000  Uiso   1.00
C78    C     1.15301   0.66910   0.36373   0.00000  Uiso   1.00
C79    C     0.28817  -0.10186  -0.16296   0.00000  Uiso   1.00
C80    C     0.32146  -0.06607  -0.24682   0.00000  Uiso   1.00
C81    C     0.24960  -0.08059  -0.05477   0.00000  Uiso   1.00
C82    C     0.31877  -0.01162  -0.21544   0.00000  Uiso   1.00
C83    C     0.24664  -0.02626  -0.02449   0.00000  Uiso   1.00
C84    C     0.28195   0.00868  -0.10015   0.00000  Uiso   1.00
C85    C     0.31307   0.10056  -0.08867   0.00000  Uiso   1.00
C86    C     0.30529   0.15570  -0.02973   0.00000  Uiso   1.00
C87    C     0.26072   0.17057   0.06394   0.00000  Uiso   1.00
C88    C     0.34348   0.19414  -0.06603   0.00000  Uiso   1.00
C89    C     0.25438   0.22275   0.11906   0.00000  Uiso   1.00
C90    C     0.33715   0.24629  -0.01096   0.00000  Uiso   1.00
C91    C     0.29250   0.26122   0.08236   0.00000  Uiso   1.00
C92    C     0.28433   0.31665   0.13795   0.00000  Uiso   1.00
C93    C     0.31623   0.40866   0.13975   0.00000  Uiso   1.00
C94    C     0.27164   0.43362   0.20928   0.00000  Uiso   1.00
C95    C     0.35782   0.44009   0.08386   0.00000  Uiso   1.00
C96    C     0.26741   0.48895   0.20766   0.00000  Uiso   1.00
C97    C     0.35283   0.49493   0.07700   0.00000  Uiso   1.00
C98    C     0.30642   0.52017   0.13064   0.00000  Uiso   1.00
C99    C     0.29918   0.57828   0.09534   0.00000  Uiso   1.00
C100   C     0.34001   0.61273   0.13734   0.00000  Uiso   1.00
C101   C     0.25467   0.59669   0.00463   0.00000  Uiso   1.00
C102   C     0.38263   0.59817   0.24714   0.00000  Uiso   1.00
C103   C     0.20940   0.56543  -0.02922   0.00000  Uiso   1.00
C104   C     0.39818   0.67806   0.13200   0.00000  Uiso   1.00
C105   C     0.41830   0.63852   0.24484   0.00000  Uiso   1.00
C106   C     0.19354   0.65001  -0.10098   0.00000  Uiso   1.00
C107   C     0.17078   0.59895  -0.08852   0.00000  Uiso   1.00
C108   C     0.42772   0.72162   0.08097   0.00000  Uiso   1.00
C109   C     0.16574   0.69538  -0.15759   0.00000  Uiso   1.00
C110   C     0.40399   0.76278  -0.01333   0.00000  Uiso   1.00
C111   C     0.34370   0.81657  -0.12139   0.00000  Uiso   1.00
C112   C     0.25073   0.80753  -0.20272   0.00000  Uiso   1.00
C113   C     0.19184   0.74243  -0.19350   0.00000  Uiso   1.00
C114   C     0.48633   0.72113   0.11133   0.00000  Uiso   1.00
C115   C     0.42998   0.81061  -0.05563   0.00000  Uiso   1.00
C116   C     0.39211   0.84468  -0.11666   0.00000  Uiso   1.00
C117   C     0.29514   0.83885  -0.17612   0.00000  Uiso   1.00
C118   C     0.20191   0.82776  -0.26932   0.00000  Uiso   1.00
C119   C     0.16589   0.78801  -0.26337   0.00000  Uiso   1.00
C120   C     0.51354   0.76401   0.18195   0.00000  Uiso   1.00
C121   C     0.51564   0.67629   0.06764   0.00000  Uiso   1.00
C122   C     0.56879   0.76382   0.19128   0.00000  Uiso   1.00
C123   C     0.57037   0.67550   0.08001   0.00000  Uiso   1.00
C124   C     0.59777   0.72049   0.13364   0.00000  Uiso   1.00
C125   C     0.68502   0.69278   0.04107   0.00000  Uiso   1.00
C126   C     0.74252   0.70094   0.03291   0.00000  Uiso   1.00
C127   C     0.77350   0.66562  -0.06029   0.00000  Uiso   1.00
C128   C     0.76689   0.74373   0.11307   0.00000  Uiso   1.00
C129   C     0.82795   0.67280  -0.07289   0.00000  Uiso   1.00
C130   C     0.82136   0.75111   0.09960   0.00000  Uiso   1.00
C131   C     0.85234   0.71577   0.00624   0.00000  Uiso   1.00
C132   C     0.90987   0.72385  -0.00414   0.00000  Uiso   1.00
C133   C     0.99595   0.69562  -0.11150   0.00000  Uiso   1.00
C134   C     1.02716   0.73142  -0.02058   0.00000  Uiso   1.00
C135   C     1.02076   0.66056  -0.22201   0.00000  Uiso   1.00
C136   C     1.08184   0.73119  -0.03831   0.00000  Uiso   1.00
C137   C     1.07560   0.66110  -0.24249   0.00000  Uiso   1.00
C138   C     1.10688   0.69585  -0.14841   0.00000  Uiso   1.00
H139   H     0.40712  -0.11718   0.21473   0.00000  Uiso   1.00
H140   H     0.25537  -0.12743   0.45370   0.00000  Uiso   1.00
H141   H     0.40008  -0.02093   0.21320   0.00000  Uiso   1.00
H142   H     0.24696  -0.03145   0.44124   0.00000  Uiso   1.00
H143   H     0.39194   0.06350   0.27454   0.00000  Uiso   1.00
H144   H     0.29033   0.29863   0.62798   0.00000  Uiso   1.00
H145   H     0.29443   0.37581   0.75660   0.00000  Uiso   1.00
H146   H     0.42194   0.40116   0.41094   0.00000  Uiso   1.00
H147   H     0.28982   0.47012   0.81174   0.00000  Uiso   1.00
H148   H     0.41770   0.49588   0.46481   0.00000  Uiso   1.00
H149   H     0.44560   0.52259   0.78584   0.00000  Uiso   1.00
H150   H     0.23808   0.50573   0.62701   0.00000  Uiso   1.00
H151   H     0.51437   0.59828   0.77414   0.00000  Uiso   1.00
H152   H     0.16813   0.56982   0.52180   0.00000  Uiso   1.00
H153   H     0.50771   0.80394   0.59639   0.00000  Uiso   1.00
H154   H     0.43526   0.86657   0.48970   0.00000  Uiso   1.00
H155   H     0.25228   0.82802   0.15782   0.00000  Uiso   1.00
H156   H     0.18415   0.75165   0.16262   0.00000  Uiso   1.00
H157   H     0.54575   0.75568   0.80737   0.00000  Uiso   1.00
H158   H     0.53465   0.63151   0.43975   0.00000  Uiso   1.00
H159   H     0.64222   0.75721   0.76840   0.00000  Uiso   1.00
H160   H     0.62903   0.63142   0.40724   0.00000  Uiso   1.00
H161   H     0.71296   0.63434   0.40723   0.00000  Uiso   1.00
H162   H     1.04871   0.75037   0.43056   0.00000  Uiso   1.00
H163   H     1.04992   0.59236   0.23566   0.00000  Uiso   1.00
H164   H     1.14348   0.74879   0.45106   0.00000  Uiso   1.00
H165   H     1.14708   0.59207   0.24916   0.00000  Uiso   1.00
H166   H     0.97041   0.72891   0.51002   0.00000  Uiso   1.00
H167   H     0.34963  -0.08012  -0.33842   0.00000  Uiso   1.00
H168   H     0.22181  -0.10586   0.00875   0.00000  Uiso   1.00
H169   H     0.34502   0.01419  -0.28337   0.00000  Uiso   1.00
H170   H     0.21756  -0.01113   0.06253   0.00000  Uiso   1.00
H171   H     0.34913   0.09139  -0.15484   0.00000  Uiso   1.00
H172   H     0.24757   0.32653   0.19872   0.00000  Uiso   1.00
H173   H     0.23950   0.41094   0.26048   0.00000  Uiso   1.00
H174   H     0.39253   0.42149   0.03188   0.00000  Uiso   1.00
H175   H     0.23247   0.50719   0.25916   0.00000  Uiso   1.00
H176   H     0.38413   0.51748   0.01971   0.00000  Uiso   1.00
H177   H     0.38722   0.56197   0.31583   0.00000  Uiso   1.00
H178   H     0.20420   0.52349  -0.01574   0.00000  Uiso   1.00
H179   H     0.45517   0.63851   0.31224   0.00000  Uiso   1.00
H180   H     0.13164   0.58619  -0.12129   0.00000  Uiso   1.00
H181   H     0.47122   0.82038  -0.04699   0.00000  Uiso   1.00
H182   H     0.40132   0.88433  -0.15334   0.00000  Uiso   1.00
H183   H     0.19381   0.86739  -0.31225   0.00000  Uiso   1.00
H184   H     0.12490   0.79185  -0.29873   0.00000  Uiso   1.00
H185   H     0.49224   0.79821   0.22561   0.00000  Uiso   1.00
H186   H     0.49591   0.64144   0.02397   0.00000  Uiso   1.00
H187   H     0.58939   0.79794   0.23923   0.00000  Uiso   1.00
H188   H     0.59067   0.63988   0.04472   0.00000  Uiso   1.00
H189   H     0.66892   0.66139  -0.03503   0.00000  Uiso   1.00
H190   H     1.01028   0.75875   0.06800   0.00000  Uiso   1.00
H191   H     0.99711   0.63304  -0.29345   0.00000  Uiso   1.00
H192   H     1.10466   0.75863   0.03567   0.00000  Uiso   1.00
H193   H     1.09359   0.63451  -0.33213   0.00000  Uiso   1.00
H194   H     0.92633   0.75615   0.06672   0.00000  Uiso   1.00
H195   H     0.74369   0.77112   0.18676   0.00000  Uiso   1.00
H196   H     0.78823   0.74512   0.62080   0.00000  Uiso   1.00
H197   H     0.83943   0.78413   0.16366   0.00000  Uiso   1.00
H198   H     0.88387   0.75762   0.59986   0.00000  Uiso   1.00
H199   H     0.75545   0.63267  -0.12484   0.00000  Uiso   1.00
H200   H     0.79988   0.60632   0.31051   0.00000  Uiso   1.00
H201   H     0.85108   0.64519  -0.14598   0.00000  Uiso   1.00
H202   H     0.89562   0.61931   0.28763   0.00000  Uiso   1.00
H203   H     0.21972   0.23304   0.19130   0.00000  Uiso   1.00
H204   H     0.26134   0.20615   0.61159   0.00000  Uiso   1.00
H205   H     0.36694   0.27522  -0.04217   0.00000  Uiso   1.00
H206   H     0.40843   0.24845   0.37786   0.00000  Uiso   1.00
H207   H     0.37813   0.18386  -0.13844   0.00000  Uiso   1.00
H208   H     0.41978   0.15699   0.28195   0.00000  Uiso   1.00
H209   H     0.23105   0.14158   0.09538   0.00000  Uiso   1.00
H210   H     0.27256   0.11480   0.51533   0.00000  Uiso   1.00
loop_
_geom_bond_atom_site_label_1
_geom_bond_atom_site_label_2
_geom_bond_distance
_geom_bond_site_symmetry_2
_ccdc_geom_bond_type
Cu1    N5      1.988   .     S
Cu1    N6      2.000   .     S
Cu1    N7      1.999   .     S
Cu1    N8      1.981   .     S
Cu2    N13     1.982   .     S
Cu2    N14     1.999   .     S
Cu2    N15     1.999   .     S
Cu2    N16     1.988   .     S
N3     C24     1.445   .     S
N3     C25     1.304   .     D
N4     C32     1.305   .     D
N4     C33     1.446   .     S
N5     C40     1.401   .     D
N5     C44     1.401   .     S
N6     C41     1.395   .     S
N6     C46     1.399   .     D
N7     C50     1.395   .     D
N7     C51     1.400   .     S
N8     C52     1.397   .     D
N8     C53     1.398   .     S
N9     C64     1.441   .     S
N9     C65     1.303   .     D
N10    C72     1.304   .     D
N10    C73     1.441   .     S
N11    C84     1.446   .     S
N11    C85     1.305   .     D
N12    C92     1.304   .     D
N12    C93     1.445   .     S
N13    C100    1.397   .     D
N13    C104    1.398   .     S
N14    C101    1.400   .     S
N14    C106    1.395   .     D
N15    C110    1.400   .     D
N15    C111    1.395   .     S
N16    C112    1.401   .     D
N16    C113    1.401   .     S
N17    C124    1.441   .     S
N17    C125    1.304   .     D
N18    C132    1.303   .     D
N18    C133    1.441   .     S
C19    C20     1.409   .     D
C19    C21     1.408   .     S
C19    C57     1.514   1_545 S
C20    C22     1.409   .     S
C20    H139    1.082   .     S
C21    C23     1.400   .     D
C21    H140    1.080   .     S
C22    C24     1.410   .     D
C22    H141    1.079   .     S
C23    C24     1.397   .     S
C23    H142    1.082   .     S
C25    C26     1.490   .     S
C25    H143    1.080   .     S
C26    C27     1.407   .     D
C26    C28     1.406   .     S
C27    C29     1.404   .     S
C27    H210    1.083   .     S
C28    C30     1.405   .     D
C28    H208    1.083   .     S
C29    C31     1.406   .     D
C29    H204    1.083   .     S
C30    C31     1.406   .     S
C30    H206    1.083   .     S
C31    C32     1.490   .     S
C32    H144    1.081   .     S
C33    C34     1.406   .     D
C33    C35     1.397   .     S
C34    C36     1.407   .     S
C34    H145    1.080   .     S
C35    C37     1.403   .     D
C35    H146    1.082   .     S
C36    C38     1.409   .     D
C36    H147    1.081   .     S
C37    C38     1.411   .     S
C37    H148    1.079   .     S
C38    C39     1.520   .     S
C39    C40     1.397   .     S
C39    C41     1.425   .     D
C40    C42     1.443   .     S
C41    C43     1.422   .     S
C42    C45     1.363   .     D
C42    H149    1.083   .     S
C43    C47     1.381   .     D
C43    H150    1.074   .     S
C44    C45     1.443   .     S
C44    C48     1.396   .     D
C45    H151    1.083   .     S
C46    C47     1.423   .     S
C46    C49     1.420   .     S
C47    H152    1.079   .     S
C48    C50     1.424   .     S
C48    C54     1.497   .     S
C49    C53     1.397   .     D
C49    C78     1.508   1_455 S
C50    C55     1.423   .     S
C51    C56     1.423   .     S
C51    C57     1.420   .     D
C52    C57     1.397   .     S
C52    C58     1.438   .     S
C53    C59     1.439   .     S
C54    C60     1.403   .     D
C54    C61     1.405   .     S
C55    C56     1.382   .     D
C55    H153    1.078   .     S
C56    H154    1.079   .     S
C57    C19     1.514   1_565 S
C58    C59     1.368   .     D
C58    H155    1.076   .     S
C59    H156    1.079   .     S
C60    C62     1.403   .     S
C60    H157    1.082   .     S
C61    C63     1.396   .     D
C61    H158    1.080   .     S
C62    C64     1.400   .     D
C62    H159    1.082   .     S
C63    C64     1.406   .     S
C63    H160    1.077   .     S
C65    C66     1.478   .     S
C65    H161    1.079   .     S
C66    C67     1.405   .     S
C66    C68     1.403   .     D
C67    C69     1.400   .     D
C67    H200    1.083   .     S
C68    C70     1.399   .     S
C68    H196    1.083   .     S
C69    C71     1.404   .     S
C69    H202    1.083   .     S
C70    C71     1.404   .     D
C70    H198    1.083   .     S
C71    C72     1.477   .     S
C72    H166    1.081   .     S
C73    C74     1.404   .     D
C73    C75     1.401   .     S
C74    C76     1.393   .     S
C74    H162    1.078   .     S
C75    C77     1.406   .     D
C75    H163    1.082   .     S
C76    C78     1.404   .     D
C76    H164    1.075   .     S
C77    C78     1.407   .     S
C77    H165    1.080   .     S
C78    C49     1.508   1_655 S
C79    C80     1.409   .     D
C79    C81     1.411   .     S
C79    C117    1.520   1_545 S
C80    C82     1.407   .     S
C80    H167    1.081   .     S
C81    C83     1.403   .     D
C81    H168    1.079   .     S
C82    C84     1.407   .     D
C82    H169    1.079   .     S
C83    C84     1.397   .     S
C83    H170    1.082   .     S
C85    C86     1.490   .     S
C85    H171    1.081   .     S
C86    C87     1.406   .     D
C86    C88     1.406   .     S
C87    C89     1.405   .     S
C87    H209    1.083   .     S
C88    C90     1.404   .     D
C88    H207    1.083   .     S
C89    C91     1.406   .     D
C89    H203    1.083   .     S
C90    C91     1.407   .     S
C90    H205    1.083   .     S
C91    C92     1.490   .     S
C92    H172    1.081   .     S
C93    C94     1.410   .     D
C93    C95     1.396   .     S
C94    C96     1.410   .     S
C94    H173    1.079   .     S
C95    C97     1.400   .     D
C95    H174    1.082   .     S
C96    C98     1.409   .     D
C96    H175    1.081   .     S
C97    C98     1.408   .     S
C97    H176    1.080   .     S
C98    C99     1.514   .     S
C99    C100    1.397   .     S
C99    C101    1.420   .     D
C100   C102    1.438   .     S
C101   C103    1.423   .     S
C102   C105    1.368   .     D
C102   H177    1.075   .     S
C103   C107    1.382   .     D
C103   H178    1.079   .     S
C104   C105    1.440   .     S
C104   C108    1.397   .     D
C105   H179    1.079   .     S
C106   C107    1.423   .     S
C106   C109    1.424   .     S
C107   H180    1.078   .     S
C108   C110    1.420   .     S
C108   C114    1.508   .     S
C109   C113    1.396   .     D
C109   C138    1.497   1_455 S
C110   C115    1.423   .     S
C111   C116    1.422   .     S
C111   C117    1.425   .     D
C112   C117    1.396   .     S
C112   C118    1.443   .     S
C113   C119    1.443   .     S
C114   C120    1.407   .     D
C114   C121    1.404   .     S
C115   C116    1.382   .     D
C115   H181    1.079   .     S
C116   H182    1.074   .     S
C117   C79     1.520   1_565 S
C118   C119    1.363   .     D
C118   H183    1.082   .     S
C119   H184    1.083   .     S
C120   C122    1.405   .     S
C120   H185    1.081   .     S
C121   C123    1.394   .     D
C121   H186    1.075   .     S
C122   C124    1.401   .     D
C122   H187    1.082   .     S
C123   C124    1.404   .     S
C123   H188    1.078   .     S
C125   C126    1.477   .     S
C125   H189    1.081   .     S
C126   C127    1.404   .     S
C126   C128    1.403   .     D
C127   C129    1.399   .     D
C127   H199    1.083   .     S
C128   C130    1.400   .     S
C128   H195    1.083   .     S
C129   C131    1.403   .     S
C129   H201    1.083   .     S
C130   C131    1.405   .     D
C130   H197    1.083   .     S
C131   C132    1.478   .     S
C132   H194    1.079   .     S
C133   C134    1.406   .     D
C133   C135    1.400   .     S
C134   C136    1.396   .     S
C134   H190    1.077   .     S
C135   C137    1.402   .     D
C135   H191    1.082   .     S
C136   C138    1.405   .     D
C136   H192    1.080   .     S
C137   C138    1.403   .     S
C137   H193    1.082   .     S
C138   C109    1.497   1_655 S
