data_194
_audit_creation_date              2023-09-08
_audit_creation_method            'Materials Studio'
_symmetry_space_group_name_H-M    'P1'
_symmetry_Int_Tables_number       1
_symmetry_cell_setting            triclinic
loop_
_symmetry_equiv_pos_as_xyz
  x,y,z
_cell_length_a                    26.2125
_cell_length_b                    26.0027
_cell_length_c                    4.4228
_cell_angle_alpha                 90.0000
_cell_angle_beta                  90.0000
_cell_angle_gamma                 90.0000
loop_
_atom_site_label
_atom_site_type_symbol
_atom_site_fract_x
_atom_site_fract_y
_atom_site_fract_z
_atom_site_U_iso_or_equiv
_atom_site_adp_type
_atom_site_occupancy
C1     C     0.22567   0.76383   0.38517   0.00000  Uiso   1.00
C2     C     0.77433   0.23617   0.38517   0.00000  Uiso   1.00
C3     C     0.22567   0.23617   0.38517   0.00000  Uiso   1.00
C4     C     0.77433   0.76383   0.38517   0.00000  Uiso   1.00
N5     N     0.24481   0.73932   0.61320   0.00000  Uiso   1.00
N6     N     0.75519   0.26069   0.61320   0.00000  Uiso   1.00
N7     N     0.24481   0.26069   0.61320   0.00000  Uiso   1.00
N8     N     0.75519   0.73932   0.61320   0.00000  Uiso   1.00
C9     C     0.04723   0.05500   0.53637   0.00000  Uiso   1.00
C10    C     0.39267   0.45751   0.57998   0.00000  Uiso   1.00
C11    C     0.95277   0.94500   0.53637   0.00000  Uiso   1.00
C12    C     0.60733   0.54249   0.57998   0.00000  Uiso   1.00
C13    C     0.04723   0.94500   0.53637   0.00000  Uiso   1.00
C14    C     0.39267   0.54249   0.57998   0.00000  Uiso   1.00
C15    C     0.95277   0.05500   0.53637   0.00000  Uiso   1.00
C16    C     0.60733   0.45751   0.57998   0.00000  Uiso   1.00
C17    C     0.34240   0.47388   0.66473   0.00000  Uiso   1.00
C18    C     0.65760   0.52613   0.66473   0.00000  Uiso   1.00
C19    C     0.34240   0.52613   0.66473   0.00000  Uiso   1.00
C20    C     0.65760   0.47388   0.66473   0.00000  Uiso   1.00
H21    H     0.31112   0.44840   0.72181   0.00000  Uiso   1.00
H22    H     0.68888   0.55160   0.72181   0.00000  Uiso   1.00
H23    H     0.31112   0.55160   0.72181   0.00000  Uiso   1.00
H24    H     0.68888   0.44840   0.72181   0.00000  Uiso   1.00
N25    N     0.50000   0.57764   0.53103   0.00000  Uiso   1.00
N26    N     0.50000   0.42237   0.53103   0.00000  Uiso   1.00
C27    C     0.54211   0.60902   0.49670   0.00000  Uiso   1.00
C28    C     0.45789   0.39099   0.49670   0.00000  Uiso   1.00
C29    C     0.54211   0.39099   0.49670   0.00000  Uiso   1.00
C30    C     0.45789   0.60902   0.49670   0.00000  Uiso   1.00
C31    C     0.52595   0.66042   0.42316   0.00000  Uiso   1.00
C32    C     0.47405   0.33958   0.42316   0.00000  Uiso   1.00
C33    C     0.52595   0.33958   0.42316   0.00000  Uiso   1.00
C34    C     0.47405   0.66042   0.42316   0.00000  Uiso   1.00
H35    H     0.55137   0.69236   0.37712   0.00000  Uiso   1.00
H36    H     0.44863   0.30764   0.37712   0.00000  Uiso   1.00
H37    H     0.55137   0.30764   0.37712   0.00000  Uiso   1.00
H38    H     0.44863   0.69236   0.37712   0.00000  Uiso   1.00
C39    C     0.04677   0.10960   0.53106   0.00000  Uiso   1.00
C40    C     0.40702   0.40605   0.53822   0.00000  Uiso   1.00
C41    C     0.95323   0.89040   0.53106   0.00000  Uiso   1.00
C42    C     0.59298   0.59395   0.53822   0.00000  Uiso   1.00
C43    C     0.04677   0.89040   0.53106   0.00000  Uiso   1.00
C44    C     0.40702   0.59395   0.53822   0.00000  Uiso   1.00
C45    C     0.95323   0.10960   0.53106   0.00000  Uiso   1.00
C46    C     0.59298   0.40605   0.53822   0.00000  Uiso   1.00
C47    C     0.09324   0.14123   0.49738   0.00000  Uiso   1.00
C48    C     0.36659   0.36634   0.54291   0.00000  Uiso   1.00
C49    C     0.90676   0.85877   0.49738   0.00000  Uiso   1.00
C50    C     0.63341   0.63366   0.54291   0.00000  Uiso   1.00
C51    C     0.09324   0.85877   0.49738   0.00000  Uiso   1.00
C52    C     0.36659   0.63366   0.54291   0.00000  Uiso   1.00
C53    C     0.90676   0.14123   0.49738   0.00000  Uiso   1.00
C54    C     0.63341   0.36634   0.54291   0.00000  Uiso   1.00
C55    C     0.13085   0.12910   0.28285   0.00000  Uiso   1.00
C56    C     0.09916   0.81325   0.66499   0.00000  Uiso   1.00
C57    C     0.32251   0.37193   0.36606   0.00000  Uiso   1.00
C58    C     0.37004   0.67681   0.73324   0.00000  Uiso   1.00
C59    C     0.86915   0.87091   0.28285   0.00000  Uiso   1.00
C60    C     0.90084   0.18675   0.66499   0.00000  Uiso   1.00
C61    C     0.67749   0.62807   0.36606   0.00000  Uiso   1.00
C62    C     0.62996   0.32319   0.73324   0.00000  Uiso   1.00
C63    C     0.13085   0.87091   0.28285   0.00000  Uiso   1.00
C64    C     0.09916   0.18675   0.66499   0.00000  Uiso   1.00
C65    C     0.32251   0.62807   0.36606   0.00000  Uiso   1.00
C66    C     0.37004   0.32319   0.73324   0.00000  Uiso   1.00
C67    C     0.86915   0.12910   0.28285   0.00000  Uiso   1.00
C68    C     0.90084   0.81325   0.66499   0.00000  Uiso   1.00
C69    C     0.67749   0.37193   0.36606   0.00000  Uiso   1.00
C70    C     0.62996   0.67681   0.73324   0.00000  Uiso   1.00
C71    C     0.17292   0.16084   0.24154   0.00000  Uiso   1.00
C72    C     0.14165   0.78209   0.62871   0.00000  Uiso   1.00
C73    C     0.28285   0.33662   0.37987   0.00000  Uiso   1.00
C74    C     0.33023   0.71189   0.75210   0.00000  Uiso   1.00
C75    C     0.82708   0.83916   0.24154   0.00000  Uiso   1.00
C76    C     0.85835   0.21791   0.62871   0.00000  Uiso   1.00
C77    C     0.71715   0.66338   0.37987   0.00000  Uiso   1.00
C78    C     0.66977   0.28812   0.75210   0.00000  Uiso   1.00
C79    C     0.17292   0.83916   0.24154   0.00000  Uiso   1.00
C80    C     0.14165   0.21791   0.62871   0.00000  Uiso   1.00
C81    C     0.28285   0.66338   0.37987   0.00000  Uiso   1.00
C82    C     0.33023   0.28812   0.75210   0.00000  Uiso   1.00
C83    C     0.82708   0.16084   0.24154   0.00000  Uiso   1.00
C84    C     0.85835   0.78209   0.62871   0.00000  Uiso   1.00
C85    C     0.71715   0.33662   0.37987   0.00000  Uiso   1.00
C86    C     0.66977   0.71189   0.75210   0.00000  Uiso   1.00
C87    C     0.17960   0.20492   0.41918   0.00000  Uiso   1.00
C88    C     0.28616   0.29434   0.57580   0.00000  Uiso   1.00
C89    C     0.82040   0.79509   0.41918   0.00000  Uiso   1.00
C90    C     0.71384   0.70566   0.57580   0.00000  Uiso   1.00
C91    C     0.17960   0.79509   0.41918   0.00000  Uiso   1.00
C92    C     0.28616   0.70566   0.57580   0.00000  Uiso   1.00
C93    C     0.82040   0.20492   0.41918   0.00000  Uiso   1.00
C94    C     0.71384   0.29434   0.57580   0.00000  Uiso   1.00
N95    N     0.42366   0.50000   0.53981   0.00000  Uiso   1.00
N96    N     0.57634   0.50000   0.53981   0.00000  Uiso   1.00
C97    C     0.90657   0.02619   0.55162   0.00000  Uiso   1.00
H98    H     0.87071   0.04701   0.57126   0.00000  Uiso   1.00
H99    H     0.85346   0.25234   0.76584   0.00000  Uiso   1.00
H100   H     0.92977   0.19673   0.83230   0.00000  Uiso   1.00
H101   H     0.87429   0.09555   0.13860   0.00000  Uiso   1.00
H102   H     0.79887   0.15175   0.06810   0.00000  Uiso   1.00
H103   H     0.31985   0.40453   0.21212   0.00000  Uiso   1.00
H104   H     0.24886   0.34132   0.24080   0.00000  Uiso   1.00
H105   H     0.40355   0.31863   0.87651   0.00000  Uiso   1.00
H106   H     0.33246   0.25589   0.90918   0.00000  Uiso   1.00
H107   H     0.75676   0.76283   0.15826   0.00000  Uiso   1.00
C108   C     0.09343   0.97381   0.55162   0.00000  Uiso   1.00
H109   H     0.12929   0.95299   0.57126   0.00000  Uiso   1.00
H110   H     0.14654   0.74766   0.76584   0.00000  Uiso   1.00
H111   H     0.07023   0.80327   0.83230   0.00000  Uiso   1.00
H112   H     0.12571   0.90445   0.13860   0.00000  Uiso   1.00
H113   H     0.20113   0.84825   0.06810   0.00000  Uiso   1.00
H114   H     0.68015   0.59547   0.21212   0.00000  Uiso   1.00
H115   H     0.75114   0.65868   0.24080   0.00000  Uiso   1.00
H116   H     0.59645   0.68137   0.87651   0.00000  Uiso   1.00
H117   H     0.66754   0.74411   0.90918   0.00000  Uiso   1.00
H118   H     0.24324   0.23717   0.15826   0.00000  Uiso   1.00
C119   C     0.90657   0.97381   0.55162   0.00000  Uiso   1.00
H120   H     0.87071   0.95299   0.57126   0.00000  Uiso   1.00
H121   H     0.85346   0.74766   0.76584   0.00000  Uiso   1.00
H122   H     0.92977   0.80327   0.83230   0.00000  Uiso   1.00
H123   H     0.87429   0.90445   0.13860   0.00000  Uiso   1.00
H124   H     0.79887   0.84825   0.06810   0.00000  Uiso   1.00
H125   H     0.31985   0.59547   0.21212   0.00000  Uiso   1.00
H126   H     0.24886   0.65868   0.24080   0.00000  Uiso   1.00
H127   H     0.40355   0.68137   0.87651   0.00000  Uiso   1.00
H128   H     0.33246   0.74411   0.90918   0.00000  Uiso   1.00
H129   H     0.75676   0.23717   0.15826   0.00000  Uiso   1.00
C130   C     0.09343   0.02619   0.55162   0.00000  Uiso   1.00
H131   H     0.12929   0.04701   0.57126   0.00000  Uiso   1.00
H132   H     0.14654   0.25234   0.76584   0.00000  Uiso   1.00
H133   H     0.07023   0.19673   0.83230   0.00000  Uiso   1.00
H134   H     0.12571   0.09555   0.13860   0.00000  Uiso   1.00
H135   H     0.20113   0.15175   0.06810   0.00000  Uiso   1.00
H136   H     0.68015   0.40453   0.21212   0.00000  Uiso   1.00
H137   H     0.75114   0.34132   0.24080   0.00000  Uiso   1.00
H138   H     0.59645   0.31863   0.87651   0.00000  Uiso   1.00
H139   H     0.66754   0.25589   0.90918   0.00000  Uiso   1.00
H140   H     0.24324   0.76283   0.15826   0.00000  Uiso   1.00
Cu141  Cu    0.50000   0.50000   0.53334   0.00000  Uiso   1.00
C142   C     0.00000   0.13514   0.53696   0.00000  Uiso   1.00
C143   C     0.00000   0.02753   0.53811   0.00000  Uiso   1.00
H144   H     0.00000   0.17696   0.52253   0.00000  Uiso   1.00
C145   C     0.00000   0.86486   0.53696   0.00000  Uiso   1.00
C146   C     0.00000   0.97247   0.53811   0.00000  Uiso   1.00
H147   H     0.00000   0.82304   0.52253   0.00000  Uiso   1.00
loop_
_geom_bond_atom_site_label_1
_geom_bond_atom_site_label_2
_geom_bond_distance
_geom_bond_site_symmetry_2
_ccdc_geom_bond_type
C1     N5      1.294   .     D
C1     C91     1.463   .     S
C1     H140    1.105   .     S
C2     N6      1.294   .     D
C2     C93     1.463   .     S
C2     H129    1.105   .     S
C3     N7      1.294   .     D
C3     C87     1.463   .     S
C3     H118    1.105   .     S
C4     N8      1.294   .     D
C4     C89     1.463   .     S
C4     H107    1.105   .     S
N5     C92     1.403   .     S
N6     C94     1.403   .     S
N7     C88     1.403   .     S
N8     C90     1.403   .     S
C9     C39     1.420   .     D
C9     C130    1.426   .     S
C9     C143    1.430   .     S
C10    C17     1.435   .     S
C10    C40     1.402   .     D
C10    N95     1.383   .     S
C11    C41     1.420   .     S
C11    C119    1.426   .     D
C11    C146    1.430   1_655 S
C12    C18     1.435   .     S
C12    C42     1.402   .     D
C12    N96     1.383   .     S
C13    C43     1.420   .     D
C13    C108    1.426   .     S
C13    C146    1.430   .     S
C14    C19     1.435   .     S
C14    C44     1.402   .     S
C14    N95     1.383   .     D
C15    C45     1.420   .     S
C15    C97     1.426   .     D
C15    C143    1.430   1_655 S
C16    C20     1.435   .     S
C16    C46     1.402   .     S
C16    N96     1.383   .     D
C17    C19     1.359   .     D
C17    H21     1.084   .     S
C18    C20     1.359   .     D
C18    H22     1.084   .     S
C19    H23     1.084   .     S
C20    H24     1.084   .     S
N25    C27     1.381   .     D
N25    C30     1.381   .     S
N25    Cu141   2.019   .     S
N26    C28     1.381   .     D
N26    C29     1.381   .     S
N26    Cu141   2.019   .     S
C27    C31     1.439   .     S
C27    C42     1.402   .     S
C28    C32     1.439   .     S
C28    C40     1.402   .     S
C29    C33     1.439   .     S
C29    C46     1.402   .     D
C30    C34     1.439   .     S
C30    C44     1.402   .     D
C31    C34     1.360   .     D
C31    H35     1.084   .     S
C32    C33     1.360   .     D
C32    H36     1.084   .     S
C33    H37     1.084   .     S
C34    H38     1.084   .     S
C39    C47     1.477   .     S
C39    C142    1.395   .     S
C40    C48     1.480   .     S
C41    C49     1.477   .     S
C41    C145    1.395   1_655 D
C42    C50     1.480   .     S
C43    C51     1.477   .     S
C43    C145    1.395   .     S
C44    C52     1.480   .     S
C45    C53     1.477   .     S
C45    C142    1.395   1_655 D
C46    C54     1.480   .     S
C47    C55     1.404   .     D
C47    C64     1.405   .     S
C48    C57     1.403   .     D
C48    C66     1.406   .     S
C49    C59     1.404   .     D
C49    C68     1.405   .     S
C50    C61     1.403   .     D
C50    C70     1.406   .     S
C51    C56     1.405   .     S
C51    C63     1.404   .     D
C52    C58     1.406   .     D
C52    C65     1.403   .     S
C53    C60     1.405   .     D
C53    C67     1.404   .     S
C54    C62     1.406   .     S
C54    C69     1.403   .     D
C55    C71     1.390   .     S
C55    H134    1.089   .     S
C56    C72     1.387   .     D
C56    H111    1.091   .     S
C57    C73     1.388   .     S
C57    H103    1.089   .     S
C58    C74     1.388   .     S
C58    H127    1.090   .     S
C59    C75     1.390   .     S
C59    H123    1.089   .     S
C60    C76     1.387   .     S
C60    H100    1.091   .     S
C61    C77     1.388   .     S
C61    H114    1.089   .     S
C62    C78     1.388   .     D
C62    H138    1.090   .     S
C63    C79     1.390   .     S
C63    H112    1.089   .     S
C64    C80     1.387   .     D
C64    H133    1.091   .     S
C65    C81     1.388   .     D
C65    H125    1.089   .     S
C66    C82     1.388   .     D
C66    H105    1.090   .     S
C67    C83     1.390   .     D
C67    H101    1.089   .     S
C68    C84     1.387   .     D
C68    H122    1.091   .     S
C69    C85     1.388   .     S
C69    H136    1.089   .     S
C70    C86     1.388   .     D
C70    H116    1.090   .     S
C71    C87     1.400   .     D
C71    H135    1.091   .     S
C72    C91     1.401   .     S
C72    H110    1.089   .     S
C73    C88     1.403   .     D
C73    H104    1.090   .     S
C74    C92     1.403   .     D
C74    H128    1.090   .     S
C75    C89     1.400   .     D
C75    H124    1.091   .     S
C76    C93     1.401   .     D
C76    H99     1.089   .     S
C77    C90     1.403   .     D
C77    H115    1.090   .     S
C78    C94     1.403   .     S
C78    H139    1.090   .     S
C79    C91     1.400   .     D
C79    H113    1.091   .     S
C80    C87     1.401   .     S
C80    H132    1.089   .     S
C81    C92     1.403   .     S
C81    H126    1.090   .     S
C82    C88     1.403   .     S
C82    H106    1.090   .     S
C83    C93     1.400   .     S
C83    H102    1.091   .     S
C84    C89     1.401   .     S
C84    H121    1.089   .     S
C85    C94     1.403   .     D
C85    H137    1.090   .     S
C86    C90     1.403   .     S
C86    H117    1.090   .     S
N95    Cu141   2.001   .     S
N96    Cu141   2.001   .     S
C97    H98     1.088   .     S
C97    C119    1.362   1_545 S
C108   H109    1.088   .     S
C108   C130    1.362   1_565 D
C119   C97     1.362   1_565 S
C119   H120    1.088   .     S
C130   C108    1.362   1_545 D
C130   H131    1.088   .     S
C142   C45     1.395   1_455 D
C142   H144    1.089   .     S
C143   C15     1.430   1_455 S
C143   C146    1.432   1_545 D
C145   C41     1.395   1_455 D
C145   H147    1.089   .     S
C146   C143    1.432   1_565 D
C146   C11     1.430   1_455 S
