data_195
_audit_creation_date              2023-09-08
_audit_creation_method            'Materials Studio'
_symmetry_space_group_name_H-M    'P1'
_symmetry_Int_Tables_number       1
_symmetry_cell_setting            triclinic
loop_
_symmetry_equiv_pos_as_xyz
  x,y,z
_cell_length_a                    23.3293
_cell_length_b                    34.9571
_cell_length_c                    6.7638
_cell_angle_alpha                 90.0000
_cell_angle_beta                  90.0000
_cell_angle_gamma                 90.0000
loop_
_atom_site_label
_atom_site_type_symbol
_atom_site_fract_x
_atom_site_fract_y
_atom_site_fract_z
_atom_site_U_iso_or_equiv
_atom_site_adp_type
_atom_site_occupancy
N1     N     0.22686   0.68500   0.50000   0.00000  Uiso   1.00
N2     N     0.72686   0.18499   0.50000   0.00000  Uiso   1.00
N3     N     0.77314   0.31501   0.50000   0.00000  Uiso   1.00
N4     N     0.27314   0.81501   0.50000   0.00000  Uiso   1.00
N5     N     0.77314   0.68500   0.50000   0.00000  Uiso   1.00
N6     N     0.27314   0.18499   0.50000   0.00000  Uiso   1.00
N7     N     0.22686   0.31501   0.50000   0.00000  Uiso   1.00
N8     N     0.72686   0.81501   0.50000   0.00000  Uiso   1.00
C9     C     0.24065   0.72246   0.50000   0.00000  Uiso   1.00
C10    C     0.74065   0.22246   0.50000   0.00000  Uiso   1.00
C11    C     0.75935   0.27754   0.50000   0.00000  Uiso   1.00
C12    C     0.25935   0.77754   0.50000   0.00000  Uiso   1.00
C13    C     0.75935   0.72246   0.50000   0.00000  Uiso   1.00
C14    C     0.25935   0.22246   0.50000   0.00000  Uiso   1.00
C15    C     0.24065   0.27754   0.50000   0.00000  Uiso   1.00
C16    C     0.74065   0.77754   0.50000   0.00000  Uiso   1.00
C17    C     0.20891   0.75614   0.50000   0.00000  Uiso   1.00
C18    C     0.70891   0.25614   0.50000   0.00000  Uiso   1.00
C19    C     0.79109   0.24387   0.50000   0.00000  Uiso   1.00
C20    C     0.29109   0.74387   0.50000   0.00000  Uiso   1.00
C21    C     0.79109   0.75614   0.50000   0.00000  Uiso   1.00
C22    C     0.29109   0.25614   0.50000   0.00000  Uiso   1.00
C23    C     0.20891   0.24387   0.50000   0.00000  Uiso   1.00
C24    C     0.70891   0.74387   0.50000   0.00000  Uiso   1.00
H25    H     0.18674   0.67771   0.50000   0.00000  Uiso   1.00
H26    H     0.68674   0.17771   0.50000   0.00000  Uiso   1.00
H27    H     0.81326   0.32230   0.50000   0.00000  Uiso   1.00
H28    H     0.31326   0.82230   0.50000   0.00000  Uiso   1.00
H29    H     0.81326   0.67771   0.50000   0.00000  Uiso   1.00
H30    H     0.31326   0.17771   0.50000   0.00000  Uiso   1.00
H31    H     0.18674   0.32230   0.50000   0.00000  Uiso   1.00
H32    H     0.68674   0.82230   0.50000   0.00000  Uiso   1.00
C33    C     0.95193   0.91733   0.50000   0.00000  Uiso   1.00
C34    C     0.45193   0.41733   0.50000   0.00000  Uiso   1.00
C35    C     0.04807   0.08267   0.50000   0.00000  Uiso   1.00
C36    C     0.54807   0.58267   0.50000   0.00000  Uiso   1.00
C37    C     0.04807   0.91733   0.50000   0.00000  Uiso   1.00
C38    C     0.54807   0.41733   0.50000   0.00000  Uiso   1.00
C39    C     0.95193   0.08267   0.50000   0.00000  Uiso   1.00
C40    C     0.45193   0.58267   0.50000   0.00000  Uiso   1.00
C41    C     0.97046   0.87936   0.50000   0.00000  Uiso   1.00
C42    C     0.47046   0.37936   0.50000   0.00000  Uiso   1.00
C43    C     0.02954   0.12064   0.50000   0.00000  Uiso   1.00
C44    C     0.52953   0.62064   0.50000   0.00000  Uiso   1.00
C45    C     0.02954   0.87936   0.50000   0.00000  Uiso   1.00
C46    C     0.52953   0.37936   0.50000   0.00000  Uiso   1.00
C47    C     0.97046   0.12064   0.50000   0.00000  Uiso   1.00
C48    C     0.47046   0.62064   0.50000   0.00000  Uiso   1.00
H49    H     0.94532   0.85543   0.50000   0.00000  Uiso   1.00
H50    H     0.44532   0.35543   0.50000   0.00000  Uiso   1.00
H51    H     0.05468   0.14457   0.50000   0.00000  Uiso   1.00
H52    H     0.55468   0.64457   0.50000   0.00000  Uiso   1.00
H53    H     0.05468   0.85543   0.50000   0.00000  Uiso   1.00
H54    H     0.55468   0.35543   0.50000   0.00000  Uiso   1.00
H55    H     0.94532   0.14457   0.50000   0.00000  Uiso   1.00
H56    H     0.44532   0.64457   0.50000   0.00000  Uiso   1.00
N57    N     0.40974   0.50000   0.50000   0.00000  Uiso   1.00
N58    N     0.90974   0.00000   0.50000   0.00000  Uiso   1.00
N59    N     0.59026   0.50000   0.50000   0.00000  Uiso   1.00
N60    N     0.09026   0.00000   0.50000   0.00000  Uiso   1.00
C61    C     0.37657   0.46814   0.50000   0.00000  Uiso   1.00
C62    C     0.87657   0.96814   0.50000   0.00000  Uiso   1.00
C63    C     0.62343   0.53186   0.50000   0.00000  Uiso   1.00
C64    C     0.12343   0.03186   0.50000   0.00000  Uiso   1.00
C65    C     0.62343   0.46814   0.50000   0.00000  Uiso   1.00
C66    C     0.12343   0.96814   0.50000   0.00000  Uiso   1.00
C67    C     0.37657   0.53186   0.50000   0.00000  Uiso   1.00
C68    C     0.87657   0.03186   0.50000   0.00000  Uiso   1.00
C69    C     0.31960   0.48033   0.50000   0.00000  Uiso   1.00
C70    C     0.81960   0.98033   0.50000   0.00000  Uiso   1.00
C71    C     0.68039   0.51967   0.50000   0.00000  Uiso   1.00
C72    C     0.18040   0.01967   0.50000   0.00000  Uiso   1.00
C73    C     0.68039   0.48033   0.50000   0.00000  Uiso   1.00
C74    C     0.18040   0.98033   0.50000   0.00000  Uiso   1.00
C75    C     0.31960   0.51967   0.50000   0.00000  Uiso   1.00
C76    C     0.81960   0.01967   0.50000   0.00000  Uiso   1.00
H77    H     0.28376   0.46351   0.50000   0.00000  Uiso   1.00
H78    H     0.78376   0.96351   0.50000   0.00000  Uiso   1.00
H79    H     0.71623   0.53649   0.50000   0.00000  Uiso   1.00
H80    H     0.21623   0.03649   0.50000   0.00000  Uiso   1.00
H81    H     0.71623   0.46351   0.50000   0.00000  Uiso   1.00
H82    H     0.21623   0.96351   0.50000   0.00000  Uiso   1.00
H83    H     0.28376   0.53649   0.50000   0.00000  Uiso   1.00
H84    H     0.78376   0.03649   0.50000   0.00000  Uiso   1.00
C85    C     0.89409   0.92939   0.50000   0.00000  Uiso   1.00
C86    C     0.39409   0.42939   0.50000   0.00000  Uiso   1.00
C87    C     0.10591   0.07061   0.50000   0.00000  Uiso   1.00
C88    C     0.60591   0.57061   0.50000   0.00000  Uiso   1.00
C89    C     0.10591   0.92939   0.50000   0.00000  Uiso   1.00
C90    C     0.60591   0.42939   0.50000   0.00000  Uiso   1.00
C91    C     0.89409   0.07061   0.50000   0.00000  Uiso   1.00
C92    C     0.39409   0.57061   0.50000   0.00000  Uiso   1.00
C93    C     0.85128   0.90080   0.50000   0.00000  Uiso   1.00
C94    C     0.35128   0.40080   0.50000   0.00000  Uiso   1.00
C95    C     0.14872   0.09920   0.50000   0.00000  Uiso   1.00
C96    C     0.64871   0.59921   0.50000   0.00000  Uiso   1.00
C97    C     0.14872   0.90080   0.50000   0.00000  Uiso   1.00
C98    C     0.64871   0.40080   0.50000   0.00000  Uiso   1.00
C99    C     0.85128   0.09920   0.50000   0.00000  Uiso   1.00
C100   C     0.35128   0.59921   0.50000   0.00000  Uiso   1.00
C101   C     0.32978   0.38628   0.68029   0.00000  Uiso   1.00
C102   C     0.82977   0.88628   0.68029   0.00000  Uiso   1.00
C103   C     0.67022   0.61373   0.68029   0.00000  Uiso   1.00
C104   C     0.17022   0.11373   0.68029   0.00000  Uiso   1.00
C105   C     0.67022   0.38628   0.31971   0.00000  Uiso   1.00
C106   C     0.17022   0.88628   0.31971   0.00000  Uiso   1.00
C107   C     0.32978   0.61373   0.31971   0.00000  Uiso   1.00
C108   C     0.82977   0.11373   0.31971   0.00000  Uiso   1.00
C109   C     0.67022   0.61373   0.31971   0.00000  Uiso   1.00
C110   C     0.17022   0.11373   0.31971   0.00000  Uiso   1.00
C111   C     0.32978   0.38628   0.31971   0.00000  Uiso   1.00
C112   C     0.82977   0.88628   0.31971   0.00000  Uiso   1.00
C113   C     0.32978   0.61373   0.68029   0.00000  Uiso   1.00
C114   C     0.82977   0.11373   0.68029   0.00000  Uiso   1.00
C115   C     0.67022   0.38628   0.68029   0.00000  Uiso   1.00
C116   C     0.17022   0.88628   0.68029   0.00000  Uiso   1.00
H117   H     0.84478   0.89656   0.81212   0.00000  Uiso   1.00
H118   H     0.34478   0.39656   0.81212   0.00000  Uiso   1.00
H119   H     0.15522   0.10345   0.81212   0.00000  Uiso   1.00
H120   H     0.65522   0.60345   0.81212   0.00000  Uiso   1.00
H121   H     0.15522   0.89656   0.18788   0.00000  Uiso   1.00
H122   H     0.65522   0.39656   0.18788   0.00000  Uiso   1.00
H123   H     0.84478   0.10345   0.18788   0.00000  Uiso   1.00
H124   H     0.34478   0.60345   0.18788   0.00000  Uiso   1.00
H125   H     0.15522   0.10345   0.18788   0.00000  Uiso   1.00
H126   H     0.65522   0.60345   0.18788   0.00000  Uiso   1.00
H127   H     0.84478   0.89656   0.18788   0.00000  Uiso   1.00
H128   H     0.34478   0.39656   0.18788   0.00000  Uiso   1.00
H129   H     0.84478   0.10345   0.81212   0.00000  Uiso   1.00
H130   H     0.34478   0.60345   0.81212   0.00000  Uiso   1.00
H131   H     0.15522   0.89656   0.81212   0.00000  Uiso   1.00
H132   H     0.65522   0.39656   0.81212   0.00000  Uiso   1.00
C133   C     0.78763   0.85745   0.67999   0.00000  Uiso   1.00
C134   C     0.28763   0.35745   0.67999   0.00000  Uiso   1.00
C135   C     0.21237   0.14255   0.67999   0.00000  Uiso   1.00
C136   C     0.71237   0.64255   0.67999   0.00000  Uiso   1.00
C137   C     0.21237   0.85745   0.32001   0.00000  Uiso   1.00
C138   C     0.71237   0.35745   0.32001   0.00000  Uiso   1.00
C139   C     0.78763   0.14255   0.32001   0.00000  Uiso   1.00
C140   C     0.28763   0.64255   0.32001   0.00000  Uiso   1.00
C141   C     0.21237   0.14255   0.32001   0.00000  Uiso   1.00
C142   C     0.71237   0.64255   0.32001   0.00000  Uiso   1.00
C143   C     0.78763   0.85745   0.32001   0.00000  Uiso   1.00
C144   C     0.28763   0.35745   0.32001   0.00000  Uiso   1.00
C145   C     0.78763   0.14255   0.67999   0.00000  Uiso   1.00
C146   C     0.28763   0.64255   0.67999   0.00000  Uiso   1.00
C147   C     0.21237   0.85745   0.67999   0.00000  Uiso   1.00
C148   C     0.71237   0.35745   0.67999   0.00000  Uiso   1.00
H149   H     0.77229   0.84699   0.81070   0.00000  Uiso   1.00
H150   H     0.27229   0.34698   0.81070   0.00000  Uiso   1.00
H151   H     0.22771   0.15302   0.81070   0.00000  Uiso   1.00
H152   H     0.72771   0.65302   0.81070   0.00000  Uiso   1.00
H153   H     0.22771   0.84699   0.18930   0.00000  Uiso   1.00
H154   H     0.72771   0.34698   0.18930   0.00000  Uiso   1.00
H155   H     0.77229   0.15302   0.18930   0.00000  Uiso   1.00
H156   H     0.27229   0.65302   0.18930   0.00000  Uiso   1.00
H157   H     0.22771   0.15302   0.18930   0.00000  Uiso   1.00
H158   H     0.72771   0.65302   0.18930   0.00000  Uiso   1.00
H159   H     0.77229   0.84699   0.18930   0.00000  Uiso   1.00
H160   H     0.27229   0.34698   0.18930   0.00000  Uiso   1.00
H161   H     0.77229   0.15302   0.81070   0.00000  Uiso   1.00
H162   H     0.27229   0.65302   0.81070   0.00000  Uiso   1.00
H163   H     0.22771   0.84699   0.81070   0.00000  Uiso   1.00
H164   H     0.72771   0.34698   0.81070   0.00000  Uiso   1.00
C165   C     0.76673   0.84284   0.50000   0.00000  Uiso   1.00
C166   C     0.26673   0.34284   0.50000   0.00000  Uiso   1.00
C167   C     0.23327   0.15716   0.50000   0.00000  Uiso   1.00
C168   C     0.73326   0.65716   0.50000   0.00000  Uiso   1.00
C169   C     0.23327   0.84284   0.50000   0.00000  Uiso   1.00
C170   C     0.73326   0.34284   0.50000   0.00000  Uiso   1.00
C171   C     0.76673   0.15716   0.50000   0.00000  Uiso   1.00
C172   C     0.26673   0.65716   0.50000   0.00000  Uiso   1.00
O173   O     0.15658   0.76396   0.50000   0.00000  Uiso   1.00
O174   O     0.65658   0.26396   0.50000   0.00000  Uiso   1.00
O175   O     0.84342   0.23605   0.50000   0.00000  Uiso   1.00
O176   O     0.34342   0.73605   0.50000   0.00000  Uiso   1.00
O177   O     0.84342   0.76396   0.50000   0.00000  Uiso   1.00
O178   O     0.34342   0.26396   0.50000   0.00000  Uiso   1.00
O179   O     0.15658   0.23605   0.50000   0.00000  Uiso   1.00
O180   O     0.65658   0.73605   0.50000   0.00000  Uiso   1.00
N181   N     0.00000   0.93886   0.50000   0.00000  Uiso   1.00
N182   N     0.50000   0.43886   0.50000   0.00000  Uiso   1.00
N183   N     0.00000   0.06114   0.50000   0.00000  Uiso   1.00
N184   N     0.50000   0.56114   0.50000   0.00000  Uiso   1.00
H185   H     0.00000   0.03339   0.50000   0.00000  Uiso   1.00
Cu186  Cu    0.50000   0.50000   0.50000   0.00000  Uiso   1.00
loop_
_geom_bond_atom_site_label_1
_geom_bond_atom_site_label_2
_geom_bond_distance
_geom_bond_site_symmetry_2
_ccdc_geom_bond_type
N1     C9      1.349   .     D
N1     H25     0.970   .     S
N1     C172    1.346   .     S
N2     C10     1.349   .     D
N2     H26     0.970   .     S
N2     C171    1.346   .     S
N3     C11     1.349   .     D
N3     H27     0.970   .     S
N3     C170    1.346   .     S
N4     C12     1.349   .     D
N4     H28     0.970   .     S
N4     C169    1.346   .     S
N5     C13     1.349   .     D
N5     H29     0.970   .     S
N5     C168    1.346   .     S
N6     C14     1.349   .     D
N6     H30     0.970   .     S
N6     C167    1.346   .     S
N7     C15     1.349   .     D
N7     H31     0.970   .     S
N7     C166    1.346   .     S
N8     C16     1.349   .     D
N8     H32     0.970   .     S
N8     C165    1.346   .     S
C9     C17     1.391   .     S
C9     C20     1.394   .     S
C10    C18     1.391   .     S
C10    C19     1.394   .     S
C11    C18     1.394   .     S
C11    C19     1.391   .     S
C12    C17     1.394   .     S
C12    C20     1.391   .     S
C13    C21     1.391   .     S
C13    C24     1.394   .     S
C14    C22     1.391   .     S
C14    C23     1.394   .     S
C15    C22     1.394   .     S
C15    C23     1.391   .     S
C16    C21     1.394   .     S
C16    C24     1.391   .     S
C17    O173    1.251   .     D
C18    O174    1.251   .     D
C19    O175    1.251   .     D
C20    O176    1.251   .     D
C21    O177    1.251   .     D
C22    O178    1.251   .     D
C23    O179    1.251   .     D
C24    O180    1.251   .     D
C33    C41     1.396   .     S
C33    C85     1.414   .     S
C33    N181    1.351   1_655 D
C34    C42     1.396   .     S
C34    C86     1.414   .     D
C34    N182    1.351   .     S
C35    C43     1.396   .     S
C35    C87     1.414   .     S
C35    N183    1.351   .     D
C36    C44     1.396   .     S
C36    C88     1.414   .     D
C36    N184    1.351   .     S
C37    C45     1.396   .     S
C37    C89     1.414   .     D
C37    N181    1.351   .     S
C38    C46     1.396   .     S
C38    C90     1.414   .     S
C38    N182    1.351   .     D
C39    C47     1.396   .     S
C39    C91     1.414   .     D
C39    N183    1.351   1_655 S
C40    C48     1.396   .     S
C40    C92     1.414   .     S
C40    N184    1.351   .     D
C41    C45     1.378   1_655 D
C41    H49     1.022   .     S
C42    C46     1.378   .     D
C42    H50     1.022   .     S
C43    C47     1.378   1_455 D
C43    H51     1.022   .     S
C44    C48     1.378   .     D
C44    H52     1.022   .     S
C45    C41     1.378   1_455 D
C45    H53     1.022   .     S
C46    H54     1.022   .     S
C47    C43     1.378   1_655 D
C47    H55     1.022   .     S
C48    H56     1.022   .     S
N57    C61     1.356   .     D
N57    C67     1.356   .     S
N57    Cu186   2.106   .     S
N58    C62     1.356   1_545 S
N58    C68     1.356   .     D
N59    C63     1.356   .     D
N59    C65     1.356   .     S
N59    Cu186   2.106   .     S
N60    C64     1.356   .     S
N60    C66     1.356   1_545 D
C61    C69     1.396   .     S
C61    C86     1.415   .     S
C62    N58     1.356   1_565 S
C62    C70     1.396   .     S
C62    C85     1.415   .     D
C63    C71     1.396   .     S
C63    C88     1.415   .     S
C64    C72     1.396   .     S
C64    C87     1.415   .     D
C65    C73     1.396   .     S
C65    C90     1.415   .     D
C66    N60     1.356   1_565 D
C66    C74     1.396   .     S
C66    C89     1.415   .     S
C67    C75     1.396   .     S
C67    C92     1.415   .     D
C68    C76     1.396   .     S
C68    C91     1.415   .     S
C69    C75     1.375   .     D
C69    H77     1.022   .     S
C70    C76     1.375   1_565 D
C70    H78     1.022   .     S
C71    C73     1.375   .     D
C71    H79     1.022   .     S
C72    C74     1.375   1_545 D
C72    H80     1.022   .     S
C73    H81     1.022   .     S
C74    C72     1.375   1_565 D
C74    H82     1.022   .     S
C75    H83     1.022   .     S
C76    C70     1.375   1_545 D
C76    H84     1.022   .     S
C85    C93     1.413   .     S
C86    C94     1.413   .     S
C87    C95     1.413   .     S
C88    C96     1.413   .     S
C89    C97     1.413   .     S
C90    C98     1.413   .     S
C91    C99     1.413   .     S
C92    C100    1.413   .     S
C93    C102    1.413   .     D
C93    C112    1.413   .     S
C94    C101    1.413   .     D
C94    C111    1.413   .     S
C95    C104    1.413   .     D
C95    C110    1.413   .     S
C96    C103    1.413   .     D
C96    C109    1.413   .     S
C97    C106    1.413   .     S
C97    C116    1.413   .     D
C98    C105    1.413   .     D
C98    C115    1.413   .     S
C99    C108    1.413   .     S
C99    C114    1.413   .     D
C100   C107    1.413   .     D
C100   C113    1.413   .     S
C101   H118    1.023   .     S
C101   C134    1.408   .     S
C102   H117    1.023   .     S
C102   C133    1.408   .     S
C103   H120    1.023   .     S
C103   C136    1.408   .     S
C104   H119    1.023   .     S
C104   C135    1.408   .     S
C105   H122    1.023   .     S
C105   C138    1.408   .     S
C106   H121    1.023   .     S
C106   C137    1.408   .     D
C107   H124    1.023   .     S
C107   C140    1.408   .     S
C108   H123    1.023   .     S
C108   C139    1.408   .     D
C109   H126    1.023   .     S
C109   C142    1.408   .     D
C110   H125    1.023   .     S
C110   C141    1.408   .     D
C111   H128    1.023   .     S
C111   C144    1.408   .     D
C112   H127    1.023   .     S
C112   C143    1.408   .     D
C113   H130    1.023   .     S
C113   C146    1.408   .     D
C114   H129    1.023   .     S
C114   C145    1.408   .     S
C115   H132    1.023   .     S
C115   C148    1.408   .     D
C116   H131    1.023   .     S
C116   C147    1.408   .     S
C133   H149    1.022   .     S
C133   C165    1.407   .     D
C134   H150    1.022   .     S
C134   C166    1.407   .     D
C135   H151    1.022   .     S
C135   C167    1.407   .     D
C136   H152    1.022   .     S
C136   C168    1.407   .     D
C137   H153    1.022   .     S
C137   C169    1.407   .     S
C138   H154    1.022   .     S
C138   C170    1.407   .     D
C139   H155    1.022   .     S
C139   C171    1.407   .     S
C140   H156    1.022   .     S
C140   C172    1.407   .     D
C141   H157    1.022   .     S
C141   C167    1.407   .     S
C142   H158    1.022   .     S
C142   C168    1.407   .     S
C143   H159    1.022   .     S
C143   C165    1.407   .     S
C144   H160    1.022   .     S
C144   C166    1.407   .     S
C145   H161    1.022   .     S
C145   C171    1.407   .     D
C146   H162    1.022   .     S
C146   C172    1.407   .     S
C147   H163    1.022   .     S
C147   C169    1.407   .     D
C148   H164    1.022   .     S
C148   C170    1.407   .     S
N181   C33     1.351   1_455 D
N182   Cu186   2.137   .     S
N183   C39     1.351   1_455 S
N183   H185    0.970   .     S
N184   Cu186   2.137   .     S
