data_196
_audit_creation_date              2023-09-08
_audit_creation_method            'Materials Studio'
_symmetry_space_group_name_H-M    'P1'
_symmetry_Int_Tables_number       1
_symmetry_cell_setting            triclinic
loop_
_symmetry_equiv_pos_as_xyz
  x,y,z
_cell_length_a                    25.2000
_cell_length_b                    25.2000
_cell_length_c                    7.7000
_cell_angle_alpha                 90.0000
_cell_angle_beta                  90.0000
_cell_angle_gamma                 90.0000
loop_
_atom_site_label
_atom_site_type_symbol
_atom_site_fract_x
_atom_site_fract_y
_atom_site_fract_z
_atom_site_U_iso_or_equiv
_atom_site_adp_type
_atom_site_occupancy
Cu1    Cu    0.32236   0.66161   0.53649   0.00000  Uiso   1.00
Cu2    Cu    0.28270   0.69593  -0.05844   0.00000  Uiso   1.00
N3     N     0.29945   0.01891   0.34234   0.00000  Uiso   1.00
N4     N     0.34366   0.30348   0.56867   0.00000  Uiso   1.00
N5     N     0.37497   0.61506   0.65320   0.00000  Uiso   1.00
N6     N     0.26871   0.60304   0.53837   0.00000  Uiso   1.00
N7     N     0.37388   0.72204   0.54305   0.00000  Uiso   1.00
N8     N     0.27128   0.70681   0.40929   0.00000  Uiso   1.00
N9     N     0.68194   0.67776   0.58685   0.00000  Uiso   1.00
N10    N     0.96509   0.64138   0.32939   0.00000  Uiso   1.00
N11    N     0.26533   0.05551  -0.07948   0.00000  Uiso   1.00
N12    N     0.30853   0.34216   0.12906   0.00000  Uiso   1.00
N13    N     0.32618   0.65660   0.11328   0.00000  Uiso   1.00
N14    N     0.23174   0.63516  -0.06555   0.00000  Uiso   1.00
N15    N     0.33596   0.75489  -0.06039   0.00000  Uiso   1.00
N16    N     0.23024   0.74277  -0.17487   0.00000  Uiso   1.00
N17    N     0.63740   0.70803   0.12610   0.00000  Uiso   1.00
N18    N     0.92370   0.66933  -0.12068   0.00000  Uiso   1.00
C19    C     0.31494  -0.14856   0.35488   0.00000  Uiso   1.00
C20    C     0.35598  -0.11797   0.28150   0.00000  Uiso   1.00
C21    C     0.26650  -0.12294   0.38996   0.00000  Uiso   1.00
C22    C     0.35109  -0.06262   0.26738   0.00000  Uiso   1.00
C23    C     0.26091  -0.06825   0.37038   0.00000  Uiso   1.00
C24    C     0.30401  -0.03737   0.32028   0.00000  Uiso   1.00
C25    C     0.33839   0.05153   0.36916   0.00000  Uiso   1.00
C26    C     0.32831   0.10727   0.42084   0.00000  Uiso   1.00
C27    C     0.27777   0.13090   0.40986   0.00000  Uiso   1.00
C28    C     0.37035   0.13632   0.49245   0.00000  Uiso   1.00
C29    C     0.27052   0.18404   0.46464   0.00000  Uiso   1.00
C30    C     0.36312   0.18946   0.54537   0.00000  Uiso   1.00
C31    C     0.31328   0.21362   0.52804   0.00000  Uiso   1.00
C32    C     0.30471   0.26979   0.57456   0.00000  Uiso   1.00
C33    C     0.33956   0.35924   0.60269   0.00000  Uiso   1.00
C34    C     0.30086   0.38041   0.71379   0.00000  Uiso   1.00
C35    C     0.37570   0.39339   0.52300   0.00000  Uiso   1.00
C36    C     0.29759   0.43526   0.73968   0.00000  Uiso   1.00
C37    C     0.37112   0.44836   0.54329   0.00000  Uiso   1.00
C38    C     0.33138   0.47013   0.65017   0.00000  Uiso   1.00
C39    C     0.32410   0.52917   0.65700   0.00000  Uiso   1.00
C40    C     0.36904   0.56140   0.69275   0.00000  Uiso   1.00
C41    C     0.27671   0.55089   0.59475   0.00000  Uiso   1.00
C42    C     0.41667   0.54139   0.76807   0.00000  Uiso   1.00
C43    C     0.22797   0.52136   0.57926   0.00000  Uiso   1.00
C44    C     0.42770   0.62723   0.69224   0.00000  Uiso   1.00
C45    C     0.45316   0.58224   0.76725   0.00000  Uiso   1.00
C46    C     0.21570   0.60521   0.48357   0.00000  Uiso   1.00
C47    C     0.19000   0.55536   0.51990   0.00000  Uiso   1.00
C48    C     0.45433   0.67580   0.65821   0.00000  Uiso   1.00
C49    C     0.19204   0.64622   0.38910   0.00000  Uiso   1.00
C50    C     0.42670   0.72047   0.59945   0.00000  Uiso   1.00
C51    C     0.36494   0.77457   0.49162   0.00000  Uiso   1.00
C52    C     0.27990   0.75810   0.34796   0.00000  Uiso   1.00
C53    C     0.22204   0.69178   0.34278   0.00000  Uiso   1.00
C54    C     0.51382   0.67499   0.64883   0.00000  Uiso   1.00
C55    C     0.44964   0.77269   0.58795   0.00000  Uiso   1.00
C56    C     0.41100   0.80630   0.53060   0.00000  Uiso   1.00
C57    C     0.32117   0.79329   0.39822   0.00000  Uiso   1.00
C58    C     0.23894   0.77276   0.23034   0.00000  Uiso   1.00
C59    C     0.20288   0.73126   0.22663   0.00000  Uiso   1.00
C60    C     0.54556   0.71140   0.73989   0.00000  Uiso   1.00
C61    C     0.53909   0.63763   0.54106   0.00000  Uiso   1.00
C62    C     0.60080   0.71185   0.71773   0.00000  Uiso   1.00
C63    C     0.59425   0.63701   0.52343   0.00000  Uiso   1.00
C64    C     0.62556   0.67442   0.61134   0.00000  Uiso   1.00
C65    C     0.71251   0.63992   0.53036   0.00000  Uiso   1.00
C66    C     0.76920   0.64991   0.49580   0.00000  Uiso   1.00
C67    C     0.80199   0.60800   0.44191   0.00000  Uiso   1.00
C68    C     0.79043   0.70134   0.50710   0.00000  Uiso   1.00
C69    C     0.85505   0.61732   0.39838   0.00000  Uiso   1.00
C70    C     0.84345   0.71065   0.46344   0.00000  Uiso   1.00
C71    C     0.87609   0.66880   0.40772   0.00000  Uiso   1.00
C72    C     0.93204   0.67965   0.36470   0.00000  Uiso   1.00
C73    C     1.02163   0.64671   0.31021   0.00000  Uiso   1.00
C74    C     1.04870   0.69228   0.36560   0.00000  Uiso   1.00
C75    C     1.05136   0.60261   0.25705   0.00000  Uiso   1.00
C76    C     1.10352   0.69151   0.38393   0.00000  Uiso   1.00
C77    C     1.10701   0.60255   0.27144   0.00000  Uiso   1.00
C78    C     1.13365   0.64612   0.34535   0.00000  Uiso   1.00
C79    C     0.27384  -0.11152  -0.17124   0.00000  Uiso   1.00
C80    C     0.30847  -0.07671  -0.25831   0.00000  Uiso   1.00
C81    C     0.23437  -0.08921  -0.06442   0.00000  Uiso   1.00
C82    C     0.30644  -0.02183  -0.22973   0.00000  Uiso   1.00
C83    C     0.23115  -0.03413  -0.04095   0.00000  Uiso   1.00
C84    C     0.26817  -0.00024  -0.11804   0.00000  Uiso   1.00
C85    C     0.30389   0.08974  -0.09032   0.00000  Uiso   1.00
C86    C     0.29539   0.14570  -0.03800   0.00000  Uiso   1.00
C87    C     0.24476   0.16382   0.01015   0.00000  Uiso   1.00
C88    C     0.33836   0.18120  -0.03107   0.00000  Uiso   1.00
C89    C     0.23722   0.21628   0.06407   0.00000  Uiso   1.00
C90    C     0.33076   0.23387   0.02286   0.00000  Uiso   1.00
C91    C     0.28006   0.25177   0.07198   0.00000  Uiso   1.00
C92    C     0.27033   0.30737   0.12603   0.00000  Uiso   1.00
C93    C     0.30304   0.39844   0.15720   0.00000  Uiso   1.00
C94    C     0.25550   0.42234   0.21268   0.00000  Uiso   1.00
C95    C     0.34543   0.43111   0.11013   0.00000  Uiso   1.00
C96    C     0.24913   0.47757   0.20217   0.00000  Uiso   1.00
C97    C     0.33868   0.48613   0.09753   0.00000  Uiso   1.00
C98    C     0.28950   0.50999   0.13371   0.00000  Uiso   1.00
C99    C     0.28089   0.56786   0.09124   0.00000  Uiso   1.00
C100   C     0.31955   0.60746   0.16269   0.00000  Uiso   1.00
C101   C     0.24062   0.58256  -0.01394   0.00000  Uiso   1.00
C102   C     0.36149   0.59182   0.28056   0.00000  Uiso   1.00
C103   C     0.19458   0.55087  -0.05361   0.00000  Uiso   1.00
C104   C     0.37805   0.67144   0.17279   0.00000  Uiso   1.00
C105   C     0.39635   0.62984   0.28649   0.00000  Uiso   1.00
C106   C     0.17910   0.63670  -0.12316   0.00000  Uiso   1.00
C107   C     0.15608   0.58448  -0.11170   0.00000  Uiso   1.00
C108   C     0.41012   0.70945   0.10530   0.00000  Uiso   1.00
C109   C     0.15162   0.68123  -0.18349   0.00000  Uiso   1.00
C110   C     0.38895   0.75251  -0.00647   0.00000  Uiso   1.00
C111   C     0.32814   0.80708  -0.11714   0.00000  Uiso   1.00
C112   C     0.23577   0.79666  -0.21284   0.00000  Uiso   1.00
C113   C     0.17780   0.73018  -0.21564   0.00000  Uiso   1.00
C114   C     0.46883   0.70700   0.13937   0.00000  Uiso   1.00
C115   C     0.41497   0.80209  -0.04431   0.00000  Uiso   1.00
C116   C     0.37709   0.83628  -0.10320   0.00000  Uiso   1.00
C117   C     0.28067   0.82906  -0.17790   0.00000  Uiso   1.00
C118   C     0.18806   0.81640  -0.28822   0.00000  Uiso   1.00
C119   C     0.15203   0.77514  -0.28989   0.00000  Uiso   1.00
C120   C     0.49773   0.75046   0.20352   0.00000  Uiso   1.00
C121   C     0.49682   0.66045   0.09894   0.00000  Uiso   1.00
C122   C     0.55342   0.74905   0.20845   0.00000  Uiso   1.00
C123   C     0.55210   0.65858   0.10592   0.00000  Uiso   1.00
C124   C     0.58112   0.70387   0.15393   0.00000  Uiso   1.00
C125   C     0.66972   0.66949   0.08815   0.00000  Uiso   1.00
C126   C     0.72568   0.67970   0.04041   0.00000  Uiso   1.00
C127   C     0.76162   0.63739   0.04571   0.00000  Uiso   1.00
C128   C     0.74312   0.72961  -0.01750   0.00000  Uiso   1.00
C129   C     0.81553   0.64497   0.00043   0.00000  Uiso   1.00
C130   C     0.79719   0.73741  -0.06005   0.00000  Uiso   1.00
C131   C     0.83361   0.69557  -0.04881   0.00000  Uiso   1.00
C132   C     0.89040   0.70692  -0.08280   0.00000  Uiso   1.00
C133   C     0.97980   0.67596  -0.14519   0.00000  Uiso   1.00
C134   C     1.00897   0.71527  -0.05777   0.00000  Uiso   1.00
C135   C     1.00672   0.63975  -0.24995   0.00000  Uiso   1.00
C136   C     1.06438   0.71719  -0.07296   0.00000  Uiso   1.00
C137   C     1.06183   0.64286  -0.27012   0.00000  Uiso   1.00
C138   C     1.09180   0.68077  -0.17890   0.00000  Uiso   1.00
F139   F     0.22236   0.20860   0.45176   0.00000  Uiso   1.00
F140   F     0.23616   0.10306   0.34258   0.00000  Uiso   1.00
F141   F     0.40328   0.21642   0.62447   0.00000  Uiso   1.00
F142   F     0.41756   0.11109   0.51758   0.00000  Uiso   1.00
F143   F     0.70733   0.76964  -0.03907   0.00000  Uiso   1.00
F144   F     0.81524   0.78529  -0.11759   0.00000  Uiso   1.00
F145   F     0.74350   0.58932   0.10267   0.00000  Uiso   1.00
F146   F     0.85055   0.60395   0.01345   0.00000  Uiso   1.00
H147   H     0.39261  -0.13649   0.24110   0.00000  Uiso   1.00
H148   H     0.23328  -0.14504   0.43875   0.00000  Uiso   1.00
H149   H     0.38413  -0.03975   0.21823   0.00000  Uiso   1.00
H150   H     0.22432  -0.04894   0.40854   0.00000  Uiso   1.00
H151   H     0.37881   0.03683   0.37544   0.00000  Uiso   1.00
H152   H     0.26445   0.28332   0.59749   0.00000  Uiso   1.00
H153   H     0.27386   0.35464   0.78280   0.00000  Uiso   1.00
H154   H     0.40602   0.37698   0.43909   0.00000  Uiso   1.00
H155   H     0.26816   0.45052   0.82879   0.00000  Uiso   1.00
H156   H     0.39809   0.47390   0.47281   0.00000  Uiso   1.00
H157   H     0.42503   0.50115   0.80915   0.00000  Uiso   1.00
H158   H     0.21948   0.48053   0.60892   0.00000  Uiso   1.00
H159   H     0.49416   0.57852   0.80755   0.00000  Uiso   1.00
H160   H     0.14877   0.54467   0.50624   0.00000  Uiso   1.00
H161   H     0.48897   0.78599   0.62081   0.00000  Uiso   1.00
H162   H     0.41614   0.84870   0.52152   0.00000  Uiso   1.00
H163   H     0.23500   0.80903   0.15666   0.00000  Uiso   1.00
H164   H     0.16696   0.73089   0.15001   0.00000  Uiso   1.00
H165   H     0.52777   0.73934   0.82918   0.00000  Uiso   1.00
H166   H     0.51610   0.60906   0.46819   0.00000  Uiso   1.00
H167   H     0.62499   0.74099   0.78485   0.00000  Uiso   1.00
H168   H     0.61188   0.60882   0.43498   0.00000  Uiso   1.00
H169   H     0.69699   0.60060   0.50511   0.00000  Uiso   1.00
H170   H     1.02814   0.72736   0.40888   0.00000  Uiso   1.00
H171   H     1.03087   0.56763   0.21066   0.00000  Uiso   1.00
H172   H     1.12240   0.72629   0.43524   0.00000  Uiso   1.00
H173   H     1.12880   0.56782   0.23066   0.00000  Uiso   1.00
H174   H     0.94505   0.72039   0.37191   0.00000  Uiso   1.00
H175   H     0.33786  -0.09205  -0.34732   0.00000  Uiso   1.00
H176   H     0.20675  -0.11442   0.00458   0.00000  Uiso   1.00
H177   H     0.33432   0.00355  -0.29635   0.00000  Uiso   1.00
H178   H     0.20133  -0.01747   0.04436   0.00000  Uiso   1.00
H179   H     0.34341   0.07737  -0.12827   0.00000  Uiso   1.00
H180   H     0.22968   0.31908   0.14945   0.00000  Uiso   1.00
H181   H     0.22278   0.39877   0.25987   0.00000  Uiso   1.00
H182   H     0.38249   0.41321   0.07002   0.00000  Uiso   1.00
H183   H     0.21161   0.49462   0.24053   0.00000  Uiso   1.00
H184   H     0.37135   0.50995   0.05284   0.00000  Uiso   1.00
H185   H     0.36724   0.55324   0.33859   0.00000  Uiso   1.00
H186   H     0.18907   0.50859  -0.04139   0.00000  Uiso   1.00
H187   H     0.43467   0.62646   0.34775   0.00000  Uiso   1.00
H188   H     0.11662   0.57096  -0.14104   0.00000  Uiso   1.00
H189   H     0.45611   0.81264  -0.02682   0.00000  Uiso   1.00
H190   H     0.38579   0.87722  -0.13015   0.00000  Uiso   1.00
H191   H     0.17906   0.85678  -0.32598   0.00000  Uiso   1.00
H192   H     0.11097   0.77883  -0.32929   0.00000  Uiso   1.00
H193   H     0.47751   0.78613   0.24457   0.00000  Uiso   1.00
H194   H     0.47565   0.62563   0.05768   0.00000  Uiso   1.00
H195   H     0.57557   0.78391   0.24742   0.00000  Uiso   1.00
H196   H     0.57141   0.62280   0.06225   0.00000  Uiso   1.00
H197   H     0.65645   0.62868   0.08944   0.00000  Uiso   1.00
H198   H     0.98935   0.74268   0.02906   0.00000  Uiso   1.00
H199   H     0.98439   0.60933  -0.31730   0.00000  Uiso   1.00
H200   H     1.08597   0.74658   0.00120   0.00000  Uiso   1.00
H201   H     1.08105   0.61530  -0.35726   0.00000  Uiso   1.00
H202   H     0.90353   0.74793  -0.07982   0.00000  Uiso   1.00
H203   H     0.76577   0.73442   0.54835   0.00000  Uiso   1.00
H204   H     0.85899   0.75067   0.47406   0.00000  Uiso   1.00
H205   H     0.78604   0.56830   0.42709   0.00000  Uiso   1.00
H206   H     0.87920   0.58473   0.35159   0.00000  Uiso   1.00
H207   H     0.19797   0.22867   0.10492   0.00000  Uiso   1.00
H208   H     0.36434   0.26081   0.02482   0.00000  Uiso   1.00
H209   H     0.37790   0.16836  -0.06847   0.00000  Uiso   1.00
H210   H     0.21127   0.13679   0.01175   0.00000  Uiso   1.00
loop_
_geom_bond_atom_site_label_1
_geom_bond_atom_site_label_2
_geom_bond_distance
_geom_bond_site_symmetry_2
_ccdc_geom_bond_type
Cu1    N5      1.985   .     S
Cu1    N6      2.002   .     S
Cu1    N7      2.002   .     S
Cu1    N8      1.978   .     S
Cu2    N13     1.983   .     S
Cu2    N14     1.999   .     S
Cu2    N15     2.002   .     S
Cu2    N16     1.986   .     S
N3     C24     1.433   .     S
N3     C25     1.297   .     D
N4     C32     1.299   .     D
N4     C33     1.433   .     S
N5     C40     1.394   .     S
N5     C44     1.396   .     D
N6     C41     1.399   .     D
N6     C46     1.402   .     S
N7     C50     1.401   .     S
N7     C51     1.400   .     D
N8     C52     1.393   .     S
N8     C53     1.395   .     D
N9     C64     1.436   .     S
N9     C65     1.301   .     D
N10    C72     1.303   .     D
N10    C73     1.439   .     S
N11    C84     1.438   .     S
N11    C85     1.302   .     D
N12    C92     1.302   .     D
N12    C93     1.441   .     S
N13    C100    1.306   .     D
N13    C104    1.435   .     S
N14    C101    1.402   .     S
N14    C106    1.399   .     D
N15    C110    1.400   .     D
N15    C111    1.400   .     S
N16    C112    1.396   .     D
N16    C113    1.395   .     S
N17    C124    1.438   .     S
N17    C125    1.301   .     D
N18    C132    1.299   .     D
N18    C133    1.436   .     S
C19    C20     1.408   .     D
C19    C21     1.407   .     S
C19    C57     1.511   1_545 S
C20    C22     1.404   .     S
C20    H147    1.080   .     S
C21    C23     1.394   .     D
C21    H148    1.073   .     S
C22    C24     1.407   .     D
C22    H149    1.081   .     S
C23    C24     1.391   .     S
C23    H150    1.083   .     S
C25    C26     1.482   .     S
C25    H151    1.085   .     S
C26    C27     1.408   .     D
C26    C28     1.401   .     S
C27    C29     1.416   .     S
C27    F140    1.364   .     S
C28    C30     1.412   .     D
C28    F142    1.363   .     S
C29    C31     1.398   .     D
C29    F139    1.366   .     S
C30    C31     1.402   .     S
C30    F141    1.363   .     S
C31    C32     1.476   .     S
C32    H152    1.085   .     S
C33    C34     1.403   .     D
C33    C35     1.395   .     S
C34    C36     1.399   .     S
C34    H153    1.080   .     S
C35    C37     1.399   .     D
C35    H154    1.083   .     S
C36    C38     1.404   .     D
C36    H155    1.081   .     S
C37    C38     1.408   .     S
C37    H156    1.082   .     S
C38    C39     1.500   .     S
C39    C40     1.421   .     D
C39    C41     1.398   .     S
C40    C42     1.425   .     S
C41    C43     1.441   .     S
C42    C45     1.380   .     D
C42    H157    1.083   .     S
C43    C47     1.363   .     D
C43    H158    1.075   .     S
C44    C45     1.425   .     S
C44    C48     1.420   .     S
C45    H159    1.083   .     S
C46    C47     1.441   .     S
C46    C49     1.397   .     D
C47    H160    1.078   .     S
C48    C50     1.399   .     D
C48    C54     1.501   .     S
C49    C53     1.420   .     S
C49    C78     1.510   1_455 S
C50    C55     1.440   .     S
C51    C56     1.441   .     S
C51    C57     1.399   .     S
C52    C57     1.420   .     D
C52    C58     1.422   .     S
C53    C59     1.422   .     S
C54    C60     1.405   .     D
C54    C61     1.407   .     S
C55    C56     1.364   .     D
C55    H161    1.076   .     S
C56    H162    1.079   .     S
C57    C19     1.511   1_565 S
C58    C59     1.386   .     D
C58    H163    1.080   .     S
C59    H164    1.081   .     S
C60    C62     1.403   .     S
C60    H165    1.081   .     S
C61    C63     1.397   .     D
C61    H166    1.081   .     S
C62    C64     1.396   .     D
C62    H167    1.085   .     S
C63    C64     1.403   .     S
C63    H168    1.080   .     S
C65    C66     1.475   .     S
C65    H169    1.083   .     S
C66    C67     1.404   .     S
C66    C68     1.405   .     D
C67    C69     1.398   .     D
C67    H205    1.084   .     S
C68    C70     1.398   .     S
C68    H203    1.087   .     S
C69    C71     1.403   .     S
C69    H206    1.084   .     S
C70    C71     1.405   .     D
C70    H204    1.085   .     S
C71    C72     1.474   .     S
C72    H174    1.079   .     S
C73    C74     1.402   .     S
C73    C75     1.401   .     D
C74    C76     1.389   .     D
C74    H170    1.077   .     S
C75    C77     1.407   .     S
C75    H171    1.082   .     S
C76    C78     1.405   .     S
C76    H172    1.073   .     S
C77    C78     1.407   .     D
C77    H173    1.080   .     S
C78    C49     1.510   1_655 S
C79    C80     1.407   .     D
C79    C81     1.408   .     S
C79    C117    1.508   1_545 S
C80    C82     1.401   .     S
C80    H175    1.081   .     S
C81    C83     1.402   .     D
C81    H176    1.082   .     S
C82    C84     1.402   .     D
C82    H177    1.080   .     S
C83    C84     1.397   .     S
C83    H178    1.083   .     S
C85    C86     1.482   .     S
C85    H179    1.084   .     S
C86    C87     1.405   .     D
C86    C88     1.406   .     S
C87    C89     1.399   .     S
C87    H210    1.085   .     S
C88    C90     1.404   .     D
C88    H209    1.086   .     S
C89    C91     1.403   .     D
C89    H207    1.084   .     S
C90    C91     1.407   .     S
C90    H208    1.085   .     S
C91    C92     1.482   .     S
C92    H180    1.081   .     S
C93    C94     1.407   .     D
C93    C95     1.397   .     S
C94    C96     1.403   .     S
C94    H181    1.079   .     S
C95    C97     1.400   .     D
C95    H182    1.082   .     S
C96    C98     1.407   .     D
C96    H183    1.080   .     S
C97    C98     1.405   .     S
C97    H184    1.075   .     S
C98    C99     1.510   .     S
C99    C100    1.499   .     S
C99    C101    1.350   .     D
C100   C102    1.448   .     S
C101   C103    1.441   .     S
C102   C105    1.301   .     D
C102   H185    1.080   .     S
C103   C107    1.363   .     D
C103   H186    1.079   .     S
C104   C105    1.442   .     S
C104   C108    1.357   .     D
C105   H187    1.078   .     S
C106   C107    1.441   .     S
C106   C109    1.398   .     S
C107   H188    1.075   .     S
C108   C110    1.484   .     S
C108   C114    1.504   .     S
C109   C113    1.421   .     D
C109   C138    1.508   1_455 S
C110   C115    1.441   .     S
C111   C116    1.440   .     S
C111   C117    1.399   .     D
C112   C117    1.421   .     S
C112   C118    1.425   .     S
C113   C119    1.426   .     S
C114   C120    1.405   .     D
C114   C121    1.404   .     S
C115   C116    1.364   .     D
C115   H189    1.079   .     S
C116   H190    1.075   .     S
C117   C79     1.508   1_565 S
C118   C119    1.380   .     D
C118   H191    1.082   .     S
C119   H192    1.082   .     S
C120   C122    1.404   .     S
C120   H193    1.081   .     S
C121   C123    1.395   .     D
C121   H194    1.075   .     S
C122   C124    1.400   .     D
C122   H195    1.083   .     S
C123   C124    1.405   .     S
C123   H196    1.078   .     S
C125   C126    1.480   .     S
C125   H197    1.081   .     S
C126   C127    1.400   .     S
C126   C128    1.405   .     D
C127   C129    1.416   .     D
C127   F145    1.367   .     S
C128   C130    1.415   .     S
C128   F143    1.363   .     S
C129   C131    1.406   .     S
C129   F146    1.363   .     S
C130   C131    1.401   .     D
C130   F144    1.363   .     S
C131   C132    1.483   .     S
C132   H202    1.085   .     S
C133   C134    1.405   .     D
C133   C135    1.394   .     S
C134   C136    1.402   .     S
C134   H198    1.081   .     S
C135   C137    1.400   .     D
C135   H199    1.083   .     S
C136   C138    1.409   .     D
C136   H200    1.082   .     S
C137   C138    1.406   .     S
C137   H201    1.080   .     S
C138   C109    1.508   1_655 S
