data_197
_audit_creation_date              2023-09-08
_audit_creation_method            'Materials Studio'
_symmetry_space_group_name_H-M    'P1'
_symmetry_Int_Tables_number       1
_symmetry_cell_setting            triclinic
loop_
_symmetry_equiv_pos_as_xyz
  x,y,z
_cell_length_a                    25.4000
_cell_length_b                    25.4000
_cell_length_c                    7.9600
_cell_angle_alpha                 90.0000
_cell_angle_beta                  90.0000
_cell_angle_gamma                 90.0000
loop_
_atom_site_label
_atom_site_type_symbol
_atom_site_fract_x
_atom_site_fract_y
_atom_site_fract_z
_atom_site_U_iso_or_equiv
_atom_site_adp_type
_atom_site_occupancy
Cu1    Cu    0.32302   0.69347   0.51967   0.00000  Uiso   1.00
Cu2    Cu    0.27217   0.72223  -0.05643   0.00000  Uiso   1.00
N3     N     0.30445   0.04907   0.34422   0.00000  Uiso   1.00
N4     N     0.35860   0.33794   0.53052   0.00000  Uiso   1.00
N5     N     0.37728   0.64958   0.63195   0.00000  Uiso   1.00
N6     N     0.27151   0.63409   0.53373   0.00000  Uiso   1.00
N7     N     0.37249   0.75464   0.51430   0.00000  Uiso   1.00
N8     N     0.26981   0.73620   0.39862   0.00000  Uiso   1.00
N9     N     0.68070   0.72019   0.56350   0.00000  Uiso   1.00
N10    N     0.96639   0.66767   0.38012   0.00000  Uiso   1.00
N11    N     0.23780   0.07785  -0.07520   0.00000  Uiso   1.00
N12    N     0.29245   0.36649   0.11144   0.00000  Uiso   1.00
N13    N     0.32541   0.67952   0.06455   0.00000  Uiso   1.00
N14    N     0.22271   0.66107  -0.05085   0.00000  Uiso   1.00
N15    N     0.32370   0.78157  -0.07087   0.00000  Uiso   1.00
N16    N     0.21782   0.76608  -0.16841   0.00000  Uiso   1.00
N17    N     0.62856   0.74940   0.09078   0.00000  Uiso   1.00
N18    N     0.91436   0.69673  -0.09112   0.00000  Uiso   1.00
C19    C     0.30941  -0.11930   0.32840   0.00000  Uiso   1.00
C20    C     0.34999  -0.08976   0.25228   0.00000  Uiso   1.00
C21    C     0.26353  -0.09190   0.37619   0.00000  Uiso   1.00
C22    C     0.34861  -0.03432   0.25039   0.00000  Uiso   1.00
C23    C     0.26110  -0.03662   0.36643   0.00000  Uiso   1.00
C24    C     0.30501  -0.00722   0.31631   0.00000  Uiso   1.00
C25    C     0.34490   0.08067   0.35646   0.00000  Uiso   1.00
C26    C     0.33854   0.13773   0.40028   0.00000  Uiso   1.00
C27    C     0.28947   0.16308   0.39485   0.00000  Uiso   1.00
C28    C     0.38289   0.16733   0.44882   0.00000  Uiso   1.00
C29    C     0.28494   0.21693   0.43869   0.00000  Uiso   1.00
C30    C     0.37840   0.22170   0.49075   0.00000  Uiso   1.00
C31    C     0.32894   0.24661   0.48678   0.00000  Uiso   1.00
C32    C     0.32074   0.30322   0.53177   0.00000  Uiso   1.00
C33    C     0.35224   0.39335   0.56805   0.00000  Uiso   1.00
C34    C     0.31415   0.41202   0.68152   0.00000  Uiso   1.00
C35    C     0.38572   0.42999   0.49181   0.00000  Uiso   1.00
C36    C     0.30868   0.46631   0.71254   0.00000  Uiso   1.00
C37    C     0.37942   0.48441   0.51975   0.00000  Uiso   1.00
C38    C     0.34007   0.50380   0.62893   0.00000  Uiso   1.00
C39    C     0.33054   0.56284   0.64466   0.00000  Uiso   1.00
C40    C     0.37360   0.59598   0.67167   0.00000  Uiso   1.00
C41    C     0.28091   0.58329   0.59292   0.00000  Uiso   1.00
C42    C     0.42309   0.57778   0.73910   0.00000  Uiso   1.00
C43    C     0.23340   0.55354   0.59143   0.00000  Uiso   1.00
C44    C     0.42996   0.66321   0.66071   0.00000  Uiso   1.00
C45    C     0.45760   0.61882   0.73186   0.00000  Uiso   1.00
C46    C     0.21807   0.63506   0.49039   0.00000  Uiso   1.00
C47    C     0.19396   0.58637   0.53432   0.00000  Uiso   1.00
C48    C     0.45447   0.71094   0.62210   0.00000  Uiso   1.00
C49    C     0.19256   0.67493   0.39595   0.00000  Uiso   1.00
C50    C     0.42494   0.75521   0.56618   0.00000  Uiso   1.00
C51    C     0.36143   0.80626   0.46361   0.00000  Uiso   1.00
C52    C     0.27604   0.78704   0.33484   0.00000  Uiso   1.00
C53    C     0.22024   0.71968   0.34379   0.00000  Uiso   1.00
C54    C     0.51351   0.71258   0.61291   0.00000  Uiso   1.00
C55    C     0.44578   0.80711   0.55289   0.00000  Uiso   1.00
C56    C     0.40571   0.83919   0.49586   0.00000  Uiso   1.00
C57    C     0.31607   0.82286   0.37384   0.00000  Uiso   1.00
C58    C     0.23286   0.79958   0.22511   0.00000  Uiso   1.00
C59    C     0.19858   0.75797   0.22992   0.00000  Uiso   1.00
C60    C     0.54332   0.74962   0.70303   0.00000  Uiso   1.00
C61    C     0.54027   0.67700   0.50737   0.00000  Uiso   1.00
C62    C     0.59815   0.75225   0.68330   0.00000  Uiso   1.00
C63    C     0.59525   0.67809   0.49401   0.00000  Uiso   1.00
C64    C     0.62460   0.71593   0.58202   0.00000  Uiso   1.00
C65    C     0.71252   0.68103   0.53581   0.00000  Uiso   1.00
C66    C     0.76941   0.68988   0.50911   0.00000  Uiso   1.00
C67    C     0.80504   0.65079   0.55829   0.00000  Uiso   1.00
C68    C     0.78802   0.73435   0.42322   0.00000  Uiso   1.00
C69    C     0.85923   0.65531   0.51957   0.00000  Uiso   1.00
C70    C     0.84219   0.73931   0.38676   0.00000  Uiso   1.00
C71    C     0.87766   0.69972   0.43255   0.00000  Uiso   1.00
C72    C     0.93372   0.70701   0.38945   0.00000  Uiso   1.00
C73    C     1.02224   0.67264   0.35604   0.00000  Uiso   1.00
C74    C     1.04930   0.71805   0.40670   0.00000  Uiso   1.00
C75    C     1.05132   0.62908   0.30087   0.00000  Uiso   1.00
C76    C     1.10401   0.71826   0.41331   0.00000  Uiso   1.00
C77    C     1.10673   0.63001   0.30355   0.00000  Uiso   1.00
C78    C     1.13377   0.67381   0.36916   0.00000  Uiso   1.00
C79    C     0.25555  -0.08824  -0.16996   0.00000  Uiso   1.00
C80    C     0.28696  -0.05111  -0.25509   0.00000  Uiso   1.00
C81    C     0.21648  -0.06843  -0.06053   0.00000  Uiso   1.00
C82    C     0.28174   0.00328  -0.22536   0.00000  Uiso   1.00
C83    C     0.21039  -0.01395  -0.03401   0.00000  Uiso   1.00
C84    C     0.24388   0.02237  -0.11176   0.00000  Uiso   1.00
C85    C     0.27575   0.11245  -0.07755   0.00000  Uiso   1.00
C86    C     0.26773   0.16908  -0.03278   0.00000  Uiso   1.00
C87    C     0.21832   0.19407  -0.03668   0.00000  Uiso   1.00
C88    C     0.31180   0.19865   0.01535   0.00000  Uiso   1.00
C89    C     0.21393   0.24843   0.00547   0.00000  Uiso   1.00
C90    C     0.30737   0.25248   0.05946   0.00000  Uiso   1.00
C91    C     0.25833   0.27790   0.05424   0.00000  Uiso   1.00
C92    C     0.25201   0.33490   0.09876   0.00000  Uiso   1.00
C93    C     0.29169   0.42272   0.14029   0.00000  Uiso   1.00
C94    C     0.24811   0.44943   0.20793   0.00000  Uiso   1.00
C95    C     0.33531   0.45248   0.08965   0.00000  Uiso   1.00
C96    C     0.24637   0.50484   0.20699   0.00000  Uiso   1.00
C97    C     0.33248   0.50777   0.08078   0.00000  Uiso   1.00
C98    C     0.28650   0.53473   0.12989   0.00000  Uiso   1.00
C99    C     0.27934   0.59271   0.08787   0.00000  Uiso   1.00
C100   C     0.31929   0.62856   0.12749   0.00000  Uiso   1.00
C101   C     0.23391   0.60936  -0.00132   0.00000  Uiso   1.00
C102   C     0.36237   0.61601   0.23752   0.00000  Uiso   1.00
C103   C     0.18960   0.57644  -0.03342   0.00000  Uiso   1.00
C104   C     0.37483   0.69615   0.12035   0.00000  Uiso   1.00
C105   C     0.39643   0.65780   0.23422   0.00000  Uiso   1.00
C106   C     0.17017   0.66054  -0.10167   0.00000  Uiso   1.00
C107   C     0.14941   0.60859  -0.08909   0.00000  Uiso   1.00
C108   C     0.40250   0.74096   0.06858   0.00000  Uiso   1.00
C109   C     0.14051   0.70493  -0.15602   0.00000  Uiso   1.00
C110   C     0.37707   0.78071  -0.02671   0.00000  Uiso   1.00
C111   C     0.31436   0.83225  -0.13123   0.00000  Uiso   1.00
C112   C     0.22161   0.81958  -0.20951   0.00000  Uiso   1.00
C113   C     0.16500   0.75261  -0.19522   0.00000  Uiso   1.00
C114   C     0.46116   0.74245   0.09829   0.00000  Uiso   1.00
C115   C     0.40122   0.82931  -0.07132   0.00000  Uiso   1.00
C116   C     0.36185   0.86201  -0.12967   0.00000  Uiso   1.00
C117   C     0.26478   0.85265  -0.18366   0.00000  Uiso   1.00
C118   C     0.17200   0.83782  -0.27594   0.00000  Uiso   1.00
C119   C     0.13730   0.79699  -0.26618   0.00000  Uiso   1.00
C120   C     0.48784   0.78653   0.16348   0.00000  Uiso   1.00
C121   C     0.49128   0.69818   0.05463   0.00000  Uiso   1.00
C122   C     0.54325   0.78771   0.16761   0.00000  Uiso   1.00
C123   C     0.54595   0.69864   0.06277   0.00000  Uiso   1.00
C124   C     0.57268   0.74420   0.11381   0.00000  Uiso   1.00
C125   C     0.66138   0.71017   0.08253   0.00000  Uiso   1.00
C126   C     0.71748   0.71752   0.03994   0.00000  Uiso   1.00
C127   C     0.75295   0.67799   0.08631   0.00000  Uiso   1.00
C128   C     0.73592   0.76182  -0.04763   0.00000  Uiso   1.00
C129   C     0.80713   0.68291   0.04994   0.00000  Uiso   1.00
C130   C     0.79014   0.76634  -0.08604   0.00000  Uiso   1.00
C131   C     0.82577   0.72730  -0.03626   0.00000  Uiso   1.00
C132   C     0.88269   0.73600  -0.06330   0.00000  Uiso   1.00
C133   C     0.97044   0.70073  -0.11068   0.00000  Uiso   1.00
C134   C     1.00017   0.73851  -0.02367   0.00000  Uiso   1.00
C135   C     0.99651   0.66422  -0.21228   0.00000  Uiso   1.00
C136   C     1.05514   0.73934  -0.03835   0.00000  Uiso   1.00
C137   C     1.05128   0.66662  -0.23349   0.00000  Uiso   1.00
C138   C     1.08149   0.70354  -0.14422   0.00000  Uiso   1.00
F139   F     0.16721   0.27441  -0.00941   0.00000  Uiso   1.00
F140   F     0.23790   0.24217   0.42581   0.00000  Uiso   1.00
F141   F     0.17566   0.16660  -0.09150   0.00000  Uiso   1.00
F142   F     0.24658   0.13647   0.33824   0.00000  Uiso   1.00
F143   F     0.35030   0.27896   0.11635   0.00000  Uiso   1.00
F144   F     0.42101   0.24926   0.54556   0.00000  Uiso   1.00
F145   F     0.42964   0.14141   0.46386   0.00000  Uiso   1.00
F146   F     0.35877   0.17327   0.02823   0.00000  Uiso   1.00
F147   F     0.73445   0.63712   0.18063   0.00000  Uiso   1.00
F148   F     0.78632   0.61010   0.65234   0.00000  Uiso   1.00
F149   F     0.89430   0.61872   0.57582   0.00000  Uiso   1.00
F150   F     0.84212   0.64830   0.11728   0.00000  Uiso   1.00
F151   F     0.70081   0.79822  -0.10495   0.00000  Uiso   1.00
F152   F     0.75299   0.76894   0.35596   0.00000  Uiso   1.00
F153   F     0.80891   0.80689  -0.18063   0.00000  Uiso   1.00
F154   F     0.86066   0.78022   0.29254   0.00000  Uiso   1.00
H155   H     0.38470  -0.10940   0.20503   0.00000  Uiso   1.00
H156   H     0.23096  -0.11283   0.43304   0.00000  Uiso   1.00
H157   H     0.38194  -0.01286   0.20077   0.00000  Uiso   1.00
H158   H     0.22676  -0.01598   0.41329   0.00000  Uiso   1.00
H159   H     0.38460   0.06518   0.34702   0.00000  Uiso   1.00
H160   H     0.28062   0.31612   0.55420   0.00000  Uiso   1.00
H161   H     0.28937   0.38460   0.74911   0.00000  Uiso   1.00
H162   H     0.41591   0.41588   0.40683   0.00000  Uiso   1.00
H163   H     0.27975   0.47884   0.80367   0.00000  Uiso   1.00
H164   H     0.40523   0.51132   0.45422   0.00000  Uiso   1.00
H165   H     0.43249   0.53863   0.78398   0.00000  Uiso   1.00
H166   H     0.22586   0.51346   0.62718   0.00000  Uiso   1.00
H167   H     0.49862   0.61672   0.76848   0.00000  Uiso   1.00
H168   H     0.15302   0.57518   0.52833   0.00000  Uiso   1.00
H169   H     0.48448   0.82158   0.58356   0.00000  Uiso   1.00
H170   H     0.40924   0.88142   0.48623   0.00000  Uiso   1.00
H171   H     0.22664   0.83553   0.15552   0.00000  Uiso   1.00
H172   H     0.16141   0.75649   0.16385   0.00000  Uiso   1.00
H173   H     0.52429   0.77649   0.78932   0.00000  Uiso   1.00
H174   H     0.51851   0.64834   0.43450   0.00000  Uiso   1.00
H175   H     0.62067   0.78213   0.74873   0.00000  Uiso   1.00
H176   H     0.61472   0.65068   0.41056   0.00000  Uiso   1.00
H177   H     0.69823   0.64070   0.53685   0.00000  Uiso   1.00
H178   H     1.02859   0.75221   0.45328   0.00000  Uiso   1.00
H179   H     1.03054   0.59408   0.26005   0.00000  Uiso   1.00
H180   H     1.12343   0.75344   0.45512   0.00000  Uiso   1.00
H181   H     1.12821   0.59597   0.25933   0.00000  Uiso   1.00
H182   H     0.94684   0.74669   0.36239   0.00000  Uiso   1.00
H183   H     0.31582  -0.06403  -0.34589   0.00000  Uiso   1.00
H184   H     0.19078  -0.09510   0.00643   0.00000  Uiso   1.00
H185   H     0.30655   0.03046  -0.29383   0.00000  Uiso   1.00
H186   H     0.18041   0.00050   0.05117   0.00000  Uiso   1.00
H187   H     0.31581   0.09941  -0.10035   0.00000  Uiso   1.00
H188   H     0.21232   0.35038   0.10840   0.00000  Uiso   1.00
H189   H     0.21510   0.42768   0.25840   0.00000  Uiso   1.00
H190   H     0.36968   0.43213   0.04180   0.00000  Uiso   1.00
H191   H     0.21176   0.52423   0.25622   0.00000  Uiso   1.00
H192   H     0.36484   0.52909   0.02427   0.00000  Uiso   1.00
H193   H     0.36863   0.57992   0.30633   0.00000  Uiso   1.00
H194   H     0.18610   0.53420  -0.02403   0.00000  Uiso   1.00
H195   H     0.43350   0.65930   0.30102   0.00000  Uiso   1.00
H196   H     0.11066   0.59414  -0.11912   0.00000  Uiso   1.00
H197   H     0.44216   0.84050  -0.06503   0.00000  Uiso   1.00
H198   H     0.36944   0.90202  -0.16620   0.00000  Uiso   1.00
H199   H     0.16267   0.87686  -0.32188   0.00000  Uiso   1.00
H200   H     0.09618   0.79917  -0.30167   0.00000  Uiso   1.00
H201   H     0.46611   0.82061   0.20592   0.00000  Uiso   1.00
H202   H     0.47218   0.66297   0.01125   0.00000  Uiso   1.00
H203   H     0.56376   0.82288   0.20822   0.00000  Uiso   1.00
H204   H     0.56693   0.66459   0.01657   0.00000  Uiso   1.00
H205   H     0.64835   0.67048   0.10988   0.00000  Uiso   1.00
H206   H     0.98100   0.76609   0.05991   0.00000  Uiso   1.00
H207   H     0.97373   0.63439  -0.27694   0.00000  Uiso   1.00
H208   H     1.07717   0.76803   0.03350   0.00000  Uiso   1.00
H209   H     1.06993   0.63974  -0.32056   0.00000  Uiso   1.00
H210   H     0.89708   0.77630  -0.06486   0.00000  Uiso   1.00
loop_
_geom_bond_atom_site_label_1
_geom_bond_atom_site_label_2
_geom_bond_distance
_geom_bond_site_symmetry_2
_ccdc_geom_bond_type
Cu1    N5      1.985   .     S
Cu1    N6      2.000   .     S
Cu1    N7      1.999   .     S
Cu1    N8      1.983   .     S
Cu2    N13     1.983   .     S
Cu2    N14     1.998   .     S
Cu2    N15     2.000   .     S
Cu2    N16     1.985   .     S
N3     C24     1.447   .     S
N3     C25     1.307   .     D
N4     C32     1.305   .     D
N4     C33     1.448   .     S
N5     C40     1.401   .     S
N5     C44     1.401   .     D
N6     C41     1.394   .     D
N6     C46     1.401   .     S
N7     C50     1.395   .     S
N7     C51     1.400   .     D
N8     C52     1.397   .     S
N8     C53     1.397   .     D
N9     C64     1.437   .     S
N9     C65     1.300   .     D
N10    C72     1.301   .     D
N10    C73     1.437   .     S
N11    C84     1.447   .     S
N11    C85     1.305   .     D
N12    C92     1.307   .     D
N12    C93     1.447   .     S
N13    C100    1.397   .     D
N13    C104    1.397   .     S
N14    C101    1.401   .     S
N14    C106    1.395   .     D
N15    C110    1.401   .     D
N15    C111    1.394   .     S
N16    C112    1.401   .     D
N16    C113    1.401   .     S
N17    C124    1.437   .     S
N17    C125    1.301   .     D
N18    C132    1.300   .     D
N18    C133    1.437   .     S
C19    C20     1.412   .     D
C19    C21     1.410   .     S
C19    C57     1.522   1_545 S
C20    C22     1.409   .     S
C20    H155    1.081   .     S
C21    C23     1.408   .     D
C21    H156    1.082   .     S
C22    C24     1.406   .     D
C22    H157    1.082   .     S
C23    C24     1.400   .     S
C23    H158    1.084   .     S
C25    C26     1.499   .     S
C25    H159    1.085   .     S
C26    C27     1.404   .     D
C26    C28     1.408   .     S
C27    C29     1.416   .     S
C27    F142    1.359   .     S
C28    C30     1.425   .     D
C28    F145    1.363   .     S
C29    C31     1.401   .     D
C29    F140    1.360   .     S
C30    C31     1.407   .     S
C30    F144    1.361   .     S
C31    C32     1.496   .     S
C32    H160    1.085   .     S
C33    C34     1.406   .     D
C33    C35     1.399   .     S
C34    C36     1.408   .     S
C34    H161    1.082   .     S
C35    C37     1.409   .     D
C35    H162    1.084   .     S
C36    C38     1.409   .     D
C36    H163    1.080   .     S
C37    C38     1.413   .     S
C37    H164    1.081   .     S
C38    C39     1.524   .     S
C39    C40     1.397   .     D
C39    C41     1.424   .     S
C40    C42     1.443   .     S
C41    C43     1.424   .     S
C42    C45     1.363   .     D
C42    H165    1.083   .     S
C43    C47     1.380   .     D
C43    H166    1.074   .     S
C44    C45     1.444   .     S
C44    C48     1.397   .     S
C45    H167    1.083   .     S
C46    C47     1.424   .     S
C46    C49     1.418   .     D
C47    H168    1.079   .     S
C48    C50     1.423   .     D
C48    C54     1.502   .     S
C49    C53     1.400   .     S
C49    C78     1.509   1_455 S
C50    C55     1.424   .     S
C51    C56     1.425   .     S
C51    C57     1.420   .     S
C52    C57     1.399   .     D
C52    C58     1.438   .     S
C53    C59     1.439   .     S
C54    C60     1.405   .     D
C54    C61     1.409   .     S
C55    C56     1.381   .     D
C55    H169    1.077   .     S
C56    H170    1.079   .     S
C57    C19     1.522   1_565 S
C58    C59     1.370   .     D
C58    H171    1.080   .     S
C59    H172    1.081   .     S
C60    C62     1.403   .     S
C60    H173    1.082   .     S
C61    C63     1.401   .     D
C61    H174    1.083   .     S
C62    C64     1.397   .     D
C62    H175    1.084   .     S
C63    C64     1.404   .     S
C63    H176    1.082   .     S
C65    C66     1.478   .     S
C65    H177    1.087   .     S
C66    C67     1.399   .     S
C66    C68     1.402   .     D
C67    C69     1.415   .     D
C67    F148    1.362   .     S
C68    C70     1.412   .     S
C68    F152    1.360   .     S
C69    C71     1.404   .     S
C69    F149    1.363   .     S
C70    C71     1.398   .     D
C70    F154    1.365   .     S
C71    C72     1.476   .     S
C72    H182    1.083   .     S
C73    C74     1.402   .     D
C73    C75     1.401   .     S
C74    C76     1.391   .     S
C74    H178    1.080   .     S
C75    C77     1.408   .     D
C75    H179    1.084   .     S
C76    C78     1.403   .     D
C76    H180    1.074   .     S
C77    C78     1.408   .     S
C77    H181    1.081   .     S
C78    C49     1.509   1_655 S
C79    C80     1.409   .     D
C79    C81     1.413   .     S
C79    C117    1.523   1_545 S
C80    C82     1.408   .     S
C80    H183    1.080   .     S
C81    C83     1.408   .     D
C81    H184    1.081   .     S
C82    C84     1.406   .     D
C82    H185    1.082   .     S
C83    C84     1.399   .     S
C83    H186    1.084   .     S
C85    C86     1.496   .     S
C85    H187    1.085   .     S
C86    C87     1.407   .     D
C86    C88     1.401   .     S
C87    C89     1.425   .     S
C87    F141    1.361   .     S
C88    C90     1.416   .     D
C88    F146    1.360   .     S
C89    C91     1.408   .     D
C89    F139    1.363   .     S
C90    C91     1.404   .     S
C90    F143    1.359   .     S
C91    C92     1.499   .     S
C92    H188    1.085   .     S
C93    C94     1.406   .     S
C93    C95     1.401   .     D
C94    C96     1.408   .     D
C94    H189    1.081   .     S
C95    C97     1.408   .     S
C95    H190    1.084   .     S
C96    C98     1.411   .     S
C96    H191    1.081   .     S
C97    C98     1.409   .     D
C97    H192    1.082   .     S
C98    C99     1.521   .     S
C99    C100    1.399   .     S
C99    C101    1.419   .     D
C100   C102    1.437   .     S
C101   C103    1.425   .     S
C102   C105    1.370   .     D
C102   H193    1.080   .     S
C103   C107    1.380   .     D
C103   H194    1.079   .     S
C104   C105    1.439   .     S
C104   C108    1.400   .     D
C105   H195    1.082   .     S
C106   C107    1.425   .     S
C106   C109    1.423   .     S
C107   H196    1.077   .     S
C108   C110    1.418   .     S
C108   C114    1.509   .     S
C109   C113    1.397   .     D
C109   C138    1.502   1_455 S
C110   C115    1.423   .     S
C111   C116    1.424   .     S
C111   C117    1.424   .     D
C112   C117    1.397   .     S
C112   C118    1.443   .     S
C113   C119    1.444   .     S
C114   C120    1.408   .     D
C114   C121    1.404   .     S
C115   C116    1.380   .     D
C115   H197    1.079   .     S
C116   H198    1.074   .     S
C117   C79     1.523   1_565 S
C118   C119    1.363   .     D
C118   H199    1.083   .     S
C119   H200    1.083   .     S
C120   C122    1.408   .     S
C120   H201    1.081   .     S
C121   C123    1.390   .     D
C121   H202    1.074   .     S
C122   C124    1.401   .     D
C122   H203    1.083   .     S
C123   C124    1.402   .     S
C123   H204    1.080   .     S
C125   C126    1.477   .     S
C125   H205    1.083   .     S
C126   C127    1.399   .     S
C126   C128    1.404   .     D
C127   C129    1.412   .     D
C127   F147    1.365   .     S
C128   C130    1.415   .     S
C128   F151    1.363   .     S
C129   C131    1.402   .     S
C129   F150    1.360   .     S
C130   C131    1.400   .     D
C130   F153    1.362   .     S
C131   C132    1.478   .     S
C132   H210    1.087   .     S
C133   C134    1.404   .     D
C133   C135    1.397   .     S
C134   C136    1.401   .     S
C134   H206    1.082   .     S
C135   C137    1.403   .     D
C135   H207    1.083   .     S
C136   C138    1.409   .     D
C136   H208    1.082   .     S
C137   C138    1.405   .     S
C137   H209    1.082   .     S
C138   C109    1.502   1_655 S
