data_198
_audit_creation_date              2023-09-08
_audit_creation_method            'Materials Studio'
_symmetry_space_group_name_H-M    'P1'
_symmetry_Int_Tables_number       1
_symmetry_cell_setting            triclinic
loop_
_symmetry_equiv_pos_as_xyz
  x,y,z
_cell_length_a                    29.8330
_cell_length_b                    29.8330
_cell_length_c                    3.6214
_cell_angle_alpha                 90.0000
_cell_angle_beta                  90.0000
_cell_angle_gamma                 120.0000
loop_
_atom_site_label
_atom_site_type_symbol
_atom_site_fract_x
_atom_site_fract_y
_atom_site_fract_z
_atom_site_U_iso_or_equiv
_atom_site_adp_type
_atom_site_occupancy
C1     C     0.68317   0.38629   0.00000   0.00000  Uiso   1.00
C2     C     0.62934   0.35020   0.00000   0.00000  Uiso   1.00
C3     C     0.59309   0.36240   0.00000   0.00000  Uiso   1.00
N4     N     0.60004   0.41163   0.00000   0.00000  Uiso   1.00
C5     C     0.56079   0.42318   0.00000   0.00000  Uiso   1.00
C6     C     0.51053   0.38683   0.00000   0.00000  Uiso   1.00
C7     C     0.44994   0.46320   0.00000   0.00000  Uiso   1.00
C8     C     0.48670   0.44984   0.00000   0.00000  Uiso   1.00
C9     C     0.53695   0.48675   0.00000   0.00000  Uiso   1.00
C10    C     0.47409   0.40005   0.00000   0.00000  Uiso   1.00
C11    C     0.57332   0.47290   0.00000   0.00000  Uiso   1.00
O12    O     0.59342   0.56872   0.00000   0.00000  Uiso   1.00
O13    O     0.69760   0.43014   0.00000   0.00000  Uiso   1.00
H14    H     0.44436   0.66768   0.00000   0.00000  Uiso   1.00
H15    H     0.50177   0.65196   0.00000   0.00000  Uiso   1.00
H16    H     0.56439   0.62874   0.00000   0.00000  Uiso   1.00
H17    H     0.38810   0.49879   0.00000   0.00000  Uiso   1.00
H18    H     0.63518   0.44226   0.00000   0.00000  Uiso   1.00
C19    C     0.61371   0.29688   0.00000   0.00000  Uiso   1.00
C20    C     0.64980   0.27914   0.00000   0.00000  Uiso   1.00
C21    C     0.63760   0.23069   0.00000   0.00000  Uiso   1.00
N22    N     0.58837   0.18841   0.00000   0.00000  Uiso   1.00
C23    C     0.57682   0.13761   0.00000   0.00000  Uiso   1.00
C24    C     0.61317   0.12370   0.00000   0.00000  Uiso   1.00
C25    C     0.53680   0.98674   0.00000   0.00000  Uiso   1.00
C26    C     0.55016   0.03686   0.00000   0.00000  Uiso   1.00
C27    C     0.51325   0.05020   0.00000   0.00000  Uiso   1.00
C28    C     0.59995   0.07404   0.00000   0.00000  Uiso   1.00
C29    C     0.52710   0.10042   0.00000   0.00000  Uiso   1.00
O30    O     0.43128   0.02470   0.00000   0.00000  Uiso   1.00
O31    O     0.56986   0.26746   0.00000   0.00000  Uiso   1.00
H32    H     0.33232   0.77668   0.00000   0.00000  Uiso   1.00
H33    H     0.34804   0.84981   0.00000   0.00000  Uiso   1.00
H34    H     0.37126   0.93565   0.00000   0.00000  Uiso   1.00
H35    H     0.50121   0.88931   0.00000   0.00000  Uiso   1.00
H36    H     0.55774   0.19292   0.00000   0.00000  Uiso   1.00
C37    C     0.70312   0.31683   0.00000   0.00000  Uiso   1.00
C38    C     0.72086   0.37066   0.00000   0.00000  Uiso   1.00
C39    C     0.76931   0.40691   0.00000   0.00000  Uiso   1.00
N40    N     0.81159   0.39996   0.00000   0.00000  Uiso   1.00
C41    C     0.86239   0.43921   0.00000   0.00000  Uiso   1.00
C42    C     0.87630   0.48947   0.00000   0.00000  Uiso   1.00
C43    C     0.01326   0.55006   0.00000   0.00000  Uiso   1.00
C44    C     0.96314   0.51330   0.00000   0.00000  Uiso   1.00
C45    C     0.94980   0.46305   0.00000   0.00000  Uiso   1.00
C46    C     0.92596   0.52591   0.00000   0.00000  Uiso   1.00
C47    C     0.89958   0.42668   0.00000   0.00000  Uiso   1.00
O48    O     0.97530   0.40658   0.00000   0.00000  Uiso   1.00
O49    O     0.73254   0.30240   0.00000   0.00000  Uiso   1.00
H50    H     0.22332   0.55564   0.00000   0.00000  Uiso   1.00
H51    H     0.15019   0.49823   0.00000   0.00000  Uiso   1.00
H52    H     0.06435   0.43561   0.00000   0.00000  Uiso   1.00
H53    H     0.11069   0.61190   0.00000   0.00000  Uiso   1.00
H54    H     0.80708   0.36482   0.00000   0.00000  Uiso   1.00
C55    C     0.31683   0.61371   0.00000   0.00000  Uiso   1.00
C56    C     0.37066   0.64980   0.00000   0.00000  Uiso   1.00
C57    C     0.40691   0.63760   0.00000   0.00000  Uiso   1.00
N58    N     0.39996   0.58837   0.00000   0.00000  Uiso   1.00
C59    C     0.43921   0.57682   0.00000   0.00000  Uiso   1.00
C60    C     0.48947   0.61317   0.00000   0.00000  Uiso   1.00
C61    C     0.55006   0.53680   0.00000   0.00000  Uiso   1.00
C62    C     0.51330   0.55016   0.00000   0.00000  Uiso   1.00
C63    C     0.46305   0.51325   0.00000   0.00000  Uiso   1.00
C64    C     0.52591   0.59995   0.00000   0.00000  Uiso   1.00
C65    C     0.42668   0.52710   0.00000   0.00000  Uiso   1.00
O66    O     0.40658   0.43128   0.00000   0.00000  Uiso   1.00
O67    O     0.30240   0.56986   0.00000   0.00000  Uiso   1.00
H68    H     0.55564   0.33232   0.00000   0.00000  Uiso   1.00
H69    H     0.49823   0.34804   0.00000   0.00000  Uiso   1.00
H70    H     0.43561   0.37126   0.00000   0.00000  Uiso   1.00
H71    H     0.61190   0.50121   0.00000   0.00000  Uiso   1.00
H72    H     0.36482   0.55774   0.00000   0.00000  Uiso   1.00
C73    C     0.38629   0.70312   0.00000   0.00000  Uiso   1.00
C74    C     0.35020   0.72086   0.00000   0.00000  Uiso   1.00
C75    C     0.36240   0.76931   0.00000   0.00000  Uiso   1.00
N76    N     0.41163   0.81159   0.00000   0.00000  Uiso   1.00
C77    C     0.42318   0.86239   0.00000   0.00000  Uiso   1.00
C78    C     0.38683   0.87630   0.00000   0.00000  Uiso   1.00
C79    C     0.46320   0.01326   0.00000   0.00000  Uiso   1.00
C80    C     0.44984   0.96314   0.00000   0.00000  Uiso   1.00
C81    C     0.48675   0.94980   0.00000   0.00000  Uiso   1.00
C82    C     0.40005   0.92596   0.00000   0.00000  Uiso   1.00
C83    C     0.47290   0.89958   0.00000   0.00000  Uiso   1.00
O84    O     0.56872   0.97530   0.00000   0.00000  Uiso   1.00
O85    O     0.43014   0.73254   0.00000   0.00000  Uiso   1.00
H86    H     0.66768   0.22332   0.00000   0.00000  Uiso   1.00
H87    H     0.65196   0.15019   0.00000   0.00000  Uiso   1.00
H88    H     0.62874   0.06435   0.00000   0.00000  Uiso   1.00
H89    H     0.49879   0.11069   0.00000   0.00000  Uiso   1.00
H90    H     0.44226   0.80708   0.00000   0.00000  Uiso   1.00
C91    C     0.29688   0.68317   0.00000   0.00000  Uiso   1.00
C92    C     0.27914   0.62934   0.00000   0.00000  Uiso   1.00
C93    C     0.23069   0.59309   0.00000   0.00000  Uiso   1.00
N94    N     0.18841   0.60004   0.00000   0.00000  Uiso   1.00
C95    C     0.13761   0.56079   0.00000   0.00000  Uiso   1.00
C96    C     0.12370   0.51053   0.00000   0.00000  Uiso   1.00
C97    C     0.98674   0.44994   0.00000   0.00000  Uiso   1.00
C98    C     0.03686   0.48670   0.00000   0.00000  Uiso   1.00
C99    C     0.05020   0.53695   0.00000   0.00000  Uiso   1.00
C100   C     0.07404   0.47409   0.00000   0.00000  Uiso   1.00
C101   C     0.10042   0.57332   0.00000   0.00000  Uiso   1.00
O102   O     0.02470   0.59342   0.00000   0.00000  Uiso   1.00
O103   O     0.26746   0.69760   0.00000   0.00000  Uiso   1.00
H104   H     0.77668   0.44436   0.00000   0.00000  Uiso   1.00
H105   H     0.84981   0.50177   0.00000   0.00000  Uiso   1.00
H106   H     0.93565   0.56439   0.00000   0.00000  Uiso   1.00
H107   H     0.88931   0.38810   0.00000   0.00000  Uiso   1.00
H108   H     0.19292   0.63518   0.00000   0.00000  Uiso   1.00
loop_
_geom_bond_atom_site_label_1
_geom_bond_atom_site_label_2
_geom_bond_distance
_geom_bond_site_symmetry_2
_ccdc_geom_bond_type
C1     C2      1.417   .     S
C1     O13     1.155   .     D
C1     C38     1.416   .     S
C2     C3      1.302   .     D
C2     C19     1.416   .     S
C3     N4      1.377   .     S
C3     H68     1.025   .     S
N4     C5      1.376   .     S
N4     H18     0.988   .     S
C5     C6      1.341   .     D
C5     C11     1.336   .     S
C6     C10     1.329   .     S
C6     H69     1.024   .     S
C7     C8      1.341   .     S
C7     C63     1.341   .     S
C7     O66     1.161   .     D
C8     C9      1.345   .     S
C8     C10     1.338   .     D
C9     C11     1.340   .     D
C9     C61     1.341   .     S
C10    H70     1.034   .     S
C11    H71     1.032   .     S
O12    C61     1.161   .     D
H14    C57     1.025   .     S
H15    C60     1.024   .     S
H16    C64     1.034   .     S
H17    C65     1.032   .     S
C19    C20     1.417   .     S
C19    O31     1.155   .     D
C20    C21     1.302   .     D
C20    C37     1.416   .     S
C21    N22     1.377   .     S
C21    H86     1.025   .     S
N22    C23     1.376   .     S
N22    H36     0.988   .     S
C23    C24     1.341   .     D
C23    C29     1.336   .     S
C24    C28     1.329   .     S
C24    H87     1.024   .     S
C25    C26     1.341   1_565 S
C25    C81     1.341   .     S
C25    O84     1.161   .     D
C26    C25     1.341   1_545 S
C26    C27     1.345   .     S
C26    C28     1.338   .     D
C27    C29     1.340   .     D
C27    C79     1.341   .     S
C28    H88     1.034   .     S
C29    H89     1.032   .     S
O30    C79     1.161   .     D
H32    C75     1.025   .     S
H33    C78     1.024   .     S
H34    C82     1.034   .     S
H35    C83     1.032   .     S
C37    C38     1.417   .     S
C37    O49     1.155   .     D
C38    C39     1.302   .     D
C39    N40     1.377   .     S
C39    H104    1.025   .     S
N40    C41     1.376   .     S
N40    H54     0.988   .     S
C41    C42     1.341   .     D
C41    C47     1.336   .     S
C42    C46     1.329   .     S
C42    H105    1.024   .     S
C43    C44     1.341   1_455 S
C43    C99     1.341   .     S
C43    O102    1.161   .     D
C44    C43     1.341   1_655 S
C44    C45     1.345   .     S
C44    C46     1.338   .     D
C45    C47     1.340   .     D
C45    C97     1.341   .     S
C46    H106    1.034   .     S
C47    H107    1.032   .     S
O48    C97     1.161   .     D
H50    C93     1.025   .     S
H51    C96     1.024   .     S
H52    C100    1.034   .     S
H53    C101    1.032   .     S
C55    C56     1.417   .     S
C55    O67     1.155   .     D
C55    C92     1.416   .     S
C56    C57     1.302   .     D
C56    C73     1.416   .     S
C57    N58     1.377   .     S
N58    C59     1.376   .     S
N58    H72     0.988   .     S
C59    C60     1.341   .     D
C59    C65     1.336   .     S
C60    C64     1.329   .     S
C61    C62     1.341   .     S
C62    C63     1.345   .     S
C62    C64     1.338   .     D
C63    C65     1.340   .     D
C73    C74     1.417   .     S
C73    O85     1.155   .     D
C74    C75     1.302   .     D
C74    C91     1.416   .     S
C75    N76     1.377   .     S
N76    C77     1.376   .     S
N76    H90     0.988   .     S
C77    C78     1.341   .     D
C77    C83     1.336   .     S
C78    C82     1.329   .     S
C79    C80     1.341   1_545 S
C80    C79     1.341   1_565 S
C80    C81     1.345   .     S
C80    C82     1.338   .     D
C81    C83     1.340   .     D
C91    C92     1.417   .     S
C91    O103    1.155   .     D
C92    C93     1.302   .     D
C93    N94     1.377   .     S
N94    C95     1.376   .     S
N94    H108    0.988   .     S
C95    C96     1.341   .     D
C95    C101    1.336   .     S
C96    C100    1.329   .     S
C97    C98     1.341   1_655 S
C98    C97     1.341   1_455 S
C98    C99     1.345   .     S
C98    C100    1.338   .     D
C99    C101    1.340   .     D
