data_199
_audit_creation_date              2023-09-08
_audit_creation_method            'Materials Studio'
_symmetry_space_group_name_H-M    'P1'
_symmetry_Int_Tables_number       1
_symmetry_cell_setting            triclinic
loop_
_symmetry_equiv_pos_as_xyz
  x,y,z
_cell_length_a                    22.7920
_cell_length_b                    22.7920
_cell_length_c                    3.4000
_cell_angle_alpha                 90.0000
_cell_angle_beta                  90.0000
_cell_angle_gamma                 120.0000
loop_
_atom_site_label
_atom_site_type_symbol
_atom_site_fract_x
_atom_site_fract_y
_atom_site_fract_z
_atom_site_U_iso_or_equiv
_atom_site_adp_type
_atom_site_occupancy
C1     C     0.69503   0.40643   0.00000   0.00000  Uiso   1.00
C2     C     0.59357   0.28860   0.00000   0.00000  Uiso   1.00
C3     C     0.71140   0.30497   0.00000   0.00000  Uiso   1.00
C4     C     0.30497   0.59357   0.00000   0.00000  Uiso   1.00
C5     C     0.40643   0.71140   0.00000   0.00000  Uiso   1.00
C6     C     0.28860   0.69503   0.00000   0.00000  Uiso   1.00
C7     C     0.62123   0.36180   0.00000   0.00000  Uiso   1.00
C8     C     0.63820   0.25943   0.00000   0.00000  Uiso   1.00
C9     C     0.74057   0.37877   0.00000   0.00000  Uiso   1.00
C10    C     0.37877   0.63820   0.00000   0.00000  Uiso   1.00
C11    C     0.36180   0.74057   0.00000   0.00000  Uiso   1.00
C12    C     0.25943   0.62123   0.00000   0.00000  Uiso   1.00
C13    C     0.57652   0.38336   0.00000   0.00000  Uiso   1.00
C14    C     0.61664   0.19316   0.00000   0.00000  Uiso   1.00
C15    C     0.80684   0.42348   0.00000   0.00000  Uiso   1.00
C16    C     0.42348   0.61664   0.00000   0.00000  Uiso   1.00
C17    C     0.38336   0.80684   0.00000   0.00000  Uiso   1.00
C18    C     0.19316   0.57652   0.00000   0.00000  Uiso   1.00
N19    N     0.59374   0.45267   0.00000   0.00000  Uiso   1.00
N20    N     0.54732   0.14106   0.00000   0.00000  Uiso   1.00
N21    N     0.85894   0.40626   0.00000   0.00000  Uiso   1.00
N22    N     0.40626   0.54733   0.00000   0.00000  Uiso   1.00
N23    N     0.45267   0.85894   0.00000   0.00000  Uiso   1.00
N24    N     0.14106   0.59374   0.00000   0.00000  Uiso   1.00
C25    C     0.43031   0.45272   0.00000   0.00000  Uiso   1.00
C26    C     0.54728   0.97759   0.00000   0.00000  Uiso   1.00
C27    C     0.02241   0.56969   0.00000   0.00000  Uiso   1.00
C28    C     0.56970   0.54728   0.00000   0.00000  Uiso   1.00
C29    C     0.45272   0.02241   0.00000   0.00000  Uiso   1.00
C30    C     0.97759   0.43031   0.00000   0.00000  Uiso   1.00
C31    C     0.47807   0.42924   0.00000   0.00000  Uiso   1.00
C32    C     0.57076   0.04883   0.00000   0.00000  Uiso   1.00
C33    C     0.95117   0.52193   0.00000   0.00000  Uiso   1.00
C34    C     0.52193   0.57076   0.00000   0.00000  Uiso   1.00
C35    C     0.42924   0.95117   0.00000   0.00000  Uiso   1.00
C36    C     0.04883   0.47807   0.00000   0.00000  Uiso   1.00
C37    C     0.54490   0.47373   0.00000   0.00000  Uiso   1.00
C38    C     0.52626   0.07117   0.00000   0.00000  Uiso   1.00
C39    C     0.92883   0.45510   0.00000   0.00000  Uiso   1.00
C40    C     0.45509   0.52626   0.00000   0.00000  Uiso   1.00
C41    C     0.47373   0.92883   0.00000   0.00000  Uiso   1.00
C42    C     0.07117   0.54490   0.00000   0.00000  Uiso   1.00
O43    O     0.62988   0.58866   0.00000   0.00000  Uiso   1.00
O44    O     0.41134   0.04122   0.00000   0.00000  Uiso   1.00
O45    O     0.95879   0.37012   0.00000   0.00000  Uiso   1.00
O46    O     0.37012   0.41134   0.00000   0.00000  Uiso   1.00
O47    O     0.58866   0.95878   0.00000   0.00000  Uiso   1.00
O48    O     0.04121   0.62988   0.00000   0.00000  Uiso   1.00
O49    O     0.72030   0.46749   0.00000   0.00000  Uiso   1.00
O50    O     0.53251   0.25281   0.00000   0.00000  Uiso   1.00
O51    O     0.74719   0.27971   0.00000   0.00000  Uiso   1.00
O52    O     0.27970   0.53251   0.00000   0.00000  Uiso   1.00
O53    O     0.46749   0.74719   0.00000   0.00000  Uiso   1.00
O54    O     0.25281   0.72029   0.00000   0.00000  Uiso   1.00
H55    H     0.47618   0.65533   0.00000   0.00000  Uiso   1.00
H56    H     0.34467   0.82086   0.00000   0.00000  Uiso   1.00
H57    H     0.17915   0.52382   0.00000   0.00000  Uiso   1.00
H58    H     0.52382   0.34467   0.00000   0.00000  Uiso   1.00
H59    H     0.65533   0.17915   0.00000   0.00000  Uiso   1.00
H60    H     0.82085   0.47618   0.00000   0.00000  Uiso   1.00
H61    H     0.64359   0.49325   0.00000   0.00000  Uiso   1.00
H62    H     0.50675   0.15033   0.00000   0.00000  Uiso   1.00
H63    H     0.84967   0.35641   0.00000   0.00000  Uiso   1.00
H64    H     0.35641   0.50675   0.00000   0.00000  Uiso   1.00
H65    H     0.49325   0.84967   0.00000   0.00000  Uiso   1.00
H66    H     0.15033   0.64359   0.00000   0.00000  Uiso   1.00
H67    H     0.54504   0.62486   0.00000   0.00000  Uiso   1.00
H68    H     0.37514   0.92018   0.00000   0.00000  Uiso   1.00
H69    H     0.07981   0.45496   0.00000   0.00000  Uiso   1.00
H70    H     0.45496   0.37514   0.00000   0.00000  Uiso   1.00
H71    H     0.62486   0.07982   0.00000   0.00000  Uiso   1.00
H72    H     0.92019   0.54504   0.00000   0.00000  Uiso   1.00
loop_
_geom_bond_atom_site_label_1
_geom_bond_atom_site_label_2
_geom_bond_distance
_geom_bond_site_symmetry_2
_ccdc_geom_bond_type
C1     C7      1.467   .     S
C1     C9      1.459   .     S
C1     O49     1.211   .     D
C2     C7      1.459   .     S
C2     C8      1.467   .     S
C2     O50     1.211   .     D
C3     C8      1.459   .     S
C3     C9      1.467   .     S
C3     O51     1.211   .     D
C4     C10     1.467   .     S
C4     C12     1.459   .     S
C4     O52     1.211   .     D
C5     C10     1.459   .     S
C5     C11     1.467   .     S
C5     O53     1.211   .     D
C6     C11     1.459   .     S
C6     C12     1.467   .     S
C6     O54     1.211   .     D
C7     C13     1.334   .     D
C8     C14     1.334   .     D
C9     C15     1.334   .     D
C10    C16     1.334   .     D
C11    C17     1.334   .     D
C12    C18     1.334   .     D
C13    N19     1.425   .     S
C13    H58     1.078   .     S
C14    N20     1.425   .     S
C14    H59     1.078   .     S
C15    N21     1.425   .     S
C15    H60     1.078   .     S
C16    N22     1.425   .     S
C16    H55     1.078   .     S
C17    N23     1.425   .     S
C17    H56     1.078   .     S
C18    N24     1.425   .     S
C18    H57     1.078   .     S
N19    C37     1.415   .     S
N19    H61     1.047   .     S
N20    C38     1.415   .     S
N20    H62     1.047   .     S
N21    C39     1.415   .     S
N21    H63     1.047   .     S
N22    C40     1.415   .     S
N22    H64     1.047   .     S
N23    C41     1.415   .     S
N23    H65     1.047   .     S
N24    C42     1.415   .     S
N24    H66     1.047   .     S
C25    C31     1.433   .     S
C25    C40     1.477   .     S
C25    O46     1.216   .     D
C26    C32     1.433   1_565 S
C26    C41     1.477   .     S
C26    O47     1.216   .     D
C27    C33     1.433   1_455 S
C27    C42     1.477   .     S
C27    O48     1.216   .     D
C28    C34     1.433   .     S
C28    C37     1.477   .     S
C28    O43     1.216   .     D
C29    C35     1.433   1_545 S
C29    C38     1.477   .     S
C29    O44     1.216   .     D
C30    C36     1.433   1_655 S
C30    C39     1.477   .     S
C30    O45     1.216   .     D
C31    C37     1.343   .     D
C31    H70     1.072   .     S
C32    C26     1.433   1_545 S
C32    C38     1.343   .     D
C32    H71     1.072   .     S
C33    C27     1.433   1_655 S
C33    C39     1.343   .     D
C33    H72     1.072   .     S
C34    C40     1.343   .     D
C34    H67     1.072   .     S
C35    C29     1.433   1_565 S
C35    C41     1.343   .     D
C35    H68     1.072   .     S
C36    C30     1.433   1_455 S
C36    C42     1.343   .     D
C36    H69     1.072   .     S
