data_2
_audit_creation_date              2023-09-08
_audit_creation_method            'Materials Studio'
_symmetry_space_group_name_H-M    'P1'
_symmetry_Int_Tables_number       1
_symmetry_cell_setting            triclinic
loop_
_symmetry_equiv_pos_as_xyz
  x,y,z
_cell_length_a                    37.1576
_cell_length_b                    37.1576
_cell_length_c                    4.3560
_cell_angle_alpha                 90.0000
_cell_angle_beta                  90.0000
_cell_angle_gamma                 120.0000
loop_
_atom_site_label
_atom_site_type_symbol
_atom_site_fract_x
_atom_site_fract_y
_atom_site_fract_z
_atom_site_U_iso_or_equiv
_atom_site_adp_type
_atom_site_occupancy
C1     C     0.29122   0.63620  -0.07661   0.00000  Uiso   1.00
C2     C     0.30262   0.67836  -0.07571   0.00000  Uiso   1.00
C3     C     0.31014   0.58008  -0.05412   0.00000  Uiso   1.00
C4     C     0.22504   0.42069   0.04954   0.00000  Uiso   1.00
C5     C     0.26010   0.45045   0.21300   0.00000  Uiso   1.00
C6     C     0.27652   0.49295   0.16262   0.00000  Uiso   1.00
C7     C     0.25751   0.50703  -0.04632   0.00000  Uiso   1.00
C8     C     0.22204   0.47787  -0.20380   0.00000  Uiso   1.00
C9     C     0.20652   0.43527  -0.16229   0.00000  Uiso   1.00
N10    N     0.27183   0.55051  -0.08719   0.00000  Uiso   1.00
C11    C     0.65069   0.81365   0.09205   0.00000  Uiso   1.00
C12    C     0.69298   0.83683   0.15533   0.00000  Uiso   1.00
C13    C     0.71116   0.87832   0.24798   0.00000  Uiso   1.00
C14    C     0.68611   0.89686   0.27571   0.00000  Uiso   1.00
C15    C     0.64369   0.87415   0.19340   0.00000  Uiso   1.00
C16    C     0.62511   0.83151   0.10799   0.00000  Uiso   1.00
C17    C     0.75648   0.90164   0.30943   0.00000  Uiso   1.00
O18    O     0.70159   0.93522   0.42749   0.00000  Uiso   1.00
O19    O     0.62010   0.89383   0.21930   0.00000  Uiso   1.00
C20    C     0.60774   0.90308  -0.06679   0.00000  Uiso   1.00
C21    C     0.77451   0.88557   0.51072   0.00000  Uiso   1.00
C22    C     0.81764   0.90611   0.55224   0.00000  Uiso   1.00
C23    C     0.84346   0.94322   0.39258   0.00000  Uiso   1.00
C24    C     0.82539   0.95922   0.19329   0.00000  Uiso   1.00
C25    C     0.78246   0.93811   0.14606   0.00000  Uiso   1.00
C26    C     0.71613   0.97102   0.23459   0.00000  Uiso   1.00
C27    C     0.70005   0.99943   0.34469   0.00000  Uiso   1.00
O28    O     0.65686   0.98059   0.28921   0.00000  Uiso   1.00
C29    C     0.64703   0.00951   0.16096   0.00000  Uiso   1.00
C30    C     0.60074   0.98823   0.08564   0.00000  Uiso   1.00
O31    O     0.58989   0.95697  -0.13969   0.00000  Uiso   1.00
C32    C     0.57599   0.91723  -0.00885   0.00000  Uiso   1.00
C33    C     0.97594   0.01935   0.52629   0.00000  Uiso   1.00
C34    C     0.95629   0.97573   0.52478   0.00000  Uiso   1.00
C35    C     0.91054   0.94971   0.51095   0.00000  Uiso   1.00
N36    N     0.88788   0.96558   0.42655   0.00000  Uiso   1.00
H37    H     0.25858   0.61273  -0.07016   0.00000  Uiso   1.00
H38    H     0.33441   0.57268  -0.00965   0.00000  Uiso   1.00
H39    H     0.27426   0.44138   0.38932   0.00000  Uiso   1.00
H40    H     0.30284   0.51469   0.29879   0.00000  Uiso   1.00
H41    H     0.20688   0.48821  -0.36469   0.00000  Uiso   1.00
H42    H     0.18011   0.41385  -0.29910   0.00000  Uiso   1.00
H43    H     0.63797   0.78114   0.03659   0.00000  Uiso   1.00
H44    H     0.71164   0.82200   0.13529   0.00000  Uiso   1.00
H45    H     0.59326   0.87528  -0.21580   0.00000  Uiso   1.00
H46    H     0.63547   0.92754  -0.18885   0.00000  Uiso   1.00
H47    H     0.75517   0.85711   0.63588   0.00000  Uiso   1.00
H48    H     0.83045   0.89336   0.71346   0.00000  Uiso   1.00
H49    H     0.84488   0.98733   0.06475   0.00000  Uiso   1.00
H50    H     0.76977   0.94934  -0.02825   0.00000  Uiso   1.00
H51    H     0.70781   0.96270  -0.01015   0.00000  Uiso   1.00
H52    H     0.75049   0.98925   0.25232   0.00000  Uiso   1.00
H53    H     0.71902   0.03009   0.22848   0.00000  Uiso   1.00
H54    H     0.70578   0.00500   0.59460   0.00000  Uiso   1.00
H55    H     0.66451   0.02277  -0.05635   0.00000  Uiso   1.00
H56    H     0.65456   0.03512   0.32685   0.00000  Uiso   1.00
H57    H     0.59454   0.01213  -0.01352   0.00000  Uiso   1.00
H58    H     0.58153   0.97735   0.29769   0.00000  Uiso   1.00
H59    H     0.56819   0.91477   0.24021   0.00000  Uiso   1.00
H60    H     0.54641   0.89506  -0.12446   0.00000  Uiso   1.00
H61    H     0.95742   0.03444   0.52359   0.00000  Uiso   1.00
H62    H     0.89652   0.91667   0.55046   0.00000  Uiso   1.00
C63    C     0.36380   0.65502  -0.07661   0.00000  Uiso   1.00
C64    C     0.32164   0.62426  -0.07571   0.00000  Uiso   1.00
C65    C     0.41992   0.73006  -0.05412   0.00000  Uiso   1.00
C66    C     0.57931   0.80435   0.04954   0.00000  Uiso   1.00
C67    C     0.54955   0.80965   0.21300   0.00000  Uiso   1.00
C68    C     0.50705   0.78357   0.16262   0.00000  Uiso   1.00
C69    C     0.49297   0.75048  -0.04632   0.00000  Uiso   1.00
C70    C     0.52213   0.74417  -0.20380   0.00000  Uiso   1.00
C71    C     0.56473   0.77125  -0.16229   0.00000  Uiso   1.00
N72    N     0.44949   0.72132  -0.08719   0.00000  Uiso   1.00
C73    C     0.18635   0.83704   0.09205   0.00000  Uiso   1.00
C74    C     0.16317   0.85615   0.15533   0.00000  Uiso   1.00
C75    C     0.12168   0.83284   0.24798   0.00000  Uiso   1.00
C76    C     0.10314   0.78925   0.27571   0.00000  Uiso   1.00
C77    C     0.12585   0.76954   0.19340   0.00000  Uiso   1.00
C78    C     0.16849   0.79360   0.10799   0.00000  Uiso   1.00
C79    C     0.09836   0.85484   0.30943   0.00000  Uiso   1.00
O80    O     0.06478   0.76637   0.42749   0.00000  Uiso   1.00
O81    O     0.10617   0.72627   0.21930   0.00000  Uiso   1.00
C82    C     0.09692   0.70466  -0.06679   0.00000  Uiso   1.00
C83    C     0.11443   0.88894   0.51072   0.00000  Uiso   1.00
C84    C     0.09389   0.91153   0.55224   0.00000  Uiso   1.00
C85    C     0.05678   0.90024   0.39258   0.00000  Uiso   1.00
C86    C     0.04078   0.86617   0.19329   0.00000  Uiso   1.00
C87    C     0.06189   0.84435   0.14606   0.00000  Uiso   1.00
C88    C     0.02898   0.74511   0.23459   0.00000  Uiso   1.00
C89    C     0.00057   0.70062   0.34469   0.00000  Uiso   1.00
O90    O     0.01941   0.67627   0.28921   0.00000  Uiso   1.00
C91    C     0.99049   0.63752   0.16096   0.00000  Uiso   1.00
C92    C     0.01177   0.61251   0.08564   0.00000  Uiso   1.00
O93    O     0.04303   0.63292  -0.13969   0.00000  Uiso   1.00
C94    C     0.08277   0.65876  -0.00885   0.00000  Uiso   1.00
C95    C     0.98065   0.95659   0.52629   0.00000  Uiso   1.00
C96    C     0.02427   0.98056   0.52478   0.00000  Uiso   1.00
C97    C     0.05029   0.96083   0.51095   0.00000  Uiso   1.00
N98    N     0.03442   0.92230   0.42655   0.00000  Uiso   1.00
H99    H     0.38727   0.64585  -0.07016   0.00000  Uiso   1.00
H100   H     0.42732   0.76173  -0.00965   0.00000  Uiso   1.00
H101   H     0.55862   0.83288   0.38932   0.00000  Uiso   1.00
H102   H     0.48531   0.78815   0.29879   0.00000  Uiso   1.00
H103   H     0.51179   0.71867  -0.36469   0.00000  Uiso   1.00
H104   H     0.58615   0.76626  -0.29910   0.00000  Uiso   1.00
H105   H     0.21886   0.85683   0.03659   0.00000  Uiso   1.00
H106   H     0.17800   0.88964   0.13529   0.00000  Uiso   1.00
H107   H     0.12472   0.71798  -0.21580   0.00000  Uiso   1.00
H108   H     0.07246   0.70793  -0.18885   0.00000  Uiso   1.00
H109   H     0.14289   0.89806   0.63588   0.00000  Uiso   1.00
H110   H     0.10664   0.93709   0.71346   0.00000  Uiso   1.00
H111   H     0.01267   0.85755   0.06475   0.00000  Uiso   1.00
H112   H     0.05066   0.82043  -0.02825   0.00000  Uiso   1.00
H113   H     0.03730   0.74511  -0.01015   0.00000  Uiso   1.00
H114   H     0.01075   0.76124   0.25232   0.00000  Uiso   1.00
H115   H     0.96991   0.68893   0.22848   0.00000  Uiso   1.00
H116   H     0.99500   0.70078   0.59460   0.00000  Uiso   1.00
H117   H     0.97723   0.64174  -0.05635   0.00000  Uiso   1.00
H118   H     0.96488   0.61944   0.32685   0.00000  Uiso   1.00
H119   H     0.98787   0.58241  -0.01352   0.00000  Uiso   1.00
H120   H     0.02265   0.60418   0.29769   0.00000  Uiso   1.00
H121   H     0.08523   0.65342   0.24021   0.00000  Uiso   1.00
H122   H     0.10494   0.65135  -0.12446   0.00000  Uiso   1.00
H123   H     0.96556   0.92298   0.52359   0.00000  Uiso   1.00
H124   H     0.08333   0.97985   0.55046   0.00000  Uiso   1.00
C125   C     0.34498   0.70878  -0.07661   0.00000  Uiso   1.00
C126   C     0.37574   0.69738  -0.07571   0.00000  Uiso   1.00
C127   C     0.26994   0.68986  -0.05412   0.00000  Uiso   1.00
C128   C     0.19565   0.77496   0.04954   0.00000  Uiso   1.00
C129   C     0.19035   0.73990   0.21300   0.00000  Uiso   1.00
C130   C     0.21643   0.72348   0.16262   0.00000  Uiso   1.00
C131   C     0.24952   0.74249  -0.04632   0.00000  Uiso   1.00
C132   C     0.25583   0.77796  -0.20380   0.00000  Uiso   1.00
C133   C     0.22875   0.79348  -0.16229   0.00000  Uiso   1.00
N134   N     0.27868   0.72817  -0.08719   0.00000  Uiso   1.00
C135   C     0.16296   0.34931   0.09205   0.00000  Uiso   1.00
C136   C     0.14385   0.30702   0.15533   0.00000  Uiso   1.00
C137   C     0.16716   0.28884   0.24798   0.00000  Uiso   1.00
C138   C     0.21075   0.31389   0.27571   0.00000  Uiso   1.00
C139   C     0.23046   0.35631   0.19340   0.00000  Uiso   1.00
C140   C     0.20640   0.37489   0.10799   0.00000  Uiso   1.00
C141   C     0.14516   0.24352   0.30943   0.00000  Uiso   1.00
O142   O     0.23363   0.29841   0.42749   0.00000  Uiso   1.00
O143   O     0.27373   0.37990   0.21930   0.00000  Uiso   1.00
C144   C     0.29534   0.39226  -0.06679   0.00000  Uiso   1.00
C145   C     0.11106   0.22549   0.51072   0.00000  Uiso   1.00
C146   C     0.08847   0.18236   0.55224   0.00000  Uiso   1.00
C147   C     0.09976   0.15654   0.39258   0.00000  Uiso   1.00
C148   C     0.13383   0.17461   0.19329   0.00000  Uiso   1.00
C149   C     0.15565   0.21754   0.14606   0.00000  Uiso   1.00
C150   C     0.25489   0.28387   0.23459   0.00000  Uiso   1.00
C151   C     0.29938   0.29995   0.34469   0.00000  Uiso   1.00
O152   O     0.32373   0.34314   0.28921   0.00000  Uiso   1.00
C153   C     0.36248   0.35297   0.16096   0.00000  Uiso   1.00
C154   C     0.38749   0.39926   0.08564   0.00000  Uiso   1.00
O155   O     0.36708   0.41011  -0.13969   0.00000  Uiso   1.00
C156   C     0.34124   0.42401  -0.00885   0.00000  Uiso   1.00
C157   C     0.04341   0.02406   0.52629   0.00000  Uiso   1.00
C158   C     0.01944   0.04371   0.52478   0.00000  Uiso   1.00
C159   C     0.03917   0.08946   0.51095   0.00000  Uiso   1.00
N160   N     0.07770   0.11212   0.42655   0.00000  Uiso   1.00
H161   H     0.35415   0.74142  -0.07016   0.00000  Uiso   1.00
H162   H     0.23827   0.66559  -0.00965   0.00000  Uiso   1.00
H163   H     0.16712   0.72574   0.38932   0.00000  Uiso   1.00
H164   H     0.21185   0.69716   0.29879   0.00000  Uiso   1.00
H165   H     0.28133   0.79312  -0.36469   0.00000  Uiso   1.00
H166   H     0.23374   0.81989  -0.29910   0.00000  Uiso   1.00
H167   H     0.14317   0.36203   0.03659   0.00000  Uiso   1.00
H168   H     0.11036   0.28836   0.13529   0.00000  Uiso   1.00
H169   H     0.28202   0.40674  -0.21580   0.00000  Uiso   1.00
H170   H     0.29207   0.36453  -0.18885   0.00000  Uiso   1.00
H171   H     0.10194   0.24483   0.63588   0.00000  Uiso   1.00
H172   H     0.06291   0.16955   0.71346   0.00000  Uiso   1.00
H173   H     0.14245   0.15512   0.06475   0.00000  Uiso   1.00
H174   H     0.17957   0.23023  -0.02825   0.00000  Uiso   1.00
H175   H     0.25489   0.29219  -0.01015   0.00000  Uiso   1.00
H176   H     0.23876   0.24951   0.25232   0.00000  Uiso   1.00
H177   H     0.31107   0.28098   0.22848   0.00000  Uiso   1.00
H178   H     0.29922   0.29422   0.59460   0.00000  Uiso   1.00
H179   H     0.35826   0.33549  -0.05635   0.00000  Uiso   1.00
H180   H     0.38056   0.34544   0.32685   0.00000  Uiso   1.00
H181   H     0.41759   0.40546  -0.01352   0.00000  Uiso   1.00
H182   H     0.39582   0.41847   0.29769   0.00000  Uiso   1.00
H183   H     0.34658   0.43181   0.24021   0.00000  Uiso   1.00
H184   H     0.34865   0.45359  -0.12446   0.00000  Uiso   1.00
H185   H     0.07702   0.04258   0.52359   0.00000  Uiso   1.00
H186   H     0.02015   0.10348   0.55046   0.00000  Uiso   1.00
loop_
_geom_bond_atom_site_label_1
_geom_bond_atom_site_label_2
_geom_bond_distance
_geom_bond_site_symmetry_2
_ccdc_geom_bond_type
C1     C2      1.404   .     D
C1     H37     1.084   .     S
C1     C64     1.406   .     S
C2     C125    1.406   .     S
C2     C127    1.478   .     S
C3     N10     1.300   .     D
C3     H38     1.084   .     S
C3     C64     1.478   .     S
C4     C5      1.409   .     D
C4     C9      1.411   .     S
C4     C140    1.504   .     S
C5     C6      1.397   .     S
C5     H39     1.076   .     S
C6     C7      1.404   .     D
C6     H40     1.082   .     S
C7     C8      1.398   .     S
C7     N10     1.437   .     S
C8     C9      1.399   .     D
C8     H41     1.083   .     S
C9     H42     1.082   .     S
C11    C12     1.391   .     S
C11    C16     1.407   .     D
C11    H43     1.082   .     S
C12    C13     1.398   .     D
C12    H44     1.084   .     S
C13    C14     1.413   .     S
C13    C17     1.483   .     S
C14    C15     1.412   .     D
C14    O18     1.407   .     S
C15    C16     1.425   .     S
C15    O19     1.399   .     S
C16    C66     1.504   .     S
C17    C21     1.405   .     D
C17    C25     1.402   .     S
O18    C26     1.431   .     S
O19    C20     1.428   .     S
C20    C32     1.534   .     S
C20    H45     1.105   .     S
C20    H46     1.111   .     S
C21    C22     1.400   .     S
C21    H47     1.083   .     S
C22    C23     1.408   .     D
C22    H48     1.082   .     S
C23    C24     1.399   .     S
C23    N36     1.437   .     S
C24    C25     1.397   .     D
C24    H49     1.083   .     S
C25    H50     1.082   .     S
C26    C27     1.527   .     S
C26    H51     1.110   .     S
C26    H52     1.109   .     S
C27    O28     1.414   .     S
C27    H53     1.117   1_565 S
C27    H54     1.109   1_565 S
O28    C29     1.412   1_565 S
C29    O28     1.412   1_545 S
C29    C30     1.527   1_545 S
C29    H55     1.114   .     S
C29    H56     1.113   .     S
C30    C29     1.527   1_565 S
C30    O31     1.417   .     S
C30    H57     1.110   1_565 S
C30    H58     1.112   .     S
O31    C32     1.418   .     S
C32    H59     1.115   .     S
C32    H60     1.111   .     S
C33    C34     1.406   1_545 D
C33    H61     1.083   .     S
C33    C158    1.403   1_655 S
C34    C33     1.406   1_565 D
C34    C35     1.478   .     S
C34    C95     1.403   .     S
C35    N36     1.299   .     D
C35    H62     1.081   .     S
H53    C27     1.117   1_545 S
H54    C27     1.109   1_545 S
H57    C30     1.110   1_545 S
C63    C64     1.404   .     D
C63    H99     1.084   .     S
C63    C126    1.406   .     S
C65    N72     1.300   .     D
C65    H100    1.084   .     S
C65    C126    1.478   .     S
C66    C67     1.409   .     S
C66    C71     1.411   .     D
C67    C68     1.397   .     D
C67    H101    1.076   .     S
C68    C69     1.404   .     S
C68    H102    1.082   .     S
C69    C70     1.398   .     D
C69    N72     1.437   .     S
C70    C71     1.399   .     S
C70    H103    1.083   .     S
C71    H104    1.082   .     S
C73    C74     1.391   .     D
C73    C78     1.407   .     S
C73    H105    1.082   .     S
C74    C75     1.398   .     S
C74    H106    1.084   .     S
C75    C76     1.413   .     D
C75    C79     1.483   .     S
C76    C77     1.412   .     S
C76    O80     1.407   .     S
C77    C78     1.425   .     D
C77    O81     1.399   .     S
C78    C128    1.504   .     S
C79    C83     1.405   .     D
C79    C87     1.402   .     S
O80    C88     1.431   .     S
O81    C82     1.428   .     S
C82    C94     1.534   .     S
C82    H107    1.105   .     S
C82    H108    1.111   .     S
C83    C84     1.400   .     S
C83    H109    1.083   .     S
C84    C85     1.408   .     D
C84    H110    1.082   .     S
C85    C86     1.399   .     S
C85    N98     1.437   .     S
C86    C87     1.397   .     D
C86    H111    1.083   .     S
C87    H112    1.082   .     S
C88    C89     1.527   .     S
C88    H113    1.110   .     S
C88    H114    1.109   .     S
C89    O90     1.414   .     S
C89    H115    1.117   1_455 S
C89    H116    1.109   1_455 S
O90    C91     1.412   1_455 S
C91    O90     1.412   1_655 S
C91    C92     1.527   1_655 S
C91    H117    1.114   .     S
C91    H118    1.113   .     S
C92    C91     1.527   1_455 S
C92    O93     1.417   .     S
C92    H119    1.110   1_455 S
C92    H120    1.112   .     S
O93    C94     1.418   .     S
C94    H121    1.115   .     S
C94    H122    1.111   .     S
C95    C96     1.406   1_655 D
C95    H123    1.083   .     S
C96    C95     1.406   1_455 D
C96    C97     1.478   .     S
C96    C157    1.403   1_565 S
C97    N98     1.299   .     D
C97    H124    1.081   .     S
H115   C89     1.117   1_655 S
H116   C89     1.109   1_655 S
H119   C92     1.110   1_655 S
C125   C126    1.404   .     D
C125   H161    1.084   .     S
C127   N134    1.300   .     D
C127   H162    1.084   .     S
C128   C129    1.409   .     D
C128   C133    1.411   .     S
C129   C130    1.397   .     S
C129   H163    1.076   .     S
C130   C131    1.404   .     D
C130   H164    1.082   .     S
C131   C132    1.398   .     S
C131   N134    1.437   .     S
C132   C133    1.399   .     D
C132   H165    1.083   .     S
C133   H166    1.082   .     S
C135   C136    1.391   .     S
C135   C140    1.407   .     D
C135   H167    1.082   .     S
C136   C137    1.398   .     D
C136   H168    1.084   .     S
C137   C138    1.413   .     S
C137   C141    1.483   .     S
C138   C139    1.412   .     D
C138   O142    1.407   .     S
C139   C140    1.425   .     S
C139   O143    1.399   .     S
C141   C145    1.405   .     D
C141   C149    1.402   .     S
O142   C150    1.431   .     S
O143   C144    1.428   .     S
C144   C156    1.534   .     S
C144   H169    1.105   .     S
C144   H170    1.111   .     S
C145   C146    1.400   .     S
C145   H171    1.083   .     S
C146   C147    1.408   .     D
C146   H172    1.082   .     S
C147   C148    1.399   .     S
C147   N160    1.437   .     S
C148   C149    1.397   .     D
C148   H173    1.083   .     S
C149   H174    1.082   .     S
C150   C151    1.527   .     S
C150   H175    1.110   .     S
C150   H176    1.109   .     S
C151   O152    1.414   .     S
C151   H177    1.117   .     S
C151   H178    1.109   .     S
O152   C153    1.412   .     S
C153   C154    1.527   .     S
C153   H179    1.114   .     S
C153   H180    1.113   .     S
C154   O155    1.417   .     S
C154   H181    1.110   .     S
C154   H182    1.112   .     S
O155   C156    1.418   .     S
C156   H183    1.115   .     S
C156   H184    1.111   .     S
C157   C96     1.403   1_545 S
C157   C158    1.406   .     D
C157   H185    1.083   .     S
C158   C33     1.403   1_455 S
C158   C159    1.478   .     S
C159   N160    1.299   .     D
C159   H186    1.081   .     S
