data_200
_audit_creation_date              2023-09-08
_audit_creation_method            'Materials Studio'
_symmetry_space_group_name_H-M    'P1'
_symmetry_Int_Tables_number       1
_symmetry_cell_setting            triclinic
loop_
_symmetry_equiv_pos_as_xyz
  x,y,z
_cell_length_a                    22.5560
_cell_length_b                    22.5560
_cell_length_c                    3.4000
_cell_angle_alpha                 90.0000
_cell_angle_beta                  90.0000
_cell_angle_gamma                 120.0000
loop_
_atom_site_label
_atom_site_type_symbol
_atom_site_fract_x
_atom_site_fract_y
_atom_site_fract_z
_atom_site_U_iso_or_equiv
_atom_site_adp_type
_atom_site_occupancy
O11    O     0.28355   0.52709   0.50000   0.00000  Uiso   1.00
N12    N     0.41129   0.55212   0.50000   0.00000  Uiso   1.00
C53    C     0.30695   0.59146   0.50000   0.00000  Uiso   1.00
C44    C     0.38113   0.64063   0.50000   0.00000  Uiso   1.00
C35    C     0.42797   0.61784   0.50000   0.00000  Uiso   1.00
C16    C     0.45481   0.52704   0.50000   0.00000  Uiso   1.00
C27    C     0.42936   0.45590   0.50000   0.00000  Uiso   1.00
C28    C     0.52674   0.57065   0.50000   0.00000  Uiso   1.00
H29    H     0.37353   0.42043   0.50000   0.00000  Uiso   1.00
H310   H     0.48370   0.65597   0.50000   0.00000  Uiso   1.00
H211   H     0.54893   0.62685   0.50000   0.00000  Uiso   1.00
H112   H     0.35757   0.51744   0.50000   0.00000  Uiso   1.00
O113   O     0.47291   0.75646   0.50000   0.00000  Uiso   1.00
N114   N     0.44788   0.85917   0.50000   0.00000  Uiso   1.00
C515   C     0.40854   0.71549   0.50000   0.00000  Uiso   1.00
C416   C     0.35937   0.74050   0.50000   0.00000  Uiso   1.00
C317   C     0.38216   0.81013   0.50000   0.00000  Uiso   1.00
C118   C     0.47296   0.92777   0.50000   0.00000  Uiso   1.00
C219   C     0.54410   0.97346   0.50000   0.00000  Uiso   1.00
C220   C     0.42935   0.95609   0.50000   0.00000  Uiso   1.00
H221   H     0.57957   0.95310   0.50000   0.00000  Uiso   1.00
H322   H     0.34403   0.82773   0.50000   0.00000  Uiso   1.00
H223   H     0.37315   0.92208   0.50000   0.00000  Uiso   1.00
H124   H     0.48256   0.84013   0.50000   0.00000  Uiso   1.00
O125   O     0.24354   0.71645   0.50000   0.00000  Uiso   1.00
N126   N     0.14083   0.58871   0.50000   0.00000  Uiso   1.00
C527   C     0.28451   0.69305   0.50000   0.00000  Uiso   1.00
C428   C     0.25950   0.61887   0.50000   0.00000  Uiso   1.00
C329   C     0.18987   0.57203   0.50000   0.00000  Uiso   1.00
C130   C     0.07223   0.54519   0.50000   0.00000  Uiso   1.00
C231   C     0.02654   0.57064   0.50000   0.00000  Uiso   1.00
C232   C     0.04391   0.47326   0.50000   0.00000  Uiso   1.00
H233   H     0.04690   0.62647   0.50000   0.00000  Uiso   1.00
H334   H     0.17227   0.51630   0.50000   0.00000  Uiso   1.00
H235   H     0.07792   0.45107   0.50000   0.00000  Uiso   1.00
H136   H     0.15987   0.64243   0.50000   0.00000  Uiso   1.00
O137   O     0.71645   0.47291   0.50000   0.00000  Uiso   1.00
N138   N     0.58871   0.44788   0.50000   0.00000  Uiso   1.00
C539   C     0.69305   0.40854   0.50000   0.00000  Uiso   1.00
C440   C     0.61887   0.35937   0.50000   0.00000  Uiso   1.00
C341   C     0.57203   0.38216   0.50000   0.00000  Uiso   1.00
C142   C     0.54519   0.47296   0.50000   0.00000  Uiso   1.00
C243   C     0.57064   0.54410   0.50000   0.00000  Uiso   1.00
C244   C     0.47326   0.42935   0.50000   0.00000  Uiso   1.00
H245   H     0.62647   0.57957   0.50000   0.00000  Uiso   1.00
H346   H     0.51630   0.34403   0.50000   0.00000  Uiso   1.00
H247   H     0.45107   0.37315   0.50000   0.00000  Uiso   1.00
H148   H     0.64243   0.48256   0.50000   0.00000  Uiso   1.00
O149   O     0.52709   0.24354   0.50000   0.00000  Uiso   1.00
N150   N     0.55212   0.14083   0.50000   0.00000  Uiso   1.00
C551   C     0.59146   0.28451   0.50000   0.00000  Uiso   1.00
C452   C     0.64063   0.25950   0.50000   0.00000  Uiso   1.00
C353   C     0.61784   0.18987   0.50000   0.00000  Uiso   1.00
C154   C     0.52704   0.07223   0.50000   0.00000  Uiso   1.00
C255   C     0.45590   0.02654   0.50000   0.00000  Uiso   1.00
C256   C     0.57065   0.04391   0.50000   0.00000  Uiso   1.00
H257   H     0.42043   0.04690   0.50000   0.00000  Uiso   1.00
H358   H     0.65597   0.17227   0.50000   0.00000  Uiso   1.00
H259   H     0.62685   0.07792   0.50000   0.00000  Uiso   1.00
H160   H     0.51744   0.15987   0.50000   0.00000  Uiso   1.00
O161   O     0.75646   0.28355   0.50000   0.00000  Uiso   1.00
N162   N     0.85917   0.41129   0.50000   0.00000  Uiso   1.00
C563   C     0.71549   0.30695   0.50000   0.00000  Uiso   1.00
C464   C     0.74050   0.38113   0.50000   0.00000  Uiso   1.00
C365   C     0.81013   0.42797   0.50000   0.00000  Uiso   1.00
C166   C     0.92777   0.45481   0.50000   0.00000  Uiso   1.00
C267   C     0.97346   0.42936   0.50000   0.00000  Uiso   1.00
C268   C     0.95609   0.52674   0.50000   0.00000  Uiso   1.00
H269   H     0.95310   0.37353   0.50000   0.00000  Uiso   1.00
H370   H     0.82773   0.48370   0.50000   0.00000  Uiso   1.00
H271   H     0.92208   0.54893   0.50000   0.00000  Uiso   1.00
H172   H     0.84013   0.35757   0.50000   0.00000  Uiso   1.00
loop_
_geom_bond_atom_site_label_1
_geom_bond_atom_site_label_2
_geom_bond_distance
_geom_bond_site_symmetry_2
_ccdc_geom_bond_type
O11    C53     1.273   .     D
N12    C35     1.335   .     S
N12    C16     1.356   .     S
N12    H112    1.064   .     S
C53    C44     1.474   .     S
C53    C428    1.480   .     S
C44    C35     1.387   .     D
C44    C515    1.480   .     S
C35    H310    1.113   .     S
C16    C27     1.408   .     S
C16    C28     1.416   .     D
C27    H29     1.104   .     S
C27    C244    1.390   .     D
C28    H211    1.106   .     S
C28    C243    1.390   .     S
O113   C515    1.273   .     D
N114   C317    1.335   .     S
N114   C118    1.356   .     S
N114   H124    1.064   .     S
C515   C416    1.474   .     S
C416   C317    1.387   .     D
C416   C527    1.480   .     S
C317   H322    1.113   .     S
C118   C219    1.408   .     D
C118   C220    1.416   .     S
C219   H221    1.104   .     S
C219   C256    1.390   1_565 S
C220   H223    1.106   .     S
C220   C255    1.390   1_565 D
O125   C527    1.273   .     D
N126   C329    1.335   .     S
N126   C130    1.356   .     S
N126   H136    1.064   .     S
C527   C428    1.474   .     S
C428   C329    1.387   .     D
C329   H334    1.113   .     S
C130   C231    1.408   .     S
C130   C232    1.416   .     D
C231   H233    1.104   .     S
C231   C268    1.390   1_455 D
C232   H235    1.106   .     S
C232   C267    1.390   1_455 S
O137   C539    1.273   .     D
N138   C341    1.335   .     S
N138   C142    1.356   .     S
N138   H148    1.064   .     S
C539   C440    1.474   .     S
C539   C464    1.480   .     S
C440   C341    1.387   .     D
C440   C551    1.480   .     S
C341   H346    1.113   .     S
C142   C243    1.408   .     D
C142   C244    1.416   .     S
C243   H245    1.104   .     S
C244   H247    1.106   .     S
O149   C551    1.273   .     D
N150   C353    1.335   .     S
N150   C154    1.356   .     S
N150   H160    1.064   .     S
C551   C452    1.474   .     S
C452   C353    1.387   .     D
C452   C563    1.480   .     S
C353   H358    1.113   .     S
C154   C255    1.408   .     S
C154   C256    1.416   .     D
C255   C220    1.390   1_545 D
C255   H257    1.104   .     S
C256   C219    1.390   1_545 S
C256   H259    1.106   .     S
O161   C563    1.273   .     D
N162   C365    1.335   .     S
N162   C166    1.356   .     S
N162   H172    1.064   .     S
C563   C464    1.474   .     S
C464   C365    1.387   .     D
C365   H370    1.113   .     S
C166   C267    1.408   .     D
C166   C268    1.416   .     S
C267   C232    1.390   1_655 S
C267   H269    1.104   .     S
C268   C231    1.390   1_655 D
C268   H271    1.106   .     S
