data_201
_audit_creation_date              2023-09-08
_audit_creation_method            'Materials Studio'
_symmetry_space_group_name_H-M    'P1'
_symmetry_Int_Tables_number       1
_symmetry_cell_setting            triclinic
loop_
_symmetry_equiv_pos_as_xyz
  x,y,z
_cell_length_a                    30.0200
_cell_length_b                    30.0200
_cell_length_c                    6.8000
_cell_angle_alpha                 90.0000
_cell_angle_beta                  90.0000
_cell_angle_gamma                 120.0000
loop_
_atom_site_label
_atom_site_type_symbol
_atom_site_fract_x
_atom_site_fract_y
_atom_site_fract_z
_atom_site_U_iso_or_equiv
_atom_site_adp_type
_atom_site_occupancy
O1     O     0.14251   0.61052   0.25001   0.00000  Uiso   1.00
C2     C     0.19293   0.62060   0.25001   0.00000  Uiso   1.00
C3     C     0.23819   0.66743   0.25001   0.00000  Uiso   1.00
C4     C     0.28515   0.66663   0.25001   0.00000  Uiso   1.00
B5     B     0.11279   0.55702   0.25001   0.00000  Uiso   1.00
C6     C     0.02814   0.47158   0.25001   0.00000  Uiso   1.00
C7     C     0.05534   0.52712   0.25001   0.00000  Uiso   1.00
O8     O     0.14274   0.53366   0.25001   0.00000  Uiso   1.00
C9     C     0.02724   0.55233   0.25001   0.00000  Uiso   1.00
C10    C     0.19283   0.57375   0.25001   0.00000  Uiso   1.00
C11    C     0.23771   0.57149   0.25001   0.00000  Uiso   1.00
C12    C     0.28495   0.61884   0.25001   0.00000  Uiso   1.00
O13    O     0.61053   0.14250   0.25001   0.00000  Uiso   1.00
C14    C     0.47159   0.02813   0.25001   0.00000  Uiso   1.00
C15    C     0.62061   0.19292   0.25001   0.00000  Uiso   1.00
C16    C     0.66744   0.23818   0.25001   0.00000  Uiso   1.00
C17    C     0.66663   0.28514   0.25001   0.00000  Uiso   1.00
C18    C     0.52713   0.05533   0.25001   0.00000  Uiso   1.00
C19    C     0.55234   0.02723   0.25001   0.00000  Uiso   1.00
O20    O     0.53367   0.14273   0.25001   0.00000  Uiso   1.00
C21    C     0.57376   0.19282   0.25001   0.00000  Uiso   1.00
C22    C     0.57150   0.23770   0.25001   0.00000  Uiso   1.00
C23    C     0.61885   0.28494   0.25001   0.00000  Uiso   1.00
B24    B     0.55703   0.11278   0.25001   0.00000  Uiso   1.00
N25    N     0.55668   0.60758   0.25001   0.00000  Uiso   1.00
N26    N     0.60759   0.55667   0.25001   0.00000  Uiso   1.00
S27    S     0.62368   0.62368   0.25001   0.00000  Uiso   1.00
O28    O     0.38950   0.53198   0.25001   0.00000  Uiso   1.00
C29    C     0.37942   0.57232   0.25001   0.00000  Uiso   1.00
C30    C     0.33259   0.57075   0.25001   0.00000  Uiso   1.00
C31    C     0.33340   0.61852   0.25001   0.00000  Uiso   1.00
B32    B     0.44300   0.55576   0.25001   0.00000  Uiso   1.00
C33    C     0.52844   0.55655   0.25001   0.00000  Uiso   1.00
C34    C     0.47291   0.52821   0.25001   0.00000  Uiso   1.00
O35    O     0.46637   0.60907   0.25001   0.00000  Uiso   1.00
C36    C     0.44769   0.47490   0.25001   0.00000  Uiso   1.00
C37    C     0.42627   0.61907   0.25001   0.00000  Uiso   1.00
C38    C     0.42853   0.66621   0.25001   0.00000  Uiso   1.00
C39    C     0.38118   0.66610   0.25001   0.00000  Uiso   1.00
O40    O     0.85753   0.46804   0.25001   0.00000  Uiso   1.00
C41    C     0.97189   0.44346   0.25001   0.00000  Uiso   1.00
C42    C     0.80710   0.42769   0.25001   0.00000  Uiso   1.00
C43    C     0.76184   0.42926   0.25001   0.00000  Uiso   1.00
C44    C     0.71488   0.38149   0.25001   0.00000  Uiso   1.00
C45    C     0.94469   0.47180   0.25001   0.00000  Uiso   1.00
C46    C     0.97279   0.52511   0.25001   0.00000  Uiso   1.00
O47    O     0.85730   0.39094   0.25001   0.00000  Uiso   1.00
C48    C     0.80721   0.38094   0.25001   0.00000  Uiso   1.00
C49    C     0.76232   0.33380   0.25001   0.00000  Uiso   1.00
C50    C     0.71508   0.33391   0.25001   0.00000  Uiso   1.00
B51    B     0.88725   0.44426   0.25001   0.00000  Uiso   1.00
N52    N     0.39244   0.94909   0.25001   0.00000  Uiso   1.00
N53    N     0.44336   0.05093   0.25001   0.00000  Uiso   1.00
O54    O     0.46805   0.85752   0.25001   0.00000  Uiso   1.00
C55    C     0.42770   0.80709   0.25001   0.00000  Uiso   1.00
C56    C     0.42928   0.76184   0.25001   0.00000  Uiso   1.00
C57    C     0.38150   0.71487   0.25001   0.00000  Uiso   1.00
B58    B     0.44427   0.88724   0.25001   0.00000  Uiso   1.00
C59    C     0.44347   0.97189   0.25001   0.00000  Uiso   1.00
C60    C     0.47181   0.94468   0.25001   0.00000  Uiso   1.00
O61    O     0.39095   0.85729   0.25001   0.00000  Uiso   1.00
C62    C     0.52512   0.97278   0.25001   0.00000  Uiso   1.00
C63    C     0.38095   0.80720   0.25001   0.00000  Uiso   1.00
C64    C     0.33381   0.76231   0.25001   0.00000  Uiso   1.00
C65    C     0.33392   0.71507   0.25001   0.00000  Uiso   1.00
O66    O     0.53198   0.38949   0.25001   0.00000  Uiso   1.00
C67    C     0.55656   0.52843   0.25001   0.00000  Uiso   1.00
C68    C     0.57233   0.37941   0.25001   0.00000  Uiso   1.00
C69    C     0.57076   0.33258   0.25001   0.00000  Uiso   1.00
C70    C     0.61853   0.33339   0.25001   0.00000  Uiso   1.00
C71    C     0.52822   0.47290   0.25001   0.00000  Uiso   1.00
C72    C     0.47491   0.44768   0.25001   0.00000  Uiso   1.00
O73    O     0.60908   0.46635   0.25001   0.00000  Uiso   1.00
C74    C     0.61908   0.42626   0.25001   0.00000  Uiso   1.00
C75    C     0.66622   0.42852   0.25001   0.00000  Uiso   1.00
C76    C     0.66611   0.38117   0.25001   0.00000  Uiso   1.00
B77    B     0.55577   0.44299   0.25001   0.00000  Uiso   1.00
N78    N     0.05093   0.44334   0.25001   0.00000  Uiso   1.00
N79    N     0.94909   0.39243   0.25001   0.00000  Uiso   1.00
S80    S     0.37635   1.00000   0.25001   0.00000  Uiso   1.00
S81    S     0.00001   0.37634   0.25001   0.00000  Uiso   1.00
H82    H     0.04854   0.59467   0.25001   0.00000  Uiso   1.00
H83    H     0.23654   0.70308   0.25001   0.00000  Uiso   1.00
H84    H     0.23530   0.53385   0.25001   0.00000  Uiso   1.00
H85    H     0.29858   0.76472   0.25001   0.00000  Uiso   1.00
H86    H     0.46657   0.76348   0.25001   0.00000  Uiso   1.00
H87    H     0.46617   0.70144   0.25001   0.00000  Uiso   1.00
H88    H     0.29694   0.53345   0.25001   0.00000  Uiso   1.00
H89    H     0.54616   0.95149   0.25001   0.00000  Uiso   1.00
H90    H     0.40535   0.45386   0.25001   0.00000  Uiso   1.00
H91    H     0.45387   0.40534   0.25001   0.00000  Uiso   1.00
H92    H     0.70145   0.46616   0.25001   0.00000  Uiso   1.00
H93    H     0.53346   0.29693   0.25001   0.00000  Uiso   1.00
H94    H     0.76349   0.46656   0.25001   0.00000  Uiso   1.00
H95    H     0.76473   0.29857   0.25001   0.00000  Uiso   1.00
H96    H     0.70309   0.23654   0.25001   0.00000  Uiso   1.00
H97    H     0.53386   0.23529   0.25001   0.00000  Uiso   1.00
H98    H     0.59468   0.04853   0.25001   0.00000  Uiso   1.00
H99    H     0.95150   0.54616   0.25001   0.00000  Uiso   1.00
O100   O     0.14250   0.61052   0.76472   0.00000  Uiso   1.00
C101   C     0.19293   0.62060   0.76472   0.00000  Uiso   1.00
C102   C     0.23819   0.66743   0.76472   0.00000  Uiso   1.00
C103   C     0.28516   0.66663   0.76472   0.00000  Uiso   1.00
B104   B     0.11279   0.55702   0.76472   0.00000  Uiso   1.00
C105   C     0.02814   0.47157   0.76472   0.00000  Uiso   1.00
C106   C     0.05534   0.52711   0.76472   0.00000  Uiso   1.00
O107   O     0.14274   0.53366   0.76472   0.00000  Uiso   1.00
C108   C     0.02724   0.55233   0.76472   0.00000  Uiso   1.00
C109   C     0.19283   0.57375   0.76472   0.00000  Uiso   1.00
C110   C     0.23771   0.57149   0.76472   0.00000  Uiso   1.00
C111   C     0.28496   0.61884   0.76472   0.00000  Uiso   1.00
O112   O     0.61054   0.14250   0.76472   0.00000  Uiso   1.00
C113   C     0.47160   0.02813   0.76472   0.00000  Uiso   1.00
C114   C     0.62061   0.19293   0.76472   0.00000  Uiso   1.00
C115   C     0.66744   0.23818   0.76472   0.00000  Uiso   1.00
C116   C     0.66663   0.28515   0.76472   0.00000  Uiso   1.00
C117   C     0.52713   0.05533   0.76472   0.00000  Uiso   1.00
C118   C     0.55235   0.02723   0.76472   0.00000  Uiso   1.00
O119   O     0.53367   0.14273   0.76472   0.00000  Uiso   1.00
C120   C     0.57376   0.19282   0.76472   0.00000  Uiso   1.00
C121   C     0.57150   0.23770   0.76472   0.00000  Uiso   1.00
C122   C     0.61885   0.28495   0.76472   0.00000  Uiso   1.00
B123   B     0.55703   0.11278   0.76472   0.00000  Uiso   1.00
N124   N     0.55668   0.60759   0.76472   0.00000  Uiso   1.00
N125   N     0.60760   0.55668   0.76472   0.00000  Uiso   1.00
S126   S     0.62369   0.62368   0.76472   0.00000  Uiso   1.00
O127   O     0.38950   0.53198   0.76472   0.00000  Uiso   1.00
C128   C     0.37942   0.57232   0.76472   0.00000  Uiso   1.00
C129   C     0.33259   0.57075   0.76472   0.00000  Uiso   1.00
C130   C     0.33340   0.61852   0.76472   0.00000  Uiso   1.00
B131   B     0.44300   0.55576   0.76472   0.00000  Uiso   1.00
C132   C     0.52845   0.55656   0.76472   0.00000  Uiso   1.00
C133   C     0.47291   0.52822   0.76472   0.00000  Uiso   1.00
O134   O     0.46637   0.60907   0.76472   0.00000  Uiso   1.00
C135   C     0.44770   0.47491   0.76472   0.00000  Uiso   1.00
C136   C     0.42627   0.61907   0.76472   0.00000  Uiso   1.00
C137   C     0.42853   0.66621   0.76472   0.00000  Uiso   1.00
C138   C     0.38118   0.66610   0.76472   0.00000  Uiso   1.00
O139   O     0.85753   0.46804   0.76472   0.00000  Uiso   1.00
C140   C     0.97189   0.44345   0.76472   0.00000  Uiso   1.00
C141   C     0.80710   0.42769   0.76472   0.00000  Uiso   1.00
C142   C     0.76185   0.42927   0.76472   0.00000  Uiso   1.00
C143   C     0.71488   0.38150   0.76472   0.00000  Uiso   1.00
C144   C     0.94469   0.47179   0.76472   0.00000  Uiso   1.00
C145   C     0.97279   0.52511   0.76472   0.00000  Uiso   1.00
O146   O     0.85729   0.39094   0.76472   0.00000  Uiso   1.00
C147   C     0.80720   0.38094   0.76472   0.00000  Uiso   1.00
C148   C     0.76232   0.33380   0.76472   0.00000  Uiso   1.00
C149   C     0.71508   0.33391   0.76472   0.00000  Uiso   1.00
B150   B     0.88725   0.44425   0.76472   0.00000  Uiso   1.00
N151   N     0.39245   0.94909   0.76472   0.00000  Uiso   1.00
N152   N     0.44336   0.05093   0.76472   0.00000  Uiso   1.00
O153   O     0.46805   0.85752   0.76472   0.00000  Uiso   1.00
C154   C     0.42770   0.80709   0.76472   0.00000  Uiso   1.00
C155   C     0.42928   0.76184   0.76472   0.00000  Uiso   1.00
C156   C     0.38150   0.71487   0.76472   0.00000  Uiso   1.00
B157   B     0.44427   0.88724   0.76472   0.00000  Uiso   1.00
C158   C     0.44348   0.97189   0.76472   0.00000  Uiso   1.00
C159   C     0.47181   0.94468   0.76472   0.00000  Uiso   1.00
O160   O     0.39095   0.85729   0.76472   0.00000  Uiso   1.00
C161   C     0.52513   0.97278   0.76472   0.00000  Uiso   1.00
C162   C     0.38096   0.80720   0.76472   0.00000  Uiso   1.00
C163   C     0.33382   0.76231   0.76472   0.00000  Uiso   1.00
C164   C     0.33392   0.71507   0.76472   0.00000  Uiso   1.00
O165   O     0.53198   0.38949   0.76472   0.00000  Uiso   1.00
C166   C     0.55657   0.52844   0.76472   0.00000  Uiso   1.00
C167   C     0.57233   0.37941   0.76472   0.00000  Uiso   1.00
C168   C     0.57076   0.33258   0.76472   0.00000  Uiso   1.00
C169   C     0.61853   0.33339   0.76472   0.00000  Uiso   1.00
C170   C     0.52823   0.47290   0.76472   0.00000  Uiso   1.00
C171   C     0.47492   0.44769   0.76472   0.00000  Uiso   1.00
O172   O     0.60908   0.46636   0.76472   0.00000  Uiso   1.00
C173   C     0.61908   0.42627   0.76472   0.00000  Uiso   1.00
C174   C     0.66622   0.42852   0.76472   0.00000  Uiso   1.00
C175   C     0.66611   0.38117   0.76472   0.00000  Uiso   1.00
B176   B     0.55577   0.44300   0.76472   0.00000  Uiso   1.00
N177   N     0.05093   0.44334   0.76472   0.00000  Uiso   1.00
N178   N     0.94910   0.39242   0.76472   0.00000  Uiso   1.00
S179   S     0.37636   1.00000   0.76472   0.00000  Uiso   1.00
S180   S     0.00002   0.37633   0.76472   0.00000  Uiso   1.00
H181   H     0.04854   0.59466   0.76472   0.00000  Uiso   1.00
H182   H     0.23654   0.70308   0.76472   0.00000  Uiso   1.00
H183   H     0.23530   0.53385   0.76472   0.00000  Uiso   1.00
H184   H     0.29858   0.76472   0.76472   0.00000  Uiso   1.00
H185   H     0.46658   0.76348   0.76472   0.00000  Uiso   1.00
H186   H     0.46618   0.70144   0.76472   0.00000  Uiso   1.00
H187   H     0.29694   0.53345   0.76472   0.00000  Uiso   1.00
H188   H     0.54617   0.95149   0.76472   0.00000  Uiso   1.00
H189   H     0.40536   0.45386   0.76472   0.00000  Uiso   1.00
H190   H     0.45387   0.40535   0.76472   0.00000  Uiso   1.00
H191   H     0.70145   0.46617   0.76472   0.00000  Uiso   1.00
H192   H     0.53346   0.29693   0.76472   0.00000  Uiso   1.00
H193   H     0.76349   0.46656   0.76472   0.00000  Uiso   1.00
H194   H     0.76473   0.29857   0.76472   0.00000  Uiso   1.00
H195   H     0.70309   0.23654   0.76472   0.00000  Uiso   1.00
H196   H     0.53386   0.23529   0.76472   0.00000  Uiso   1.00
H197   H     0.59468   0.04853   0.76472   0.00000  Uiso   1.00
H198   H     0.95150   0.54615   0.76472   0.00000  Uiso   1.00
loop_
_geom_bond_atom_site_label_1
_geom_bond_atom_site_label_2
_geom_bond_distance
_geom_bond_site_symmetry_2
_ccdc_geom_bond_type
O1     C2      1.387   .     S
O1     B5      1.394   .     S
C2     C3      1.383   .     D
C2     C10     1.405   .     S
C3     C4      1.422   .     S
C3     H83     1.096   .     S
C4     C12     1.432   .     D
C4     C65     1.459   .     S
B5     C7      1.494   .     S
B5     O8      1.389   .     S
C6     C7      1.444   .     S
C6     C41     1.462   1_455 S
C6     N78     1.329   .     D
C7     C9      1.387   .     D
O8     C10     1.378   .     S
C9     C46     1.416   1_455 S
C9     H82     1.101   .     S
C10    C11     1.382   .     D
C11    C12     1.420   .     S
C11    H84     1.096   .     S
C12    C31     1.459   .     S
O13    C15     1.387   .     S
O13    B24     1.394   .     S
C14    C18     1.444   .     S
C14    N53     1.329   .     D
C14    C59     1.462   1_545 S
C15    C16     1.383   .     D
C15    C21     1.405   .     S
C16    C17     1.422   .     S
C16    H96     1.096   .     S
C17    C23     1.431   .     D
C17    C50     1.459   .     S
C18    C19     1.387   .     D
C18    B24     1.494   .     S
C19    C62     1.416   1_545 S
C19    H98     1.101   .     S
O20    C21     1.378   .     S
O20    B24     1.389   .     S
C21    C22     1.382   .     D
C22    C23     1.420   .     S
C22    H97     1.096   .     S
C23    C70     1.459   .     S
N25    S27     1.819   .     S
N25    C33     1.329   .     D
N26    S27     1.819   .     S
N26    C67     1.329   .     D
O28    C29     1.387   .     S
O28    B32     1.394   .     S
C29    C30     1.383   .     S
C29    C37     1.405   .     D
C30    C31     1.422   .     D
C30    H88     1.096   .     S
C31    C39     1.431   .     S
B32    C34     1.494   .     S
B32    O35     1.389   .     S
C33    C34     1.444   .     S
C33    C67     1.462   .     S
C34    C36     1.387   .     D
O35    C37     1.379   .     S
C36    C72     1.415   .     S
C36    H90     1.101   .     S
C37    C38     1.382   .     S
C38    C39     1.420   .     D
C38    H87     1.096   .     S
C39    C57     1.459   .     S
O40    C42     1.388   .     S
O40    B51     1.394   .     S
C41    C6      1.462   1_655 S
C41    C45     1.444   .     S
C41    N79     1.329   .     D
C42    C43     1.383   .     D
C42    C48     1.405   .     S
C43    C44     1.422   .     S
C43    H94     1.096   .     S
C44    C50     1.431   .     D
C44    C76     1.459   .     S
C45    C46     1.387   .     D
C45    B51     1.494   .     S
C46    C9      1.416   1_655 S
C46    H99     1.101   .     S
O47    C48     1.378   .     S
O47    B51     1.390   .     S
C48    C49     1.383   .     D
C49    C50     1.420   .     S
C49    H95     1.096   .     S
N52    C59     1.329   .     D
N52    S80     1.819   .     S
N53    S80     1.819   1_545 S
O54    C55     1.388   .     S
O54    B58     1.394   .     S
C55    C56     1.383   .     S
C55    C63     1.405   .     D
C56    C57     1.422   .     D
C56    H86     1.096   .     S
C57    C65     1.431   .     S
B58    C60     1.494   .     S
B58    O61     1.390   .     S
C59    C14     1.462   1_565 S
C59    C60     1.444   .     S
C60    C62     1.387   .     D
O61    C63     1.378   .     S
C62    C19     1.416   1_565 S
C62    H89     1.101   .     S
C63    C64     1.383   .     S
C64    C65     1.420   .     D
C64    H85     1.096   .     S
O66    C68     1.388   .     S
O66    B77     1.394   .     S
C67    C71     1.444   .     S
C68    C69     1.383   .     S
C68    C74     1.405   .     D
C69    C70     1.422   .     D
C69    H93     1.096   .     S
C70    C76     1.431   .     S
C71    C72     1.387   .     D
C71    B77     1.494   .     S
C72    H91     1.101   .     S
O73    C74     1.378   .     S
O73    B77     1.389   .     S
C74    C75     1.382   .     S
C75    C76     1.420   .     D
C75    H92     1.096   .     S
N78    S81     1.819   .     S
N79    S81     1.819   1_655 S
S80    N53     1.819   1_565 S
S81    N79     1.819   1_455 S
O100   C101    1.388   .     S
O100   B104    1.394   .     S
C101   C102    1.383   .     D
C101   C109    1.405   .     S
C102   C103    1.422   .     S
C102   H182    1.096   .     S
C103   C111    1.432   .     D
C103   C164    1.459   .     S
B104   C106    1.494   .     S
B104   O107    1.389   .     S
C105   C106    1.444   .     S
C105   C140    1.462   1_455 S
C105   N177    1.329   .     D
C106   C108    1.387   .     D
O107   C109    1.378   .     S
C108   C145    1.416   1_455 S
C108   H181    1.101   .     S
C109   C110    1.382   .     D
C110   C111    1.420   .     S
C110   H183    1.096   .     S
C111   C130    1.459   .     S
O112   C114    1.388   .     S
O112   B123    1.394   .     S
C113   C117    1.444   .     S
C113   N152    1.329   .     D
C113   C158    1.462   1_545 S
C114   C115    1.383   .     D
C114   C120    1.405   .     S
C115   C116    1.422   .     S
C115   H195    1.096   .     S
C116   C122    1.431   .     D
C116   C149    1.459   .     S
C117   C118    1.387   .     D
C117   B123    1.494   .     S
C118   C161    1.416   1_545 S
C118   H197    1.101   .     S
O119   C120    1.378   .     S
O119   B123    1.389   .     S
C120   C121    1.382   .     D
C121   C122    1.420   .     S
C121   H196    1.096   .     S
C122   C169    1.459   .     S
N124   S126    1.819   .     S
N124   C132    1.329   .     D
N125   S126    1.819   .     S
N125   C166    1.329   .     D
O127   C128    1.387   .     S
O127   B131    1.394   .     S
C128   C129    1.383   .     S
C128   C136    1.405   .     D
C129   C130    1.422   .     D
C129   H187    1.096   .     S
C130   C138    1.431   .     S
B131   C133    1.494   .     S
B131   O134    1.389   .     S
C132   C133    1.444   .     S
C132   C166    1.462   .     S
C133   C135    1.387   .     D
O134   C136    1.379   .     S
C135   C171    1.415   .     S
C135   H189    1.101   .     S
C136   C137    1.382   .     S
C137   C138    1.420   .     D
C137   H186    1.096   .     S
C138   C156    1.459   .     S
O139   C141    1.388   .     S
O139   B150    1.394   .     S
C140   C105    1.462   1_655 S
C140   C144    1.444   .     S
C140   N178    1.329   .     D
C141   C142    1.383   .     D
C141   C147    1.405   .     S
C142   C143    1.422   .     S
C142   H193    1.096   .     S
C143   C149    1.432   .     D
C143   C175    1.459   .     S
C144   C145    1.387   .     D
C144   B150    1.494   .     S
C145   C108    1.416   1_655 S
C145   H198    1.101   .     S
O146   C147    1.378   .     S
O146   B150    1.390   .     S
C147   C148    1.382   .     D
C148   C149    1.420   .     S
C148   H194    1.096   .     S
N151   C158    1.329   .     D
N151   S179    1.819   .     S
N152   S179    1.819   1_545 S
O153   C154    1.388   .     S
O153   B157    1.394   .     S
C154   C155    1.383   .     S
C154   C162    1.405   .     D
C155   C156    1.422   .     D
C155   H185    1.096   .     S
C156   C164    1.431   .     S
B157   C159    1.494   .     S
B157   O160    1.390   .     S
C158   C113    1.462   1_565 S
C158   C159    1.444   .     S
C159   C161    1.387   .     D
O160   C162    1.378   .     S
C161   C118    1.416   1_565 S
C161   H188    1.101   .     S
C162   C163    1.383   .     S
C163   C164    1.420   .     D
C163   H184    1.096   .     S
O165   C167    1.388   .     S
O165   B176    1.394   .     S
C166   C170    1.444   .     S
C167   C168    1.383   .     S
C167   C173    1.405   .     D
C168   C169    1.422   .     D
C168   H192    1.096   .     S
C169   C175    1.431   .     S
C170   C171    1.387   .     D
C170   B176    1.494   .     S
C171   H190    1.101   .     S
O172   C173    1.378   .     S
O172   B176    1.389   .     S
C173   C174    1.383   .     S
C174   C175    1.420   .     D
C174   H191    1.096   .     S
N177   S180    1.819   .     S
N178   S180    1.819   1_655 S
S179   N152    1.819   1_565 S
S180   N178    1.819   1_455 S
