data_202
_audit_creation_date              2023-09-08
_audit_creation_method            'Materials Studio'
_symmetry_space_group_name_H-M    'P1'
_symmetry_Int_Tables_number       1
_symmetry_cell_setting            triclinic
loop_
_symmetry_equiv_pos_as_xyz
  x,y,z
_cell_length_a                    29.8330
_cell_length_b                    29.8330
_cell_length_c                    3.6214
_cell_angle_alpha                 90.0000
_cell_angle_beta                  90.0000
_cell_angle_gamma                 120.0000
loop_
_atom_site_label
_atom_site_type_symbol
_atom_site_fract_x
_atom_site_fract_y
_atom_site_fract_z
_atom_site_U_iso_or_equiv
_atom_site_adp_type
_atom_site_occupancy
C1     C     0.37066   0.64980   0.00000   0.00000  Uiso   1.00
C2     C     0.40691   0.63760   0.00000   0.00000  Uiso   1.00
N3     N     0.39996   0.58837   0.00000   0.00000  Uiso   1.00
C4     C     0.43921   0.57682   0.00000   0.00000  Uiso   1.00
C5     C     0.48947   0.61317   0.00000   0.00000  Uiso   1.00
C6     C     0.55006   0.53680   0.00000   0.00000  Uiso   1.00
C7     C     0.51330   0.55016   0.00000   0.00000  Uiso   1.00
C8     C     0.46305   0.51325   0.00000   0.00000  Uiso   1.00
C9     C     0.52591   0.59995   0.00000   0.00000  Uiso   1.00
C10    C     0.42668   0.52710   0.00000   0.00000  Uiso   1.00
C11    C     0.38629   0.70312   0.00000   0.00000  Uiso   1.00
O12    O     0.43014   0.73254   0.00000   0.00000  Uiso   1.00
H13    H     0.44959   0.67202   0.00000   0.00000  Uiso   1.00
H14    H     0.50701   0.65823   0.00000   0.00000  Uiso   1.00
H15    H     0.59428   0.56942   0.00000   0.00000  Uiso   1.00
H16    H     0.56985   0.63317   0.00000   0.00000  Uiso   1.00
H17    H     0.38260   0.49419   0.00000   0.00000  Uiso   1.00
H18    H     0.36211   0.55398   0.00000   0.00000  Uiso   1.00
C19    C     0.35020   0.72086   0.00000   0.00000  Uiso   1.00
C20    C     0.36240   0.76931   0.00000   0.00000  Uiso   1.00
N21    N     0.41163   0.81159   0.00000   0.00000  Uiso   1.00
C22    C     0.42318   0.86239   0.00000   0.00000  Uiso   1.00
C23    C     0.38683   0.87630   0.00000   0.00000  Uiso   1.00
C24    C     0.46320   0.01326   0.00000   0.00000  Uiso   1.00
C25    C     0.44984   0.96314   0.00000   0.00000  Uiso   1.00
C26    C     0.48675   0.94980   0.00000   0.00000  Uiso   1.00
C27    C     0.40005   0.92596   0.00000   0.00000  Uiso   1.00
C28    C     0.47290   0.89958   0.00000   0.00000  Uiso   1.00
C29    C     0.29688   0.68317   0.00000   0.00000  Uiso   1.00
O30    O     0.26746   0.69760   0.00000   0.00000  Uiso   1.00
H31    H     0.32798   0.77757   0.00000   0.00000  Uiso   1.00
H32    H     0.34177   0.84879   0.00000   0.00000  Uiso   1.00
H33    H     0.43058   0.02486   0.00000   0.00000  Uiso   1.00
H34    H     0.36683   0.93669   0.00000   0.00000  Uiso   1.00
H35    H     0.50581   0.88841   0.00000   0.00000  Uiso   1.00
H36    H     0.44601   0.80812   0.00000   0.00000  Uiso   1.00
C37    C     0.27914   0.62934   0.00000   0.00000  Uiso   1.00
C38    C     0.23069   0.59309   0.00000   0.00000  Uiso   1.00
N39    N     0.18841   0.60004   0.00000   0.00000  Uiso   1.00
C40    C     0.13761   0.56079   0.00000   0.00000  Uiso   1.00
C41    C     0.12370   0.51053   0.00000   0.00000  Uiso   1.00
C42    C     0.98674   0.44994   0.00000   0.00000  Uiso   1.00
C43    C     0.03686   0.48670   0.00000   0.00000  Uiso   1.00
C44    C     0.05020   0.53695   0.00000   0.00000  Uiso   1.00
C45    C     0.07404   0.47409   0.00000   0.00000  Uiso   1.00
C46    C     0.10042   0.57332   0.00000   0.00000  Uiso   1.00
C47    C     0.31683   0.61371   0.00000   0.00000  Uiso   1.00
O48    O     0.30240   0.56986   0.00000   0.00000  Uiso   1.00
H49    H     0.22243   0.55041   0.00000   0.00000  Uiso   1.00
H50    H     0.15122   0.49299   0.00000   0.00000  Uiso   1.00
H51    H     0.97514   0.40572   0.00000   0.00000  Uiso   1.00
H52    H     0.06331   0.43015   0.00000   0.00000  Uiso   1.00
H53    H     0.11159   0.61740   0.00000   0.00000  Uiso   1.00
H54    H     0.19188   0.63790   0.00000   0.00000  Uiso   1.00
C55    C     0.62934   0.35020   0.00000   0.00000  Uiso   1.00
C56    C     0.59309   0.36240   0.00000   0.00000  Uiso   1.00
N57    N     0.60004   0.41163   0.00000   0.00000  Uiso   1.00
C58    C     0.56079   0.42318   0.00000   0.00000  Uiso   1.00
C59    C     0.51053   0.38683   0.00000   0.00000  Uiso   1.00
C60    C     0.44994   0.46320   0.00000   0.00000  Uiso   1.00
C61    C     0.48670   0.44984   0.00000   0.00000  Uiso   1.00
C62    C     0.53695   0.48675   0.00000   0.00000  Uiso   1.00
C63    C     0.47409   0.40005   0.00000   0.00000  Uiso   1.00
C64    C     0.57332   0.47290   0.00000   0.00000  Uiso   1.00
C65    C     0.61371   0.29688   0.00000   0.00000  Uiso   1.00
O66    O     0.56986   0.26746   0.00000   0.00000  Uiso   1.00
H67    H     0.55041   0.32798   0.00000   0.00000  Uiso   1.00
H68    H     0.49299   0.34177   0.00000   0.00000  Uiso   1.00
H69    H     0.40572   0.43058   0.00000   0.00000  Uiso   1.00
H70    H     0.43015   0.36683   0.00000   0.00000  Uiso   1.00
H71    H     0.61740   0.50581   0.00000   0.00000  Uiso   1.00
H72    H     0.63790   0.44601   0.00000   0.00000  Uiso   1.00
C73    C     0.64980   0.27914   0.00000   0.00000  Uiso   1.00
C74    C     0.63760   0.23069   0.00000   0.00000  Uiso   1.00
N75    N     0.58837   0.18841   0.00000   0.00000  Uiso   1.00
C76    C     0.57682   0.13761   0.00000   0.00000  Uiso   1.00
C77    C     0.61317   0.12370   0.00000   0.00000  Uiso   1.00
C78    C     0.53680   0.98674   0.00000   0.00000  Uiso   1.00
C79    C     0.55016   0.03686   0.00000   0.00000  Uiso   1.00
C80    C     0.51325   0.05020   0.00000   0.00000  Uiso   1.00
C81    C     0.59995   0.07404   0.00000   0.00000  Uiso   1.00
C82    C     0.52710   0.10042   0.00000   0.00000  Uiso   1.00
C83    C     0.70312   0.31683   0.00000   0.00000  Uiso   1.00
O84    O     0.73254   0.30240   0.00000   0.00000  Uiso   1.00
H85    H     0.67202   0.22243   0.00000   0.00000  Uiso   1.00
H86    H     0.65823   0.15121   0.00000   0.00000  Uiso   1.00
H87    H     0.56942   0.97513   0.00000   0.00000  Uiso   1.00
H88    H     0.63317   0.06331   0.00000   0.00000  Uiso   1.00
H89    H     0.49419   0.11159   0.00000   0.00000  Uiso   1.00
H90    H     0.55399   0.19188   0.00000   0.00000  Uiso   1.00
C91    C     0.72086   0.37066   0.00000   0.00000  Uiso   1.00
C92    C     0.76931   0.40691   0.00000   0.00000  Uiso   1.00
N93    N     0.81159   0.39996   0.00000   0.00000  Uiso   1.00
C94    C     0.86239   0.43921   0.00000   0.00000  Uiso   1.00
C95    C     0.87630   0.48947   0.00000   0.00000  Uiso   1.00
C96    C     0.01326   0.55006   0.00000   0.00000  Uiso   1.00
C97    C     0.96314   0.51330   0.00000   0.00000  Uiso   1.00
C98    C     0.94980   0.46305   0.00000   0.00000  Uiso   1.00
C99    C     0.92596   0.52591   0.00000   0.00000  Uiso   1.00
C100   C     0.89958   0.42668   0.00000   0.00000  Uiso   1.00
C101   C     0.68317   0.38629   0.00000   0.00000  Uiso   1.00
O102   O     0.69760   0.43014   0.00000   0.00000  Uiso   1.00
H103   H     0.77757   0.44959   0.00000   0.00000  Uiso   1.00
H104   H     0.84879   0.50701   0.00000   0.00000  Uiso   1.00
H105   H     0.02487   0.59428   0.00000   0.00000  Uiso   1.00
H106   H     0.93669   0.56985   0.00000   0.00000  Uiso   1.00
H107   H     0.88841   0.38260   0.00000   0.00000  Uiso   1.00
H108   H     0.80812   0.36210   0.00000   0.00000  Uiso   1.00
loop_
_geom_bond_atom_site_label_1
_geom_bond_atom_site_label_2
_geom_bond_distance
_geom_bond_site_symmetry_2
_ccdc_geom_bond_type
C1     C2      1.302   .     D
C1     C11     1.416   .     S
C1     C47     1.417   .     S
C2     N3      1.377   .     S
C2     H13     1.170   .     S
N3     C4      1.376   .     S
N3     H18     1.081   .     S
C4     C5      1.341   .     S
C4     C10     1.336   .     D
C5     C9      1.329   .     D
C5     H14     1.174   .     S
C6     C7      1.341   .     D
C6     H15     1.185   .     S
C6     C62     1.341   .     S
C7     C8      1.345   .     S
C7     C9      1.338   .     S
C8     C10     1.340   .     S
C8     C60     1.341   .     D
C9     H16     1.184   .     S
C10    H17     1.184   .     S
C11    O12     1.155   .     D
C11    C19     1.417   .     S
C19    C20     1.302   .     D
C19    C29     1.416   .     S
C20    N21     1.377   .     S
C20    H31     1.170   .     S
N21    C22     1.376   .     S
N21    H36     1.081   .     S
C22    C23     1.341   .     S
C22    C28     1.336   .     D
C23    C27     1.329   .     D
C23    H32     1.174   .     S
C24    C25     1.341   1_545 D
C24    H33     1.185   .     S
C24    C80     1.341   .     S
C25    C24     1.341   1_565 D
C25    C26     1.345   .     S
C25    C27     1.338   .     S
C26    C28     1.340   .     S
C26    C78     1.341   .     D
C27    H34     1.184   .     S
C28    H35     1.184   .     S
C29    O30     1.155   .     D
C29    C37     1.417   .     S
C37    C38     1.302   .     D
C37    C47     1.416   .     S
C38    N39     1.377   .     S
C38    H49     1.170   .     S
N39    C40     1.376   .     S
N39    H54     1.081   .     S
C40    C41     1.341   .     S
C40    C46     1.336   .     D
C41    C45     1.329   .     D
C41    H50     1.174   .     S
C42    C43     1.341   1_655 D
C42    H51     1.185   .     S
C42    C98     1.341   .     S
C43    C42     1.341   1_455 D
C43    C44     1.345   .     S
C43    C45     1.338   .     S
C44    C46     1.340   .     S
C44    C96     1.341   .     D
C45    H52     1.184   .     S
C46    H53     1.184   .     S
C47    O48     1.155   .     D
C55    C56     1.302   .     D
C55    C65     1.416   .     S
C55    C101    1.417   .     S
C56    N57     1.377   .     S
C56    H67     1.170   .     S
N57    C58     1.376   .     S
N57    H72     1.081   .     S
C58    C59     1.341   .     D
C58    C64     1.336   .     S
C59    C63     1.329   .     S
C59    H68     1.174   .     S
C60    C61     1.341   .     S
C60    H69     1.185   .     S
C61    C62     1.345   .     S
C61    C63     1.338   .     D
C62    C64     1.340   .     D
C63    H70     1.184   .     S
C64    H71     1.184   .     S
C65    O66     1.155   .     D
C65    C73     1.417   .     S
C73    C74     1.302   .     D
C73    C83     1.416   .     S
C74    N75     1.377   .     S
C74    H85     1.170   .     S
N75    C76     1.376   .     S
N75    H90     1.081   .     S
C76    C77     1.341   .     D
C76    C82     1.336   .     S
C77    C81     1.329   .     S
C77    H86     1.174   .     S
C78    C79     1.341   1_565 S
C78    H87     1.185   .     S
C79    C78     1.341   1_545 S
C79    C80     1.345   .     S
C79    C81     1.338   .     D
C80    C82     1.340   .     D
C81    H88     1.184   .     S
C82    H89     1.184   .     S
C83    O84     1.155   .     D
C83    C91     1.417   .     S
C91    C92     1.302   .     D
C91    C101    1.416   .     S
C92    N93     1.377   .     S
C92    H103    1.170   .     S
N93    C94     1.376   .     S
N93    H108    1.081   .     S
C94    C95     1.341   .     D
C94    C100    1.336   .     S
C95    C99     1.329   .     S
C95    H104    1.174   .     S
C96    C97     1.341   1_455 S
C96    H105    1.185   .     S
C97    C96     1.341   1_655 S
C97    C98     1.345   .     S
C97    C99     1.338   .     D
C98    C100    1.340   .     D
C99    H106    1.184   .     S
C100   H107    1.184   .     S
C101   O102    1.155   .     D
