data_204
_audit_creation_date              2023-09-08
_audit_creation_method            'Materials Studio'
_symmetry_space_group_name_H-M    'P1'
_symmetry_Int_Tables_number       1
_symmetry_cell_setting            triclinic
loop_
_symmetry_equiv_pos_as_xyz
  x,y,z
_cell_length_a                    33.9290
_cell_length_b                    33.9290
_cell_length_c                    3.4000
_cell_angle_alpha                 90.0000
_cell_angle_beta                  90.0000
_cell_angle_gamma                 120.0000
loop_
_atom_site_label
_atom_site_type_symbol
_atom_site_fract_x
_atom_site_fract_y
_atom_site_fract_z
_atom_site_U_iso_or_equiv
_atom_site_adp_type
_atom_site_occupancy
C1     C     0.54776   0.02322   0.00000   0.00000  Uiso   1.00
O2     O     0.59685   0.12070   0.00000   0.00000  Uiso   1.00
C3     C     0.60174   0.16272   0.00000   0.00000  Uiso   1.00
C4     C     0.71757   0.31699   0.00000   0.00000  Uiso   1.00
C5     C     0.75813   0.35835   0.00000   0.00000  Uiso   1.00
H6     H     0.79945   0.32601   0.00000   0.00000  Uiso   1.00
C7     C     0.79821   0.35726   0.00000   0.00000  Uiso   1.00
H8     H     0.58479   0.04159   0.00000   0.00000  Uiso   1.00
C9     C     0.97678   0.52454   0.00000   0.00000  Uiso   1.00
O10    O     0.87931   0.47616   0.00000   0.00000  Uiso   1.00
C11    C     0.83728   0.43902   0.00000   0.00000  Uiso   1.00
C12    C     0.68302   0.40058   0.00000   0.00000  Uiso   1.00
C13    C     0.64165   0.39978   0.00000   0.00000  Uiso   1.00
H14    H     0.67399   0.47344   0.00000   0.00000  Uiso   1.00
C15    C     0.64274   0.44095   0.00000   0.00000  Uiso   1.00
H16    H     0.95841   0.54320   0.00000   0.00000  Uiso   1.00
C17    C     0.47546   0.45224   0.00000   0.00000  Uiso   1.00
O18    O     0.52384   0.40315   0.00000   0.00000  Uiso   1.00
C19    C     0.56099   0.39826   0.00000   0.00000  Uiso   1.00
C20    C     0.59942   0.28243   0.00000   0.00000  Uiso   1.00
C21    C     0.60022   0.24187   0.00000   0.00000  Uiso   1.00
H22    H     0.52656   0.20055   0.00000   0.00000  Uiso   1.00
C23    C     0.55905   0.20179   0.00000   0.00000  Uiso   1.00
H24    H     0.45680   0.41521   0.00000   0.00000  Uiso   1.00
C25    C     0.45224   0.97678   0.00000   0.00000  Uiso   1.00
O26    O     0.40315   0.87931   0.00000   0.00000  Uiso   1.00
C27    C     0.39826   0.83728   0.00000   0.00000  Uiso   1.00
C28    C     0.28243   0.68302   0.00000   0.00000  Uiso   1.00
C29    C     0.24187   0.64165   0.00000   0.00000  Uiso   1.00
H30    H     0.20055   0.67399   0.00000   0.00000  Uiso   1.00
C31    C     0.20179   0.64274   0.00000   0.00000  Uiso   1.00
H32    H     0.41521   0.95841   0.00000   0.00000  Uiso   1.00
C33    C     0.02322   0.47546   0.00000   0.00000  Uiso   1.00
O34    O     0.12070   0.52384   0.00000   0.00000  Uiso   1.00
C35    C     0.16272   0.56099   0.00000   0.00000  Uiso   1.00
C36    C     0.31699   0.59942   0.00000   0.00000  Uiso   1.00
C37    C     0.35835   0.60022   0.00000   0.00000  Uiso   1.00
H38    H     0.32601   0.52656   0.00000   0.00000  Uiso   1.00
C39    C     0.35726   0.55905   0.00000   0.00000  Uiso   1.00
H40    H     0.04159   0.45680   0.00000   0.00000  Uiso   1.00
C41    C     0.52454   0.54776   0.00000   0.00000  Uiso   1.00
O42    O     0.47616   0.59685   0.00000   0.00000  Uiso   1.00
C43    C     0.43902   0.60174   0.00000   0.00000  Uiso   1.00
C44    C     0.40058   0.71757   0.00000   0.00000  Uiso   1.00
C45    C     0.39978   0.75813   0.00000   0.00000  Uiso   1.00
H46    H     0.47344   0.79945   0.00000   0.00000  Uiso   1.00
C47    C     0.44095   0.79821   0.00000   0.00000  Uiso   1.00
H48    H     0.54320   0.58479   0.00000   0.00000  Uiso   1.00
C49    C     0.02322   0.54776   0.00000   0.00000  Uiso   1.00
O50    O     0.12070   0.59685   0.00000   0.00000  Uiso   1.00
C51    C     0.16272   0.60174   0.00000   0.00000  Uiso   1.00
C52    C     0.31699   0.71757   0.00000   0.00000  Uiso   1.00
C53    C     0.35835   0.75813   0.00000   0.00000  Uiso   1.00
H54    H     0.32601   0.79945   0.00000   0.00000  Uiso   1.00
C55    C     0.35726   0.79821   0.00000   0.00000  Uiso   1.00
H56    H     0.04159   0.58479   0.00000   0.00000  Uiso   1.00
C57    C     0.52454   0.97678   0.00000   0.00000  Uiso   1.00
O58    O     0.47616   0.87931   0.00000   0.00000  Uiso   1.00
C59    C     0.43902   0.83728   0.00000   0.00000  Uiso   1.00
C60    C     0.40058   0.68302   0.00000   0.00000  Uiso   1.00
C61    C     0.39978   0.64165   0.00000   0.00000  Uiso   1.00
H62    H     0.47344   0.67399   0.00000   0.00000  Uiso   1.00
C63    C     0.44095   0.64274   0.00000   0.00000  Uiso   1.00
H64    H     0.54320   0.95841   0.00000   0.00000  Uiso   1.00
C65    C     0.45224   0.47546   0.00000   0.00000  Uiso   1.00
O66    O     0.40315   0.52384   0.00000   0.00000  Uiso   1.00
C67    C     0.39826   0.56099   0.00000   0.00000  Uiso   1.00
C68    C     0.28243   0.59942   0.00000   0.00000  Uiso   1.00
C69    C     0.24187   0.60022   0.00000   0.00000  Uiso   1.00
H70    H     0.20055   0.52656   0.00000   0.00000  Uiso   1.00
C71    C     0.20179   0.55905   0.00000   0.00000  Uiso   1.00
H72    H     0.41521   0.45680   0.00000   0.00000  Uiso   1.00
C73    C     0.97678   0.45224   0.00000   0.00000  Uiso   1.00
O74    O     0.87931   0.40315   0.00000   0.00000  Uiso   1.00
C75    C     0.83728   0.39826   0.00000   0.00000  Uiso   1.00
C76    C     0.68302   0.28243   0.00000   0.00000  Uiso   1.00
C77    C     0.64165   0.24187   0.00000   0.00000  Uiso   1.00
H78    H     0.67399   0.20055   0.00000   0.00000  Uiso   1.00
C79    C     0.64274   0.20179   0.00000   0.00000  Uiso   1.00
H80    H     0.95841   0.41521   0.00000   0.00000  Uiso   1.00
C81    C     0.47546   0.02322   0.00000   0.00000  Uiso   1.00
O82    O     0.52384   0.12070   0.00000   0.00000  Uiso   1.00
C83    C     0.56099   0.16272   0.00000   0.00000  Uiso   1.00
C84    C     0.59942   0.31699   0.00000   0.00000  Uiso   1.00
C85    C     0.60022   0.35835   0.00000   0.00000  Uiso   1.00
H86    H     0.52656   0.32601   0.00000   0.00000  Uiso   1.00
C87    C     0.55905   0.35726   0.00000   0.00000  Uiso   1.00
H88    H     0.45680   0.04159   0.00000   0.00000  Uiso   1.00
C89    C     0.54776   0.52454   0.00000   0.00000  Uiso   1.00
O90    O     0.59685   0.47616   0.00000   0.00000  Uiso   1.00
C91    C     0.60174   0.43902   0.00000   0.00000  Uiso   1.00
C92    C     0.71757   0.40058   0.00000   0.00000  Uiso   1.00
C93    C     0.75813   0.39978   0.00000   0.00000  Uiso   1.00
H94    H     0.79945   0.47344   0.00000   0.00000  Uiso   1.00
C95    C     0.79821   0.44095   0.00000   0.00000  Uiso   1.00
H96    H     0.58479   0.54320   0.00000   0.00000  Uiso   1.00
C97    C     0.47714   0.52286   0.00000   0.00000  Uiso   1.00
B98    B     0.45227   0.54773   0.00000   0.00000  Uiso   1.00
C99    C     0.47714   0.95428   0.00000   0.00000  Uiso   1.00
B100   B     0.45227   0.90455   0.00000   0.00000  Uiso   1.00
C101   C     0.04572   0.52286   0.00000   0.00000  Uiso   1.00
B102   B     0.09546   0.54773   0.00000   0.00000  Uiso   1.00
C103   C     0.52286   0.47714   0.00000   0.00000  Uiso   1.00
B104   B     0.54773   0.45227   0.00000   0.00000  Uiso   1.00
C105   C     0.52286   0.04573   0.00000   0.00000  Uiso   1.00
B106   B     0.54773   0.09546   0.00000   0.00000  Uiso   1.00
C107   C     0.95428   0.47714   0.00000   0.00000  Uiso   1.00
B108   B     0.90455   0.45227   0.00000   0.00000  Uiso   1.00
loop_
_geom_bond_atom_site_label_1
_geom_bond_atom_site_label_2
_geom_bond_distance
_geom_bond_site_symmetry_2
_ccdc_geom_bond_type
C1     H8      1.088   .     S
C1     C57     1.365   1_545 D
C1     C105    1.393   .     S
O2     C3      1.351   .     S
O2     B106    1.444   .     S
C3     C79     1.360   .     D
C3     C83     1.383   .     S
C4     C5      1.390   .     D
C4     C76     1.172   .     D
C5     C7      1.379   .     S
C5     C93     1.406   .     S
H6     C7      1.082   .     S
C7     C75     1.360   .     D
C9     H16     1.088   .     S
C9     C49     1.365   1_655 D
C9     C107    1.393   .     S
O10    C11     1.351   .     S
O10    B108    1.444   .     S
C11    C75     1.383   .     S
C11    C95     1.360   .     D
C12    C13     1.390   .     D
C12    C92     1.172   .     D
C13    C15     1.379   .     S
C13    C85     1.406   .     S
H14    C15     1.082   .     S
C15    C91     1.360   .     D
C17    H24     1.088   .     S
C17    C65     1.365   .     S
C17    C103    1.393   .     D
O18    C19     1.351   .     S
O18    B104    1.444   .     S
C19    C87     1.360   .     D
C19    C91     1.383   .     S
C20    C21     1.390   .     D
C20    C84     1.172   .     D
C21    C23     1.379   .     S
C21    C77     1.406   .     S
H22    C23     1.082   .     S
C23    C83     1.360   .     D
C25    H32     1.088   .     S
C25    C81     1.365   1_565 S
C25    C99     1.393   .     D
O26    C27     1.351   .     S
O26    B100    1.444   .     S
C27    C55     1.360   .     D
C27    C59     1.383   .     S
C28    C29     1.390   .     S
C28    C52     1.172   .     T
C29    C31     1.379   .     S
C29    C69     1.406   .     D
H30    C31     1.082   .     S
C31    C51     1.360   .     D
C33    H40     1.088   .     S
C33    C73     1.365   1_455 S
C33    C101    1.393   .     D
O34    C35     1.351   .     S
O34    B102    1.444   .     S
C35    C51     1.383   .     S
C35    C71     1.360   .     D
C36    C37     1.390   .     S
C36    C68     1.172   .     T
C37    C39     1.379   .     S
C37    C61     1.406   .     D
H38    C39     1.082   .     S
C39    C67     1.360   .     D
C41    H48     1.088   .     S
C41    C89     1.365   .     D
C41    C97     1.393   .     S
O42    C43     1.351   .     S
O42    B98     1.444   .     S
C43    C63     1.360   .     D
C43    C67     1.383   .     S
C44    C45     1.390   .     S
C44    C60     1.172   .     T
C45    C47     1.379   .     S
C45    C53     1.406   .     D
H46    C47     1.082   .     S
C47    C59     1.360   .     D
C49    C9      1.365   1_455 D
C49    H56     1.088   .     S
C49    C101    1.393   .     S
O50    C51     1.351   .     S
O50    B102    1.444   .     S
C52    C53     1.390   .     S
C53    C55     1.379   .     S
H54    C55     1.082   .     S
C57    C1      1.365   1_565 D
C57    H64     1.088   .     S
C57    C99     1.393   .     S
O58    C59     1.351   .     S
O58    B100    1.444   .     S
C60    C61     1.390   .     S
C61    C63     1.379   .     S
H62    C63     1.082   .     S
C65    H72     1.088   .     S
C65    C97     1.393   .     D
O66    C67     1.351   .     S
O66    B98     1.444   .     S
C68    C69     1.390   .     S
C69    C71     1.379   .     S
H70    C71     1.082   .     S
C73    C33     1.365   1_655 S
C73    H80     1.088   .     S
C73    C107    1.393   .     D
O74    C75     1.351   .     S
O74    B108    1.444   .     S
C76    C77     1.390   .     D
C77    C79     1.379   .     S
H78    C79     1.082   .     S
C81    C25     1.365   1_545 S
C81    H88     1.088   .     S
C81    C105    1.393   .     D
O82    C83     1.351   .     S
O82    B106    1.444   .     S
C84    C85     1.390   .     D
C85    C87     1.379   .     S
H86    C87     1.082   .     S
C89    H96     1.088   .     S
C89    C103    1.393   .     S
O90    C91     1.351   .     S
O90    B104    1.444   .     S
C92    C93     1.390   .     D
C93    C95     1.379   .     S
H94    C95     1.082   .     S
C97    B98     1.461   .     S
C99    B100    1.461   .     S
C101   B102    1.461   .     S
C103   B104    1.461   .     S
C105   B106    1.461   .     S
C107   B108    1.461   .     S
