data_205
_audit_creation_date              2023-09-08
_audit_creation_method            'Materials Studio'
_symmetry_space_group_name_H-M    'P1'
_symmetry_Int_Tables_number       1
_symmetry_cell_setting            triclinic
loop_
_symmetry_equiv_pos_as_xyz
  x,y,z
_cell_length_a                    37.8890
_cell_length_b                    37.8890
_cell_length_c                    3.4000
_cell_angle_alpha                 90.0000
_cell_angle_beta                  90.0000
_cell_angle_gamma                 120.0000
loop_
_atom_site_label
_atom_site_type_symbol
_atom_site_fract_x
_atom_site_fract_y
_atom_site_fract_z
_atom_site_U_iso_or_equiv
_atom_site_adp_type
_atom_site_occupancy
C1     C     0.54280   0.02043   0.00000   0.00000  Uiso   1.00
O2     O     0.58470   0.10378   0.00000   0.00000  Uiso   1.00
C3     C     0.58861   0.14060   0.00000   0.00000  Uiso   1.00
C4     C     0.72475   0.31002   0.00000   0.00000  Uiso   1.00
C5     C     0.75483   0.34054   0.00000   0.00000  Uiso   1.00
C6     C     0.79014   0.37664   0.00000   0.00000  Uiso   1.00
H7     H     0.82631   0.34697   0.00000   0.00000  Uiso   1.00
C8     C     0.82518   0.37498   0.00000   0.00000  Uiso   1.00
H9     H     0.57597   0.03660   0.00000   0.00000  Uiso   1.00
C10    C     0.97957   0.52237   0.00000   0.00000  Uiso   1.00
O11    O     0.89622   0.48092   0.00000   0.00000  Uiso   1.00
C12    C     0.85939   0.44800   0.00000   0.00000  Uiso   1.00
C13    C     0.68998   0.41473   0.00000   0.00000  Uiso   1.00
C14    C     0.65946   0.41429   0.00000   0.00000  Uiso   1.00
C15    C     0.62336   0.41350   0.00000   0.00000  Uiso   1.00
H16    H     0.65303   0.47934   0.00000   0.00000  Uiso   1.00
C17    C     0.62501   0.45020   0.00000   0.00000  Uiso   1.00
H18    H     0.96340   0.53937   0.00000   0.00000  Uiso   1.00
C19    C     0.47763   0.45720   0.00000   0.00000  Uiso   1.00
O20    O     0.51908   0.41530   0.00000   0.00000  Uiso   1.00
C21    C     0.55199   0.41139   0.00000   0.00000  Uiso   1.00
C22    C     0.58527   0.27525   0.00000   0.00000  Uiso   1.00
C23    C     0.58571   0.24517   0.00000   0.00000  Uiso   1.00
C24    C     0.58650   0.20985   0.00000   0.00000  Uiso   1.00
H25    H     0.52066   0.17369   0.00000   0.00000  Uiso   1.00
C26    C     0.54980   0.17481   0.00000   0.00000  Uiso   1.00
H27    H     0.46063   0.42403   0.00000   0.00000  Uiso   1.00
C28    C     0.45720   0.97957   0.00000   0.00000  Uiso   1.00
O29    O     0.41530   0.89622   0.00000   0.00000  Uiso   1.00
C30    C     0.41139   0.85939   0.00000   0.00000  Uiso   1.00
C31    C     0.27525   0.68998   0.00000   0.00000  Uiso   1.00
C32    C     0.24517   0.65946   0.00000   0.00000  Uiso   1.00
C33    C     0.20985   0.62336   0.00000   0.00000  Uiso   1.00
H34    H     0.17369   0.65303   0.00000   0.00000  Uiso   1.00
C35    C     0.17481   0.62501   0.00000   0.00000  Uiso   1.00
H36    H     0.42403   0.96340   0.00000   0.00000  Uiso   1.00
C37    C     0.02043   0.47763   0.00000   0.00000  Uiso   1.00
O38    O     0.10378   0.51908   0.00000   0.00000  Uiso   1.00
C39    C     0.14060   0.55199   0.00000   0.00000  Uiso   1.00
C40    C     0.31002   0.58527   0.00000   0.00000  Uiso   1.00
C41    C     0.34054   0.58571   0.00000   0.00000  Uiso   1.00
C42    C     0.37664   0.58650   0.00000   0.00000  Uiso   1.00
H43    H     0.34697   0.52066   0.00000   0.00000  Uiso   1.00
C44    C     0.37498   0.54980   0.00000   0.00000  Uiso   1.00
H45    H     0.03660   0.46063   0.00000   0.00000  Uiso   1.00
C46    C     0.52237   0.54280   0.00000   0.00000  Uiso   1.00
O47    O     0.48092   0.58470   0.00000   0.00000  Uiso   1.00
C48    C     0.44800   0.58861   0.00000   0.00000  Uiso   1.00
C49    C     0.41473   0.72475   0.00000   0.00000  Uiso   1.00
C50    C     0.41429   0.75483   0.00000   0.00000  Uiso   1.00
C51    C     0.41350   0.79014   0.00000   0.00000  Uiso   1.00
H52    H     0.47934   0.82631   0.00000   0.00000  Uiso   1.00
C53    C     0.45020   0.82518   0.00000   0.00000  Uiso   1.00
H54    H     0.53937   0.57597   0.00000   0.00000  Uiso   1.00
C55    C     0.02043   0.54280   0.00000   0.00000  Uiso   1.00
O56    O     0.10378   0.58470   0.00000   0.00000  Uiso   1.00
C57    C     0.14060   0.58861   0.00000   0.00000  Uiso   1.00
C58    C     0.31002   0.72475   0.00000   0.00000  Uiso   1.00
C59    C     0.34054   0.75483   0.00000   0.00000  Uiso   1.00
C60    C     0.37664   0.79014   0.00000   0.00000  Uiso   1.00
H61    H     0.34697   0.82631   0.00000   0.00000  Uiso   1.00
C62    C     0.37498   0.82518   0.00000   0.00000  Uiso   1.00
H63    H     0.03660   0.57597   0.00000   0.00000  Uiso   1.00
C64    C     0.52237   0.97957   0.00000   0.00000  Uiso   1.00
O65    O     0.48092   0.89622   0.00000   0.00000  Uiso   1.00
C66    C     0.44800   0.85939   0.00000   0.00000  Uiso   1.00
C67    C     0.41473   0.68998   0.00000   0.00000  Uiso   1.00
C68    C     0.41429   0.65946   0.00000   0.00000  Uiso   1.00
C69    C     0.41350   0.62336   0.00000   0.00000  Uiso   1.00
H70    H     0.47934   0.65303   0.00000   0.00000  Uiso   1.00
C71    C     0.45020   0.62501   0.00000   0.00000  Uiso   1.00
H72    H     0.53937   0.96340   0.00000   0.00000  Uiso   1.00
C73    C     0.45720   0.47763   0.00000   0.00000  Uiso   1.00
O74    O     0.41530   0.51908   0.00000   0.00000  Uiso   1.00
C75    C     0.41139   0.55199   0.00000   0.00000  Uiso   1.00
C76    C     0.27525   0.58527   0.00000   0.00000  Uiso   1.00
C77    C     0.24517   0.58571   0.00000   0.00000  Uiso   1.00
C78    C     0.20985   0.58650   0.00000   0.00000  Uiso   1.00
H79    H     0.17369   0.52066   0.00000   0.00000  Uiso   1.00
C80    C     0.17481   0.54980   0.00000   0.00000  Uiso   1.00
H81    H     0.42403   0.46063   0.00000   0.00000  Uiso   1.00
C82    C     0.97957   0.45720   0.00000   0.00000  Uiso   1.00
O83    O     0.89622   0.41530   0.00000   0.00000  Uiso   1.00
C84    C     0.85939   0.41139   0.00000   0.00000  Uiso   1.00
C85    C     0.68998   0.27525   0.00000   0.00000  Uiso   1.00
C86    C     0.65946   0.24517   0.00000   0.00000  Uiso   1.00
C87    C     0.62336   0.20985   0.00000   0.00000  Uiso   1.00
H88    H     0.65303   0.17369   0.00000   0.00000  Uiso   1.00
C89    C     0.62501   0.17481   0.00000   0.00000  Uiso   1.00
H90    H     0.96340   0.42403   0.00000   0.00000  Uiso   1.00
C91    C     0.47763   0.02043   0.00000   0.00000  Uiso   1.00
O92    O     0.51908   0.10378   0.00000   0.00000  Uiso   1.00
C93    C     0.55199   0.14060   0.00000   0.00000  Uiso   1.00
C94    C     0.58527   0.31002   0.00000   0.00000  Uiso   1.00
C95    C     0.58571   0.34054   0.00000   0.00000  Uiso   1.00
C96    C     0.58650   0.37664   0.00000   0.00000  Uiso   1.00
H97    H     0.52066   0.34697   0.00000   0.00000  Uiso   1.00
C98    C     0.54980   0.37498   0.00000   0.00000  Uiso   1.00
H99    H     0.46063   0.03660   0.00000   0.00000  Uiso   1.00
C100   C     0.54280   0.52237   0.00000   0.00000  Uiso   1.00
O101   O     0.58470   0.48092   0.00000   0.00000  Uiso   1.00
C102   C     0.58861   0.44800   0.00000   0.00000  Uiso   1.00
C103   C     0.72475   0.41473   0.00000   0.00000  Uiso   1.00
C104   C     0.75483   0.41429   0.00000   0.00000  Uiso   1.00
C105   C     0.79014   0.41350   0.00000   0.00000  Uiso   1.00
H106   H     0.82631   0.47934   0.00000   0.00000  Uiso   1.00
C107   C     0.82518   0.45020   0.00000   0.00000  Uiso   1.00
H108   H     0.57597   0.53937   0.00000   0.00000  Uiso   1.00
C109   C     0.48009   0.51991   0.00000   0.00000  Uiso   1.00
B110   B     0.45890   0.54110   0.00000   0.00000  Uiso   1.00
C111   C     0.48009   0.96019   0.00000   0.00000  Uiso   1.00
B112   B     0.45890   0.91781   0.00000   0.00000  Uiso   1.00
C113   C     0.03981   0.51991   0.00000   0.00000  Uiso   1.00
B114   B     0.08219   0.54110   0.00000   0.00000  Uiso   1.00
C115   C     0.51991   0.48009   0.00000   0.00000  Uiso   1.00
B116   B     0.54110   0.45890   0.00000   0.00000  Uiso   1.00
C117   C     0.51991   0.03981   0.00000   0.00000  Uiso   1.00
B118   B     0.54110   0.08219   0.00000   0.00000  Uiso   1.00
C119   C     0.96019   0.48009   0.00000   0.00000  Uiso   1.00
B120   B     0.91781   0.45890   0.00000   0.00000  Uiso   1.00
loop_
_geom_bond_atom_site_label_1
_geom_bond_atom_site_label_2
_geom_bond_distance
_geom_bond_site_symmetry_2
_ccdc_geom_bond_type
C1     H9      1.089   .     S
C1     C64     1.341   1_545 D
C1     C117    1.389   .     S
O2     C3      1.327   .     S
O2     B118    1.431   .     S
C3     C89     1.340   .     D
C3     C93     1.387   .     S
C4     C5      1.148   .     D
C4     C85     1.317   .     D
C5     C6      1.353   .     D
C6     C8      1.360   .     S
C6     C105    1.397   .     S
H7     C8      1.083   .     S
C8     C84     1.340   .     D
C10    H18     1.089   .     S
C10    C55     1.341   1_655 S
C10    C119    1.389   .     D
O11    C12     1.327   .     S
O11    B120    1.431   .     S
C12    C84     1.387   .     S
C12    C107    1.340   .     D
C13    C14     1.148   .     D
C13    C103    1.317   .     D
C14    C15     1.353   .     D
C15    C17     1.360   .     S
C15    C96     1.397   .     S
H16    C17     1.083   .     S
C17    C102    1.340   .     D
C19    H27     1.089   .     S
C19    C73     1.341   .     S
C19    C115    1.389   .     D
O20    C21     1.327   .     S
O20    B116    1.431   .     S
C21    C98     1.340   .     D
C21    C102    1.387   .     S
C22    C23     1.148   .     D
C22    C94     1.317   .     D
C23    C24     1.353   .     D
C24    C26     1.360   .     S
C24    C87     1.397   .     S
H25    C26     1.083   .     S
C26    C93     1.340   .     D
C28    H36     1.089   .     S
C28    C91     1.341   1_565 S
C28    C111    1.389   .     D
O29    C30     1.327   .     S
O29    B112    1.431   .     S
C30    C62     1.340   .     D
C30    C66     1.387   .     S
C31    C32     1.148   .     D
C31    C58     1.317   .     D
C32    C33     1.353   .     D
C33    C35     1.360   .     S
C33    C78     1.397   .     S
H34    C35     1.083   .     S
C35    C57     1.340   .     D
C37    H45     1.089   .     S
C37    C82     1.341   1_455 D
C37    C113    1.389   .     S
O38    C39     1.327   .     S
O38    B114    1.431   .     S
C39    C57     1.387   .     S
C39    C80     1.340   .     D
C40    C41     1.148   .     D
C40    C76     1.317   .     D
C41    C42     1.353   .     D
C42    C44     1.360   .     S
C42    C69     1.397   .     S
H43    C44     1.083   .     S
C44    C75     1.340   .     D
C46    H54     1.089   .     S
C46    C100    1.341   .     D
C46    C109    1.389   .     S
O47    C48     1.327   .     S
O47    B110    1.431   .     S
C48    C71     1.340   .     D
C48    C75     1.387   .     S
C49    C50     1.148   .     D
C49    C67     1.317   .     D
C50    C51     1.353   .     D
C51    C53     1.360   .     S
C51    C60     1.397   .     S
H52    C53     1.083   .     S
C53    C66     1.340   .     D
C55    C10     1.341   1_455 S
C55    H63     1.089   .     S
C55    C113    1.389   .     D
O56    C57     1.327   .     S
O56    B114    1.431   .     S
C58    C59     1.148   .     D
C59    C60     1.353   .     D
C60    C62     1.360   .     S
H61    C62     1.083   .     S
C64    C1      1.341   1_565 D
C64    H72     1.089   .     S
C64    C111    1.389   .     S
O65    C66     1.327   .     S
O65    B112    1.431   .     S
C67    C68     1.148   .     D
C68    C69     1.353   .     D
C69    C71     1.360   .     S
H70    C71     1.083   .     S
C73    H81     1.089   .     S
C73    C109    1.389   .     D
O74    C75     1.327   .     S
O74    B110    1.431   .     S
C76    C77     1.148   .     D
C77    C78     1.353   .     D
C78    C80     1.360   .     S
H79    C80     1.083   .     S
C82    C37     1.341   1_655 D
C82    H90     1.089   .     S
C82    C119    1.389   .     S
O83    C84     1.327   .     S
O83    B120    1.431   .     S
C85    C86     1.148   .     D
C86    C87     1.353   .     D
C87    C89     1.360   .     S
H88    C89     1.083   .     S
C91    C28     1.341   1_545 S
C91    H99     1.089   .     S
C91    C117    1.389   .     D
O92    C93     1.327   .     S
O92    B118    1.431   .     S
C94    C95     1.148   .     D
C95    C96     1.353   .     D
C96    C98     1.360   .     S
H97    C98     1.083   .     S
C100   H108    1.089   .     S
C100   C115    1.389   .     S
O101   C102    1.327   .     S
O101   B116    1.431   .     S
C103   C104    1.148   .     D
C104   C105    1.353   .     D
C105   C107    1.360   .     S
H106   C107    1.083   .     S
C109   B110    1.391   .     S
C111   B112    1.391   .     S
C113   B114    1.391   .     S
C115   B116    1.391   .     S
C117   B118    1.391   .     S
C119   B120    1.391   .     S
