data_208
_audit_creation_date              2023-09-08
_audit_creation_method            'Materials Studio'
_symmetry_space_group_name_H-M    'P1'
_symmetry_Int_Tables_number       1
_symmetry_cell_setting            triclinic
loop_
_symmetry_equiv_pos_as_xyz
  x,y,z
_cell_length_a                    35.5555
_cell_length_b                    35.5555
_cell_length_c                    3.5347
_cell_angle_alpha                 90.0000
_cell_angle_beta                  90.0000
_cell_angle_gamma                 90.0000
loop_
_atom_site_label
_atom_site_type_symbol
_atom_site_fract_x
_atom_site_fract_y
_atom_site_fract_z
_atom_site_U_iso_or_equiv
_atom_site_adp_type
_atom_site_occupancy
C1     C     0.48025   0.68375   0.50000   0.00000  Uiso   1.00
C2     C     0.54044   0.65006   0.50000   0.00000  Uiso   1.00
C3     C     0.51966   0.61623   0.50000   0.00000  Uiso   1.00
C4     C     0.53098   0.57876   0.50000   0.00000  Uiso   1.00
C5     C     0.51975   0.31626   0.50000   0.00000  Uiso   1.00
C6     C     0.45957   0.34994   0.50000   0.00000  Uiso   1.00
C7     C     0.48034   0.38378   0.50000   0.00000  Uiso   1.00
C8     C     0.46902   0.42124   0.50000   0.00000  Uiso   1.00
C9     C     0.31626   0.48025   0.50000   0.00000  Uiso   1.00
C10    C     0.34994   0.54044   0.50000   0.00000  Uiso   1.00
C11    C     0.38378   0.51966   0.50000   0.00000  Uiso   1.00
C12    C     0.42124   0.53098   0.50000   0.00000  Uiso   1.00
C13    C     0.68375   0.51975   0.50000   0.00000  Uiso   1.00
C14    C     0.65006   0.45957   0.50000   0.00000  Uiso   1.00
C15    C     0.61623   0.48034   0.50000   0.00000  Uiso   1.00
C16    C     0.57876   0.46902   0.50000   0.00000  Uiso   1.00
C17    C     0.51975   0.68375   0.50000   0.00000  Uiso   1.00
C18    C     0.45957   0.65006   0.50000   0.00000  Uiso   1.00
C19    C     0.48034   0.61623   0.50000   0.00000  Uiso   1.00
C20    C     0.46902   0.57876   0.50000   0.00000  Uiso   1.00
C21    C     0.48025   0.31626   0.50000   0.00000  Uiso   1.00
C22    C     0.54044   0.34994   0.50000   0.00000  Uiso   1.00
C23    C     0.51966   0.38378   0.50000   0.00000  Uiso   1.00
C24    C     0.53098   0.42124   0.50000   0.00000  Uiso   1.00
C25    C     0.68375   0.48025   0.50000   0.00000  Uiso   1.00
C26    C     0.65006   0.54044   0.50000   0.00000  Uiso   1.00
C27    C     0.61623   0.51966   0.50000   0.00000  Uiso   1.00
C28    C     0.57876   0.53098   0.50000   0.00000  Uiso   1.00
C29    C     0.31626   0.51975   0.50000   0.00000  Uiso   1.00
C30    C     0.34994   0.45957   0.50000   0.00000  Uiso   1.00
C31    C     0.38378   0.48034   0.50000   0.00000  Uiso   1.00
C32    C     0.42124   0.46902   0.50000   0.00000  Uiso   1.00
O33    O     0.53321   0.71913   0.50000   0.00000  Uiso   1.00
O34    O     0.46679   0.28088   0.50000   0.00000  Uiso   1.00
O35    O     0.28088   0.53321   0.50000   0.00000  Uiso   1.00
O36    O     0.71913   0.46679   0.50000   0.00000  Uiso   1.00
O37    O     0.46679   0.71913   0.50000   0.00000  Uiso   1.00
O38    O     0.53321   0.28088   0.50000   0.00000  Uiso   1.00
O39    O     0.71913   0.53321   0.50000   0.00000  Uiso   1.00
O40    O     0.28088   0.46679   0.50000   0.00000  Uiso   1.00
H41    H     0.56914   0.65050   0.50000   0.00000  Uiso   1.00
H42    H     0.43086   0.34950   0.50000   0.00000  Uiso   1.00
H43    H     0.34950   0.56914   0.50000   0.00000  Uiso   1.00
H44    H     0.65050   0.43086   0.50000   0.00000  Uiso   1.00
H45    H     0.43086   0.65050   0.50000   0.00000  Uiso   1.00
H46    H     0.56914   0.34950   0.50000   0.00000  Uiso   1.00
H47    H     0.65050   0.56914   0.50000   0.00000  Uiso   1.00
H48    H     0.34950   0.43086   0.50000   0.00000  Uiso   1.00
N49    N     0.56700   0.56700   0.50000   0.00000  Uiso   1.00
N50    N     0.43300   0.43300   0.50000   0.00000  Uiso   1.00
N51    N     0.43300   0.56700   0.50000   0.00000  Uiso   1.00
N52    N     0.56700   0.43300   0.50000   0.00000  Uiso   1.00
B53    B     0.50000   0.74241   0.50000   0.00000  Uiso   1.00
B54    B     0.50000   0.25759   0.50000   0.00000  Uiso   1.00
B55    B     0.25759   0.50000   0.50000   0.00000  Uiso   1.00
B56    B     0.74241   0.50000   0.50000   0.00000  Uiso   1.00
N57    N     0.50000   0.09505   0.50000   0.00000  Uiso   1.00
C58    C     0.50000   0.13402   0.50000   0.00000  Uiso   1.00
C59    C     0.50000   0.21568   0.50000   0.00000  Uiso   1.00
N60    N     0.50000   0.90495   0.50000   0.00000  Uiso   1.00
C61    C     0.50000   0.86598   0.50000   0.00000  Uiso   1.00
C62    C     0.50000   0.78432   0.50000   0.00000  Uiso   1.00
N63    N     0.90495   0.50000   0.50000   0.00000  Uiso   1.00
C64    C     0.86598   0.50000   0.50000   0.00000  Uiso   1.00
C65    C     0.78432   0.50000   0.50000   0.00000  Uiso   1.00
N66    N     0.09505   0.50000   0.50000   0.00000  Uiso   1.00
C67    C     0.13402   0.50000   0.50000   0.00000  Uiso   1.00
C68    C     0.21568   0.50000   0.50000   0.00000  Uiso   1.00
C69    C     0.48053   0.96622   0.50000   0.00000  Uiso   1.00
C70    C     0.46982   0.07135   0.50000   0.00000  Uiso   1.00
O71    O     0.43576   0.07966   0.50000   0.00000  Uiso   1.00
C72    C     0.46632   0.15575   0.50000   0.00000  Uiso   1.00
C73    C     0.46604   0.19536   0.50000   0.00000  Uiso   1.00
H74    H     0.44060   0.14335   0.50000   0.00000  Uiso   1.00
H75    H     0.44077   0.20932   0.50000   0.00000  Uiso   1.00
C76    C     0.51947   0.03378   0.50000   0.00000  Uiso   1.00
C77    C     0.53018   0.92865   0.50000   0.00000  Uiso   1.00
O78    O     0.56424   0.92035   0.50000   0.00000  Uiso   1.00
C79    C     0.53369   0.84425   0.50000   0.00000  Uiso   1.00
C80    C     0.53396   0.80464   0.50000   0.00000  Uiso   1.00
H81    H     0.55940   0.85665   0.50000   0.00000  Uiso   1.00
H82    H     0.55923   0.79068   0.50000   0.00000  Uiso   1.00
C83    C     0.03378   0.48053   0.50000   0.00000  Uiso   1.00
C84    C     0.92865   0.46982   0.50000   0.00000  Uiso   1.00
O85    O     0.92035   0.43576   0.50000   0.00000  Uiso   1.00
C86    C     0.84425   0.46632   0.50000   0.00000  Uiso   1.00
C87    C     0.80464   0.46604   0.50000   0.00000  Uiso   1.00
H88    H     0.85665   0.44060   0.50000   0.00000  Uiso   1.00
H89    H     0.79068   0.44077   0.50000   0.00000  Uiso   1.00
C90    C     0.96622   0.51947   0.50000   0.00000  Uiso   1.00
C91    C     0.07135   0.53018   0.50000   0.00000  Uiso   1.00
O92    O     0.07966   0.56424   0.50000   0.00000  Uiso   1.00
C93    C     0.15575   0.53369   0.50000   0.00000  Uiso   1.00
C94    C     0.19536   0.53396   0.50000   0.00000  Uiso   1.00
H95    H     0.14335   0.55940   0.50000   0.00000  Uiso   1.00
H96    H     0.20932   0.55923   0.50000   0.00000  Uiso   1.00
C97    C     0.51947   0.96622   0.50000   0.00000  Uiso   1.00
C98    C     0.53018   0.07135   0.50000   0.00000  Uiso   1.00
O99    O     0.56424   0.07966   0.50000   0.00000  Uiso   1.00
C100   C     0.53369   0.15575   0.50000   0.00000  Uiso   1.00
C101   C     0.53396   0.19536   0.50000   0.00000  Uiso   1.00
H102   H     0.55940   0.14335   0.50000   0.00000  Uiso   1.00
H103   H     0.55923   0.20932   0.50000   0.00000  Uiso   1.00
C104   C     0.48053   0.03378   0.50000   0.00000  Uiso   1.00
C105   C     0.46982   0.92865   0.50000   0.00000  Uiso   1.00
O106   O     0.43576   0.92035   0.50000   0.00000  Uiso   1.00
C107   C     0.46632   0.84425   0.50000   0.00000  Uiso   1.00
C108   C     0.46604   0.80464   0.50000   0.00000  Uiso   1.00
H109   H     0.44060   0.85665   0.50000   0.00000  Uiso   1.00
H110   H     0.44077   0.79068   0.50000   0.00000  Uiso   1.00
C111   C     0.96622   0.48053   0.50000   0.00000  Uiso   1.00
C112   C     0.07135   0.46982   0.50000   0.00000  Uiso   1.00
O113   O     0.07966   0.43576   0.50000   0.00000  Uiso   1.00
C114   C     0.15575   0.46632   0.50000   0.00000  Uiso   1.00
C115   C     0.19536   0.46604   0.50000   0.00000  Uiso   1.00
H116   H     0.14335   0.44060   0.50000   0.00000  Uiso   1.00
H117   H     0.20932   0.44077   0.50000   0.00000  Uiso   1.00
C118   C     0.03378   0.51947   0.50000   0.00000  Uiso   1.00
C119   C     0.92865   0.53018   0.50000   0.00000  Uiso   1.00
O120   O     0.92035   0.56424   0.50000   0.00000  Uiso   1.00
C121   C     0.84425   0.53369   0.50000   0.00000  Uiso   1.00
C122   C     0.80464   0.53396   0.50000   0.00000  Uiso   1.00
H123   H     0.85665   0.55940   0.50000   0.00000  Uiso   1.00
H124   H     0.79068   0.55923   0.50000   0.00000  Uiso   1.00
C125   C     0.45961   0.00000   0.50000   0.00000  Uiso   1.00
H126   H     0.43075   0.00000   0.50000   0.00000  Uiso   1.00
C127   C     0.54039   0.00000   0.50000   0.00000  Uiso   1.00
H128   H     0.56925   0.00000   0.50000   0.00000  Uiso   1.00
C129   C     0.00000   0.45961   0.50000   0.00000  Uiso   1.00
H130   H     0.00000   0.43075   0.50000   0.00000  Uiso   1.00
C131   C     0.00000   0.54039   0.50000   0.00000  Uiso   1.00
H132   H     0.00000   0.56925   0.50000   0.00000  Uiso   1.00
Cu133  Cu    0.50000   0.50000   0.50000   0.00000  Uiso   1.00
N134   N     0.50000   0.55703   0.50000   0.00000  Uiso   1.00
N135   N     0.50000   0.44297   0.50000   0.00000  Uiso   1.00
N136   N     0.44297   0.50000   0.50000   0.00000  Uiso   1.00
N137   N     0.55703   0.50000   0.50000   0.00000  Uiso   1.00
loop_
_geom_bond_atom_site_label_1
_geom_bond_atom_site_label_2
_geom_bond_distance
_geom_bond_site_symmetry_2
_ccdc_geom_bond_type
C1     C17     1.404   .     D
C1     C18     1.406   .     S
C1     O37     1.346   .     S
C2     C3      1.412   .     D
C2     C17     1.406   .     S
C2     H41     1.021   .     S
C3     C4      1.392   .     S
C3     C19     1.398   .     S
C4     N49     1.347   .     S
C4     N134    1.345   .     D
C5     C21     1.404   .     S
C5     C22     1.406   .     D
C5     O38     1.346   .     S
C6     C7      1.412   .     S
C6     C21     1.406   .     D
C6     H42     1.021   .     S
C7     C8      1.392   .     S
C7     C23     1.398   .     D
C8     N50     1.347   .     S
C8     N135    1.345   .     D
C9     C29     1.404   .     D
C9     C30     1.406   .     S
C9     O40     1.346   .     S
C10    C11     1.412   .     D
C10    C29     1.406   .     S
C10    H43     1.021   .     S
C11    C12     1.392   .     S
C11    C31     1.398   .     S
C12    N51     1.347   .     S
C12    N136    1.345   .     D
C13    C25     1.404   .     S
C13    C26     1.406   .     D
C13    O39     1.346   .     S
C14    C15     1.412   .     S
C14    C25     1.406   .     D
C14    H44     1.021   .     S
C15    C16     1.392   .     S
C15    C27     1.398   .     D
C16    N52     1.347   .     S
C16    N137    1.345   .     D
C17    O33     1.346   .     S
C18    C19     1.412   .     D
C18    H45     1.021   .     S
C19    C20     1.392   .     S
C20    N51     1.347   .     D
C20    N134    1.345   .     S
C21    O34     1.346   .     S
C22    C23     1.412   .     S
C22    H46     1.021   .     S
C23    C24     1.392   .     S
C24    N52     1.347   .     D
C24    N135    1.345   .     S
C25    O36     1.346   .     S
C26    C27     1.412   .     S
C26    H47     1.021   .     S
C27    C28     1.392   .     S
C28    N49     1.347   .     D
C28    N137    1.345   .     S
C29    O35     1.346   .     S
C30    C31     1.412   .     D
C30    H48     1.021   .     S
C31    C32     1.392   .     S
C32    N50     1.347   .     D
C32    N136    1.345   .     S
O33    B53     1.442   .     S
O34    B54     1.442   .     S
O35    B55     1.442   .     S
O36    B56     1.442   .     S
O37    B53     1.442   .     S
O38    B54     1.442   .     S
O39    B56     1.442   .     S
O40    B55     1.442   .     S
B53    C62     1.490   .     S
B54    C59     1.490   .     S
B55    C68     1.490   .     S
B56    C65     1.490   .     S
N57    C58     1.386   .     S
N57    C70     1.364   .     S
N57    C98     1.364   .     S
C58    C72     1.425   .     D
C58    C100    1.425   .     S
C59    C73     1.407   .     D
C59    C101    1.407   .     S
N60    C61     1.386   .     S
N60    C77     1.364   .     S
N60    C105    1.364   .     S
C61    C79     1.425   .     D
C61    C107    1.425   .     S
C62    C80     1.407   .     D
C62    C108    1.407   .     S
N63    C64     1.386   .     S
N63    C84     1.364   .     S
N63    C119    1.364   .     S
C64    C86     1.425   .     D
C64    C121    1.425   .     S
C65    C87     1.407   .     D
C65    C122    1.407   .     S
N66    C67     1.386   .     S
N66    C91     1.364   .     S
N66    C112    1.364   .     S
C67    C93     1.425   .     D
C67    C114    1.425   .     S
C68    C94     1.407   .     D
C68    C115    1.407   .     S
C69    C97     1.385   .     S
C69    C105    1.389   .     S
C69    C125    1.413   1_565 D
C70    O71     1.247   .     D
C70    C104    1.389   .     S
C72    C73     1.408   .     S
C72    H74     1.015   .     S
C73    H75     1.027   .     S
C76    C98     1.389   .     S
C76    C104    1.385   .     D
C76    C127    1.413   .     S
C77    O78     1.247   .     D
C77    C97     1.389   .     S
C79    C80     1.408   .     S
C79    H81     1.015   .     S
C80    H82     1.027   .     S
C83    C112    1.389   .     S
C83    C118    1.385   .     D
C83    C129    1.413   .     S
C84    O85     1.247   .     D
C84    C111    1.389   .     S
C86    C87     1.408   .     S
C86    H88     1.015   .     S
C87    H89     1.027   .     S
C90    C111    1.385   .     S
C90    C119    1.389   .     S
C90    C131    1.413   1_655 D
C91    O92     1.247   .     D
C91    C118    1.389   .     S
C93    C94     1.408   .     S
C93    H95     1.015   .     S
C94    H96     1.027   .     S
C97    C127    1.413   1_565 D
C98    O99     1.247   .     D
C100   C101    1.408   .     D
C100   H102    1.015   .     S
C101   H103    1.027   .     S
C104   C125    1.413   .     S
C105   O106    1.247   .     D
C107   C108    1.408   .     D
C107   H109    1.015   .     S
C108   H110    1.027   .     S
C111   C129    1.413   1_655 D
C112   O113    1.247   .     D
C114   C115    1.408   .     D
C114   H116    1.015   .     S
C115   H117    1.027   .     S
C118   C131    1.413   .     S
C119   O120    1.247   .     D
C121   C122    1.408   .     D
C121   H123    1.015   .     S
C122   H124    1.027   .     S
C125   C69     1.413   1_545 D
C125   H126    1.026   .     S
C127   C97     1.413   1_545 D
C127   H128    1.026   .     S
C129   C111    1.413   1_455 D
C129   H130    1.026   .     S
C131   C90     1.413   1_455 D
C131   H132    1.026   .     S
Cu133  N134    2.028   .     S
Cu133  N135    2.028   .     S
Cu133  N136    2.028   .     S
Cu133  N137    2.028   .     S
