data_209
_audit_creation_date              2023-09-08
_audit_creation_method            'Materials Studio'
_symmetry_space_group_name_H-M    'P1'
_symmetry_Int_Tables_number       1
_symmetry_cell_setting            triclinic
loop_
_symmetry_equiv_pos_as_xyz
  x,y,z
_cell_length_a                    36.2000
_cell_length_b                    36.2000
_cell_length_c                    3.4000
_cell_angle_alpha                 90.0000
_cell_angle_beta                  90.0000
_cell_angle_gamma                 120.0000
loop_
_atom_site_label
_atom_site_type_symbol
_atom_site_fract_x
_atom_site_fract_y
_atom_site_fract_z
_atom_site_U_iso_or_equiv
_atom_site_adp_type
_atom_site_occupancy
N1     N     0.45505   0.56773   0.59212   0.00000  Uiso   1.00
O2     O     0.51620   0.56641   0.96139   0.00000  Uiso   1.00
C3     C     0.46817   0.48351   0.22836   0.00000  Uiso   1.00
C4     C     0.47551   0.51764   0.45190   0.00000  Uiso   1.00
C5     C     0.44951   0.53603   0.39874   0.00000  Uiso   1.00
C6     C     0.50787   0.53344   0.73169   0.00000  Uiso   1.00
C7     C     0.42852   0.58611   0.53821   0.00000  Uiso   1.00
C8     C     0.43784   0.61978   0.79269   0.00000  Uiso   1.00
C9     C     0.41289   0.63764   0.76260   0.00000  Uiso   1.00
C10    C     0.37157   0.58890   0.25918   0.00000  Uiso   1.00
C11    C     0.39470   0.57032   0.27748   0.00000  Uiso   1.00
C12    C     0.38020   0.62324   0.49421   0.00000  Uiso   1.00
C13    C     0.35695   0.64565   0.47648   0.00000  Uiso   1.00
C14    C     0.37801   0.68943   0.47705   0.00000  Uiso   1.00
H15    H     0.44162   0.46801   0.05272   0.00000  Uiso   1.00
H16    H     0.42529   0.52038   0.20445   0.00000  Uiso   1.00
H17    H     0.49951   0.57414   0.91348   0.00000  Uiso   1.00
H18    H     0.46531   0.63355   0.95705   0.00000  Uiso   1.00
H19    H     0.42283   0.66541   0.91557   0.00000  Uiso   1.00
H20    H     0.34433   0.57502   0.09132   0.00000  Uiso   1.00
H21    H     0.38359   0.54264   0.12364   0.00000  Uiso   1.00
H22    H     0.41061   0.70677   0.47620   0.00000  Uiso   1.00
N23    N     0.43227   0.88732   0.59212   0.00000  Uiso   1.00
O24    O     0.43359   0.94979   0.96139   0.00000  Uiso   1.00
C25    C     0.51649   0.98466   0.22836   0.00000  Uiso   1.00
C26    C     0.48236   0.95787   0.45190   0.00000  Uiso   1.00
C27    C     0.46397   0.91348   0.39874   0.00000  Uiso   1.00
C28    C     0.46656   0.97443   0.73169   0.00000  Uiso   1.00
C29    C     0.41389   0.84241   0.53821   0.00000  Uiso   1.00
C30    C     0.38022   0.81806   0.79269   0.00000  Uiso   1.00
C31    C     0.36236   0.77525   0.76260   0.00000  Uiso   1.00
C32    C     0.41110   0.78267   0.25918   0.00000  Uiso   1.00
C33    C     0.42968   0.82438   0.27748   0.00000  Uiso   1.00
C34    C     0.37676   0.75696   0.49421   0.00000  Uiso   1.00
C35    C     0.35435   0.71130   0.47648   0.00000  Uiso   1.00
C36    C     0.31057   0.68858   0.47705   0.00000  Uiso   1.00
H37    H     0.53199   0.97361   0.05272   0.00000  Uiso   1.00
H38    H     0.47962   0.90491   0.20445   0.00000  Uiso   1.00
H39    H     0.42586   0.92537   0.91348   0.00000  Uiso   1.00
H40    H     0.36645   0.83176   0.95705   0.00000  Uiso   1.00
H41    H     0.33459   0.75742   0.91557   0.00000  Uiso   1.00
H42    H     0.42498   0.76930   0.09132   0.00000  Uiso   1.00
H43    H     0.45736   0.84095   0.12364   0.00000  Uiso   1.00
H44    H     0.29323   0.70384   0.47620   0.00000  Uiso   1.00
N45    N     0.11268   0.54495   0.59212   0.00000  Uiso   1.00
O46    O     0.05021   0.48380   0.96139   0.00000  Uiso   1.00
C47    C     0.01534   0.53183   0.22836   0.00000  Uiso   1.00
C48    C     0.04213   0.52449   0.45190   0.00000  Uiso   1.00
C49    C     0.08652   0.55049   0.39874   0.00000  Uiso   1.00
C50    C     0.02557   0.49213   0.73169   0.00000  Uiso   1.00
C51    C     0.15759   0.57148   0.53821   0.00000  Uiso   1.00
C52    C     0.18194   0.56216   0.79269   0.00000  Uiso   1.00
C53    C     0.22475   0.58711   0.76260   0.00000  Uiso   1.00
C54    C     0.21733   0.62843   0.25918   0.00000  Uiso   1.00
C55    C     0.17562   0.60530   0.27748   0.00000  Uiso   1.00
C56    C     0.24304   0.61980   0.49421   0.00000  Uiso   1.00
C57    C     0.28870   0.64305   0.47648   0.00000  Uiso   1.00
C58    C     0.31142   0.62199   0.47705   0.00000  Uiso   1.00
H59    H     0.02639   0.55838   0.05272   0.00000  Uiso   1.00
H60    H     0.09509   0.57471   0.20445   0.00000  Uiso   1.00
H61    H     0.07463   0.50049   0.91348   0.00000  Uiso   1.00
H62    H     0.16825   0.53470   0.95705   0.00000  Uiso   1.00
H63    H     0.24258   0.57717   0.91557   0.00000  Uiso   1.00
H64    H     0.23070   0.65568   0.09132   0.00000  Uiso   1.00
H65    H     0.15905   0.61641   0.12364   0.00000  Uiso   1.00
H66    H     0.29616   0.58939   0.47620   0.00000  Uiso   1.00
N67    N     0.54495   0.43227   0.40788   0.00000  Uiso   1.00
O68    O     0.48380   0.43359   0.03861   0.00000  Uiso   1.00
C69    C     0.53183   0.51649   0.77164   0.00000  Uiso   1.00
C70    C     0.52449   0.48236   0.54810   0.00000  Uiso   1.00
C71    C     0.55049   0.46397   0.60126   0.00000  Uiso   1.00
C72    C     0.49213   0.46656   0.26831   0.00000  Uiso   1.00
C73    C     0.57148   0.41389   0.46179   0.00000  Uiso   1.00
C74    C     0.56216   0.38022   0.20731   0.00000  Uiso   1.00
C75    C     0.58711   0.36236   0.23740   0.00000  Uiso   1.00
C76    C     0.62843   0.41110   0.74082   0.00000  Uiso   1.00
C77    C     0.60530   0.42968   0.72252   0.00000  Uiso   1.00
C78    C     0.61980   0.37676   0.50579   0.00000  Uiso   1.00
C79    C     0.64305   0.35435   0.52352   0.00000  Uiso   1.00
C80    C     0.62199   0.31057   0.52295   0.00000  Uiso   1.00
H81    H     0.55838   0.53199   0.94729   0.00000  Uiso   1.00
H82    H     0.57471   0.47962   0.79555   0.00000  Uiso   1.00
H83    H     0.50049   0.42586   0.08652   0.00000  Uiso   1.00
H84    H     0.53470   0.36645   0.04295   0.00000  Uiso   1.00
H85    H     0.57717   0.33459   0.08443   0.00000  Uiso   1.00
H86    H     0.65568   0.42498   0.90868   0.00000  Uiso   1.00
H87    H     0.61641   0.45736   0.87636   0.00000  Uiso   1.00
H88    H     0.58939   0.29323   0.52380   0.00000  Uiso   1.00
N89    N     0.56773   0.11268   0.40788   0.00000  Uiso   1.00
O90    O     0.56641   0.05021   0.03861   0.00000  Uiso   1.00
C91    C     0.48351   0.01534   0.77164   0.00000  Uiso   1.00
C92    C     0.51764   0.04213   0.54810   0.00000  Uiso   1.00
C93    C     0.53603   0.08652   0.60126   0.00000  Uiso   1.00
C94    C     0.53344   0.02557   0.26831   0.00000  Uiso   1.00
C95    C     0.58611   0.15759   0.46179   0.00000  Uiso   1.00
C96    C     0.61978   0.18194   0.20731   0.00000  Uiso   1.00
C97    C     0.63764   0.22475   0.23740   0.00000  Uiso   1.00
C98    C     0.58890   0.21733   0.74082   0.00000  Uiso   1.00
C99    C     0.57032   0.17562   0.72252   0.00000  Uiso   1.00
C100   C     0.62324   0.24304   0.50579   0.00000  Uiso   1.00
C101   C     0.64565   0.28870   0.52352   0.00000  Uiso   1.00
C102   C     0.68943   0.31142   0.52295   0.00000  Uiso   1.00
H103   H     0.46801   0.02639   0.94729   0.00000  Uiso   1.00
H104   H     0.52038   0.09509   0.79555   0.00000  Uiso   1.00
H105   H     0.57414   0.07463   0.08652   0.00000  Uiso   1.00
H106   H     0.63355   0.16825   0.04295   0.00000  Uiso   1.00
H107   H     0.66541   0.24258   0.08443   0.00000  Uiso   1.00
H108   H     0.57502   0.23070   0.90868   0.00000  Uiso   1.00
H109   H     0.54264   0.15905   0.87636   0.00000  Uiso   1.00
H110   H     0.70677   0.29616   0.52380   0.00000  Uiso   1.00
N111   N     0.88732   0.45505   0.40788   0.00000  Uiso   1.00
O112   O     0.94979   0.51620   0.03861   0.00000  Uiso   1.00
C113   C     0.98466   0.46817   0.77164   0.00000  Uiso   1.00
C114   C     0.95787   0.47551   0.54810   0.00000  Uiso   1.00
C115   C     0.91348   0.44951   0.60126   0.00000  Uiso   1.00
C116   C     0.97443   0.50787   0.26831   0.00000  Uiso   1.00
C117   C     0.84241   0.42852   0.46179   0.00000  Uiso   1.00
C118   C     0.81806   0.43784   0.20731   0.00000  Uiso   1.00
C119   C     0.77525   0.41289   0.23740   0.00000  Uiso   1.00
C120   C     0.78267   0.37157   0.74082   0.00000  Uiso   1.00
C121   C     0.82438   0.39470   0.72252   0.00000  Uiso   1.00
C122   C     0.75696   0.38020   0.50579   0.00000  Uiso   1.00
C123   C     0.71130   0.35695   0.52352   0.00000  Uiso   1.00
C124   C     0.68858   0.37801   0.52295   0.00000  Uiso   1.00
H125   H     0.97361   0.44162   0.94729   0.00000  Uiso   1.00
H126   H     0.90491   0.42529   0.79555   0.00000  Uiso   1.00
H127   H     0.92537   0.49951   0.08652   0.00000  Uiso   1.00
H128   H     0.83176   0.46531   0.04295   0.00000  Uiso   1.00
H129   H     0.75742   0.42283   0.08443   0.00000  Uiso   1.00
H130   H     0.76930   0.34433   0.90868   0.00000  Uiso   1.00
H131   H     0.84095   0.38359   0.87636   0.00000  Uiso   1.00
H132   H     0.70384   0.41061   0.52380   0.00000  Uiso   1.00
loop_
_geom_bond_atom_site_label_1
_geom_bond_atom_site_label_2
_geom_bond_distance
_geom_bond_site_symmetry_2
_ccdc_geom_bond_type
N1     C5      1.249   .     D
N1     C7      1.427   .     S
O2     C6      1.329   .     S
O2     H17     0.799   .     S
C3     C4      1.359   .     D
C3     H15     1.028   .     S
C3     C72     1.296   .     S
C4     C5      1.410   .     S
C4     C6      1.391   .     S
C5     H16     1.015   .     S
C6     C69     1.296   .     D
C7     C8      1.392   .     S
C7     C11     1.383   .     D
C8     C9      1.352   .     D
C8     H18     1.026   .     S
C9     C12     1.374   .     S
C9     H19     1.024   .     S
C10    C11     1.312   .     S
C10    C12     1.376   .     D
C10    H20     1.027   .     S
C11    H21     1.018   .     S
C12    C13     1.433   .     S
C13    C14     1.373   .     S
C13    C58     1.428   .     D
C14    H22     1.023   .     S
C14    C35     1.428   .     D
N23    C27     1.249   .     D
N23    C29     1.427   .     S
O24    C28     1.329   .     S
O24    H39     0.799   .     S
C25    C26     1.359   .     S
C25    H37     1.028   .     S
C25    C94     1.296   1_565 D
C26    C27     1.410   .     S
C26    C28     1.391   .     D
C27    H38     1.015   .     S
C28    C91     1.296   1_565 S
C29    C30     1.392   .     D
C29    C33     1.383   .     S
C30    C31     1.352   .     S
C30    H40     1.026   .     S
C31    C34     1.374   .     D
C31    H41     1.024   .     S
C32    C33     1.312   .     D
C32    C34     1.376   .     S
C32    H42     1.027   .     S
C33    H43     1.018   .     S
C34    C35     1.433   .     S
C35    C36     1.373   .     S
C36    H44     1.023   .     S
C36    C57     1.428   .     D
N45    C49     1.249   .     D
N45    C51     1.427   .     S
O46    C50     1.329   .     S
O46    H61     0.799   .     S
C47    C48     1.359   .     S
C47    H59     1.028   .     S
C47    C116    1.296   1_455 D
C48    C49     1.410   .     S
C48    C50     1.391   .     D
C49    H60     1.015   .     S
C50    C113    1.296   1_455 S
C51    C52     1.392   .     D
C51    C55     1.383   .     S
C52    C53     1.352   .     S
C52    H62     1.026   .     S
C53    C56     1.374   .     D
C53    H63     1.024   .     S
C54    C55     1.312   .     D
C54    C56     1.376   .     S
C54    H64     1.027   .     S
C55    H65     1.018   .     S
C56    C57     1.433   .     S
C57    C58     1.373   .     S
C58    H66     1.023   .     S
N67    C71     1.249   .     D
N67    C73     1.427   .     S
O68    C72     1.329   .     S
O68    H83     0.799   .     S
C69    C70     1.359   .     S
C69    H81     1.028   .     S
C70    C71     1.410   .     S
C70    C72     1.391   .     D
C71    H82     1.015   .     S
C73    C74     1.392   .     S
C73    C77     1.383   .     D
C74    C75     1.352   .     D
C74    H84     1.026   .     S
C75    C78     1.374   .     S
C75    H85     1.024   .     S
C76    C77     1.312   .     S
C76    C78     1.376   .     D
C76    H86     1.027   .     S
C77    H87     1.018   .     S
C78    C79     1.433   .     S
C79    C80     1.373   .     S
C79    C124    1.428   .     D
C80    H88     1.023   .     S
C80    C101    1.428   .     D
N89    C93     1.249   .     D
N89    C95     1.427   .     S
O90    C94     1.329   .     S
O90    H105    0.799   .     S
C91    C28     1.296   1_545 S
C91    C92     1.359   .     D
C91    H103    1.028   .     S
C92    C93     1.410   .     S
C92    C94     1.391   .     S
C93    H104    1.015   .     S
C94    C25     1.296   1_545 D
C95    C96     1.392   .     D
C95    C99     1.383   .     S
C96    C97     1.352   .     S
C96    H106    1.026   .     S
C97    C100    1.374   .     D
C97    H107    1.024   .     S
C98    C99     1.312   .     D
C98    C100    1.376   .     S
C98    H108    1.027   .     S
C99    H109    1.018   .     S
C100   C101    1.433   .     S
C101   C102    1.373   .     S
C102   H110    1.023   .     S
C102   C123    1.428   .     D
N111   C115    1.249   .     D
N111   C117    1.427   .     S
O112   C116    1.329   .     S
O112   H127    0.799   .     S
C113   C50     1.296   1_655 S
C113   C114    1.359   .     D
C113   H125    1.028   .     S
C114   C115    1.410   .     S
C114   C116    1.391   .     S
C115   H126    1.015   .     S
C116   C47     1.296   1_655 D
C117   C118    1.392   .     D
C117   C121    1.383   .     S
C118   C119    1.352   .     S
C118   H128    1.026   .     S
C119   C122    1.374   .     D
C119   H129    1.024   .     S
C120   C121    1.312   .     D
C120   C122    1.376   .     S
C120   H130    1.027   .     S
C121   H131    1.018   .     S
C122   C123    1.433   .     S
C123   C124    1.373   .     S
C124   H132    1.023   .     S
