data_210
_audit_creation_date              2023-09-08
_audit_creation_method            'Materials Studio'
_symmetry_space_group_name_H-M    'P1'
_symmetry_Int_Tables_number       1
_symmetry_cell_setting            triclinic
loop_
_symmetry_equiv_pos_as_xyz
  x,y,z
_cell_length_a                    37.3226
_cell_length_b                    37.3414
_cell_length_c                    3.5642
_cell_angle_alpha                 87.4249
_cell_angle_beta                  95.5139
_cell_angle_gamma                 119.8900
loop_
_atom_site_label
_atom_site_type_symbol
_atom_site_fract_x
_atom_site_fract_y
_atom_site_fract_z
_atom_site_U_iso_or_equiv
_atom_site_adp_type
_atom_site_occupancy
C1     C     0.04605   0.97584   0.51987   0.00000  Uiso   1.00
C2     C     0.06911   0.08791   0.55113   0.00000  Uiso   1.00
C3     C     0.00410   0.95391   0.56322   0.00000  Uiso   1.00
C4     C     0.98486   0.97750   0.59711   0.00000  Uiso   1.00
C5     C     0.00619   0.02019   0.59054   0.00000  Uiso   1.00
C6     C     0.04853   0.04281   0.54935   0.00000  Uiso   1.00
O7     O     0.06827   0.95744   0.48160   0.00000  Uiso   1.00
C8     C     0.17054   0.17608   0.55863   0.00000  Uiso   1.00
C9     C     0.12968   0.21978   0.44134   0.00000  Uiso   1.00
C10    C     0.19266   0.21910   0.55303   0.00000  Uiso   1.00
C11    C     0.17280   0.24193   0.49307   0.00000  Uiso   1.00
C12    C     0.97103   0.84190   0.54824   0.00000  Uiso   1.00
C13    C     0.92824   0.81942   0.48920   0.00000  Uiso   1.00
C14    C     0.99226   0.81991   0.59818   0.00000  Uiso   1.00
C15    C     0.19633   0.28766   0.48410   0.00000  Uiso   1.00
C16    C     0.19762   0.35389   0.49753   0.00000  Uiso   1.00
C17    C     0.26167   0.35275   0.45592   0.00000  Uiso   1.00
C18    C     0.90660   0.70853   0.51563   0.00000  Uiso   1.00
C19    C     0.90704   0.64363   0.47827   0.00000  Uiso   1.00
C20    C     0.84166   0.64231   0.51542   0.00000  Uiso   1.00
C21    C     0.30728   0.37506   0.44539   0.00000  Uiso   1.00
C22    C     0.33079   0.35564   0.50213   0.00000  Uiso   1.00
C23    C     0.32906   0.41670   0.38710   0.00000  Uiso   1.00
C24    C     0.37379   0.37629   0.49836   0.00000  Uiso   1.00
C25    C     0.37212   0.43799   0.38762   0.00000  Uiso   1.00
C26    C     0.05362   0.54450   0.45665   0.00000  Uiso   1.00
C27    C     0.03400   0.50222   0.50821   0.00000  Uiso   1.00
C28    C     0.09604   0.56391   0.41748   0.00000  Uiso   1.00
C29    C     0.05608   0.48005   0.51797   0.00000  Uiso   1.00
C30    C     0.73160   0.55578   0.57712   0.00000  Uiso   1.00
C31    C     0.70834   0.57502   0.51267   0.00000  Uiso   1.00
C32    C     0.93034   0.62130   0.46675   0.00000  Uiso   1.00
C33    C     0.91060   0.57983   0.40423   0.00000  Uiso   1.00
C34    C     0.97300   0.64036   0.52800   0.00000  Uiso   1.00
C35    C     0.93218   0.55828   0.40639   0.00000  Uiso   1.00
C36    C     0.99520   0.61949   0.52542   0.00000  Uiso   1.00
C37    C     0.97496   0.57790   0.46474   0.00000  Uiso   1.00
C38    C     0.46187   0.42649   0.41055   0.00000  Uiso   1.00
C39    C     0.03313   0.56930   0.43999   0.00000  Uiso   1.00
C40    C     0.57318   0.45329   0.40389   0.00000  Uiso   1.00
C41    C     0.57385   0.51591   0.49015   0.00000  Uiso   1.00
C42    C     0.59634   0.49599   0.45325   0.00000  Uiso   1.00
C43    C     0.06804   0.01988   0.51298   0.00000  Uiso   1.00
C44    C     0.97958   0.90895   0.57701   0.00000  Uiso   1.00
N45    N     0.99431   0.88511   0.54532   0.00000  Uiso   1.00
N46    N     0.10720   0.11098   0.51206   0.00000  Uiso   1.00
C47    C     0.12732   0.15426   0.50979   0.00000  Uiso   1.00
C48    C     0.10711   0.17681   0.45001   0.00000  Uiso   1.00
C49    C     0.39518   0.41798   0.44036   0.00000  Uiso   1.00
C50    C     0.17502   0.37683   0.51065   0.00000  Uiso   1.00
C51    C     0.19547   0.41845   0.57055   0.00000  Uiso   1.00
C52    C     0.13189   0.35743   0.45952   0.00000  Uiso   1.00
C53    C     0.17418   0.44024   0.57433   0.00000  Uiso   1.00
C54    C     0.11017   0.37865   0.46607   0.00000  Uiso   1.00
C55    C     0.13124   0.42068   0.51896   0.00000  Uiso   1.00
C56    C     0.79602   0.61926   0.52109   0.00000  Uiso   1.00
C57    C     0.77242   0.63840   0.46120   0.00000  Uiso   1.00
C58    C     0.77475   0.57780   0.58159   0.00000  Uiso   1.00
C59    C     0.72939   0.61696   0.45945   0.00000  Uiso   1.00
O60    O     0.51174   0.51648   0.51595   0.00000  Uiso   1.00
O61    O     0.99384   0.47986   0.55209   0.00000  Uiso   1.00
N62    N     0.99470   0.55427   0.47192   0.00000  Uiso   1.00
N63    N     0.43849   0.44142   0.44562   0.00000  Uiso   1.00
C64    C     0.12236   0.47890   0.47398   0.00000  Uiso   1.00
C65    C     0.64153   0.51658   0.45880   0.00000  Uiso   1.00
N66    N     0.10790   0.44062   0.52120   0.00000  Uiso   1.00
C67    C     0.86379   0.62173   0.48977   0.00000  Uiso   1.00
O68    O     0.10816   0.03730   0.46929   0.00000  Uiso   1.00
O69    O     0.59182   0.55648   0.54063   0.00000  Uiso   1.00
O70    O     0.03392   0.43964   0.57023   0.00000  Uiso   1.00
C71    C     0.11737   0.54236   0.42620   0.00000  Uiso   1.00
C72    C     0.09804   0.49972   0.47556   0.00000  Uiso   1.00
C73    C     0.50712   0.45135   0.42716   0.00000  Uiso   1.00
C74    C     0.53032   0.43183   0.39149   0.00000  Uiso   1.00
C75    C     0.52964   0.49380   0.47700   0.00000  Uiso   1.00
N76    N     0.66498   0.55494   0.50642   0.00000  Uiso   1.00
C77    C     0.24036   0.37457   0.47341   0.00000  Uiso   1.00
C78    C     0.17637   0.31047   0.50803   0.00000  Uiso   1.00
C79    C     0.23883   0.30922   0.45482   0.00000  Uiso   1.00
C80    C     0.86367   0.68559   0.53363   0.00000  Uiso   1.00
C81    C     0.92774   0.68714   0.48492   0.00000  Uiso   1.00
C82    C     0.90776   0.77645   0.47990   0.00000  Uiso   1.00
C83    C     0.97131   0.77690   0.59175   0.00000  Uiso   1.00
C84    C     0.92871   0.75420   0.53004   0.00000  Uiso   1.00
H85    H     0.04575   0.09887   0.54111   0.00000  Uiso   1.00
H86    H     0.94588   0.95118   0.59384   0.00000  Uiso   1.00
H87    H    -0.00331   0.04480   0.59285   0.00000  Uiso   1.00
H88    H     0.18904   0.16158   0.58711   0.00000  Uiso   1.00
H89    H     0.10666   0.23154   0.40950   0.00000  Uiso   1.00
H90    H     0.22557   0.22956   0.58438   0.00000  Uiso   1.00
H91    H     0.90867   0.83466   0.45715   0.00000  Uiso   1.00
H92    H     1.02517   0.83385   0.62767   0.00000  Uiso   1.00
H93    H     0.32070   0.32201   0.51691   0.00000  Uiso   1.00
H94    H     0.32467   0.44821   0.37387   0.00000  Uiso   1.00
H95    H     0.38849   0.35795   0.51649   0.00000  Uiso   1.00
H96    H     0.39419   0.47207   0.39427   0.00000  Uiso   1.00
H97    H     0.12151   0.59859   0.43205   0.00000  Uiso   1.00
H98    H     0.72195   0.52212   0.58604   0.00000  Uiso   1.00
H99    H     0.87542   0.55053   0.39256   0.00000  Uiso   1.00
H100   H     0.99775   0.67467   0.54671   0.00000  Uiso   1.00
H101   H     0.91928   0.52469   0.41007   0.00000  Uiso   1.00
H102   H     1.02824   0.63790   0.54282   0.00000  Uiso   1.00
H103   H     0.45345   0.39292   0.42498   0.00000  Uiso   1.00
H104   H     0.05900   0.60344   0.45748   0.00000  Uiso   1.00
H105   H     0.59168   0.43826   0.42627   0.00000  Uiso   1.00
H106   H     0.94058   0.89003   0.56592   0.00000  Uiso   1.00
H107   H     0.06920   0.15490   0.42232   0.00000  Uiso   1.00
H108   H     0.22834   0.43807   0.58599   0.00000  Uiso   1.00
H109   H     0.11458   0.32421   0.46187   0.00000  Uiso   1.00
H110   H     0.19903   0.47454   0.58985   0.00000  Uiso   1.00
H111   H     0.07358   0.35150   0.44588   0.00000  Uiso   1.00
H112   H     0.78892   0.67224   0.46708   0.00000  Uiso   1.00
H113   H     0.78839   0.55850   0.59867   0.00000  Uiso   1.00
H114   H     0.72125   0.64619   0.43989   0.00000  Uiso   1.00
H115   H     0.15556   0.49756   0.49862   0.00000  Uiso   1.00
H116   H     0.65606   0.49790   0.48152   0.00000  Uiso   1.00
H117   H     0.84867   0.58890   0.48651   0.00000  Uiso   1.00
H118   H     0.15089   0.55735   0.44900   0.00000  Uiso   1.00
H119   H     0.52048   0.39767   0.40455   0.00000  Uiso   1.00
H120   H     0.25925   0.40804   0.48119   0.00000  Uiso   1.00
H121   H     0.13944   0.28739   0.49557   0.00000  Uiso   1.00
H122   H     0.25643   0.29405   0.47534   0.00000  Uiso   1.00
H123   H     0.84849   0.70806   0.52037   0.00000  Uiso   1.00
H124   H     0.96005   0.70163   0.50768   0.00000  Uiso   1.00
H125   H     0.86861   0.76061   0.44709   0.00000  Uiso   1.00
H126   H     0.99129   0.76346   0.62021   0.00000  Uiso   1.00
H127   H     0.05377   0.92734   0.48491   0.00000  Uiso   1.00
H128   H     0.48148   0.50214   0.49358   0.00000  Uiso   1.00
H129   H     0.97781   0.49408   0.53354   0.00000  Uiso   1.00
H130   H     0.12421   0.06738   0.46568   0.00000  Uiso   1.00
H131   H     0.62193   0.57238   0.53786   0.00000  Uiso   1.00
H132   H     0.04810   0.42369   0.56662   0.00000  Uiso   1.00
loop_
_geom_bond_atom_site_label_1
_geom_bond_atom_site_label_2
_geom_bond_distance
_geom_bond_site_symmetry_2
_ccdc_geom_bond_type
C1     C3      1.380   .     D
C1     O7      1.333   .     S
C1     C43     1.426   1_565 S
C2     C6      1.462   .     S
C2     N46     1.261   .     D
C2     H85     1.130   .     S
C3     C4      1.401   1_455 S
C3     C44     1.459   1_455 S
C4     C3      1.401   1_655 S
C4     C5      1.382   1_665 D
C4     H86     1.287   .     S
C5     C4      1.382   1_445 D
C5     C6      1.391   .     S
C5     H87     1.139   .     S
C6     C43     1.389   .     D
O7     H127    0.975   .     S
C8     C10     1.393   .     S
C8     C47     1.395   .     D
C8     H88     1.065   .     S
C9     C11     1.392   .     S
C9     C48     1.392   .     D
C9     H89     1.139   .     S
C10    C11     1.380   .     D
C10    H90     1.083   .     S
C11    C15     1.482   .     S
C12    C13     1.384   .     D
C12    C14     1.393   .     S
C12    N45     1.401   .     S
C13    C82     1.392   .     S
C13    H91     1.124   .     S
C14    C83     1.393   .     D
C14    H92     1.064   .     S
C15    C78     1.392   .     D
C15    C79     1.388   .     S
C16    C50     1.476   .     S
C16    C77     1.393   .     D
C16    C78     1.406   .     S
C17    C21     1.480   .     S
C17    C77     1.400   .     S
C17    C79     1.410   .     D
C18    C80     1.397   .     S
C18    C81     1.387   .     D
C18    C84     1.480   .     S
C19    C32     1.478   .     S
C19    C67     1.404   .     D
C19    C81     1.410   .     S
C20    C56     1.479   .     S
C20    C67     1.391   .     S
C20    C80     1.402   .     D
C21    C22     1.387   .     S
C21    C23     1.366   .     D
C22    C24     1.393   .     D
C22    H93     1.117   .     S
C23    C25     1.393   .     S
C23    H94     1.265   .     S
C24    C49     1.366   .     S
C24    H95     1.067   .     S
C25    C49     1.390   .     D
C25    H96     1.119   .     S
C26    C27     1.382   .     D
C26    C28     1.393   .     S
C26    C39     1.462   .     S
C27    C29     1.427   .     S
C27    O61     1.324   1_455 S
C28    C71     1.384   .     D
C28    H97     1.163   .     S
C29    O70     1.326   .     S
C29    C72     1.380   .     D
C30    C31     1.375   .     D
C30    C58     1.395   .     S
C30    H98     1.122   .     S
C31    C59     1.372   .     S
C31    N76     1.402   .     S
C32    C33     1.361   .     D
C32    C34     1.381   .     S
C33    C35     1.393   .     S
C33    H99     1.219   .     S
C34    C36     1.393   .     D
C34    H100    1.147   .     S
C35    C37     1.383   .     D
C35    H101    1.097   .     S
C36    C37     1.363   .     S
C36    H102    1.068   .     S
C37    N62     1.402   .     S
C38    N63     1.265   .     D
C38    C73     1.463   .     S
C38    H103    1.130   .     S
C39    N62     1.268   1_455 D
C39    H104    1.153   .     S
C40    C42     1.394   .     D
C40    C74     1.384   .     S
C40    H105    1.081   .     S
C41    C42     1.388   .     S
C41    O69     1.329   .     S
C41    C75     1.427   .     D
C42    C65     1.462   .     S
C43    C1      1.426   1_545 S
C43    O68     1.325   .     S
C44    C3      1.459   1_655 S
C44    N45     1.271   .     D
C44    H106    1.259   .     S
N46    C47     1.402   .     S
C47    C48     1.382   .     S
C48    H107    1.228   .     S
C49    N63     1.402   .     S
C50    C51     1.364   .     S
C50    C52     1.394   .     D
C51    C53     1.393   .     D
C51    H108    1.067   .     S
C52    C54     1.389   .     S
C52    H109    1.076   .     S
C53    C55     1.388   .     S
C53    H110    1.147   .     S
C54    C55     1.373   .     D
C54    H111    1.227   .     S
C55    N66     1.401   .     S
C56    C57     1.382   .     S
C56    C58     1.361   .     D
C57    C59     1.392   .     D
C57    H112    1.096   .     S
C58    H113    1.067   .     S
C59    H114    1.268   .     S
O60    C75     1.332   .     S
O60    H128    0.976   .     S
O61    C27     1.324   1_655 S
O61    H129    0.975   .     S
N62    C39     1.268   1_655 D
C64    N66     1.261   .     D
C64    C72     1.460   .     S
C64    H115    1.074   .     S
C65    N76     1.261   .     D
C65    H116    1.072   .     S
C67    H117    1.064   .     S
O68    H130    0.975   .     S
O69    H131    0.976   .     S
O70    H132    0.975   .     S
C71    C72     1.393   .     S
C71    H118    1.082   .     S
C73    C74     1.398   .     D
C73    C75     1.385   .     S
C74    H119    1.138   .     S
C77    H120    1.087   .     S
C78    H121    1.205   .     S
C79    H122    1.056   .     S
C80    H123    1.222   .     S
C81    H124    1.043   .     S
C82    C84     1.393   .     D
C82    H125    1.269   .     S
C83    C84     1.379   .     S
C83    H126    1.083   .     S
