data_211
_audit_creation_date              2023-09-08
_audit_creation_method            'Materials Studio'
_symmetry_space_group_name_H-M    'P1'
_symmetry_Int_Tables_number       1
_symmetry_cell_setting            triclinic
loop_
_symmetry_equiv_pos_as_xyz
  x,y,z
_cell_length_a                    37.9379
_cell_length_b                    37.9379
_cell_length_c                    3.4793
_cell_angle_alpha                 90.0000
_cell_angle_beta                  90.0000
_cell_angle_gamma                 120.0000
loop_
_atom_site_label
_atom_site_type_symbol
_atom_site_fract_x
_atom_site_fract_y
_atom_site_fract_z
_atom_site_U_iso_or_equiv
_atom_site_adp_type
_atom_site_occupancy
N1     N     0.88734   0.45095   0.50000   0.00000  Uiso   1.00
N2     N     0.11267   0.54873   0.50000   0.00000  Uiso   1.00
N3     N     0.54905   0.43639   0.50000   0.00000  Uiso   1.00
N4     N     0.45127   0.56394   0.50000   0.00000  Uiso   1.00
N5     N     0.56361   0.11266   0.50000   0.00000  Uiso   1.00
N6     N     0.43606   0.88733   0.50000   0.00000  Uiso   1.00
C7     C     0.91395   0.43888   0.50000   0.00000  Uiso   1.00
C8     C     0.56112   0.47507   0.50000   0.00000  Uiso   1.00
C9     C     0.52493   0.08604   0.50000   0.00000  Uiso   1.00
C10    C     0.95816   0.46930   0.50000   0.00000  Uiso   1.00
C11    C     0.04181   0.53032   0.50000   0.00000  Uiso   1.00
C12    C     0.53070   0.48887   0.50000   0.00000  Uiso   1.00
C13    C     0.46968   0.51148   0.50000   0.00000  Uiso   1.00
C14    C     0.51113   0.04183   0.50000   0.00000  Uiso   1.00
C15    C     0.48852   0.95820   0.50000   0.00000  Uiso   1.00
C16    C     0.98887   0.45835   0.50000   0.00000  Uiso   1.00
C17    C     0.02968   0.48867   0.50000   0.00000  Uiso   1.00
C18    C     0.54165   0.53052   0.50000   0.00000  Uiso   1.00
C19    C     0.51133   0.54100   0.50000   0.00000  Uiso   1.00
C20    C     0.46948   0.01113   0.50000   0.00000  Uiso   1.00
C21    C     0.45900   0.97032   0.50000   0.00000  Uiso   1.00
O22    O     0.98134   0.41833   0.50000   0.00000  Uiso   1.00
H23    H     0.05199   0.47886   0.50000   0.00000  Uiso   1.00
O24    O     0.58167   0.56301   0.50000   0.00000  Uiso   1.00
H25    H     0.52114   0.57313   0.50000   0.00000  Uiso   1.00
O26    O     0.43699   0.01866   0.50000   0.00000  Uiso   1.00
H27    H     0.42687   0.94801   0.50000   0.00000  Uiso   1.00
C28    C     0.01109   0.54126   0.50000   0.00000  Uiso   1.00
C29    C     0.97029   0.51094   0.50000   0.00000  Uiso   1.00
C30    C     0.45874   0.46983   0.50000   0.00000  Uiso   1.00
C31    C     0.48906   0.45935   0.50000   0.00000  Uiso   1.00
C32    C     0.53017   0.98891   0.50000   0.00000  Uiso   1.00
C33    C     0.54065   0.02971   0.50000   0.00000  Uiso   1.00
O34    O     0.01860   0.58126   0.50000   0.00000  Uiso   1.00
H35    H     0.94799   0.52076   0.50000   0.00000  Uiso   1.00
O36    O     0.41873   0.43733   0.50000   0.00000  Uiso   1.00
H37    H     0.47923   0.42722   0.50000   0.00000  Uiso   1.00
O38    O     0.56267   0.98140   0.50000   0.00000  Uiso   1.00
H39    H     0.57278   0.05201   0.50000   0.00000  Uiso   1.00
C40    C     0.17904   0.55407   0.50000   0.00000  Uiso   1.00
C41    C     0.82307   0.38347   0.50000   0.00000  Uiso   1.00
C42    C     0.44593   0.62497   0.50000   0.00000  Uiso   1.00
C43    C     0.61653   0.43960   0.50000   0.00000  Uiso   1.00
C44    C     0.37503   0.82096   0.50000   0.00000  Uiso   1.00
C45    C     0.56040   0.17693   0.50000   0.00000  Uiso   1.00
C46    C     0.22157   0.57621   0.50000   0.00000  Uiso   1.00
C47    C     0.78051   0.36111   0.50000   0.00000  Uiso   1.00
C48    C     0.42379   0.64537   0.50000   0.00000  Uiso   1.00
C49    C     0.63889   0.41940   0.50000   0.00000  Uiso   1.00
C50    C     0.35463   0.77843   0.50000   0.00000  Uiso   1.00
C51    C     0.58061   0.21949   0.50000   0.00000  Uiso   1.00
H52    H     0.16337   0.52114   0.50000   0.00000  Uiso   1.00
H53    H     0.83926   0.36686   0.50000   0.00000  Uiso   1.00
H54    H     0.47886   0.64223   0.50000   0.00000  Uiso   1.00
H55    H     0.63314   0.47240   0.50000   0.00000  Uiso   1.00
H56    H     0.35777   0.83663   0.50000   0.00000  Uiso   1.00
H57    H     0.52760   0.16074   0.50000   0.00000  Uiso   1.00
H58    H     0.23613   0.55815   0.50000   0.00000  Uiso   1.00
H59    H     0.76753   0.32865   0.50000   0.00000  Uiso   1.00
H60    H     0.44185   0.67799   0.50000   0.00000  Uiso   1.00
H61    H     0.67135   0.43888   0.50000   0.00000  Uiso   1.00
H62    H     0.32201   0.76387   0.50000   0.00000  Uiso   1.00
H63    H     0.56112   0.23247   0.50000   0.00000  Uiso   1.00
C64    C     0.38374   0.56061   0.50000   0.00000  Uiso   1.00
C65    C     0.62470   0.17897   0.50000   0.00000  Uiso   1.00
C66    C     0.43939   0.82313   0.50000   0.00000  Uiso   1.00
C67    C     0.82103   0.44573   0.50000   0.00000  Uiso   1.00
C68    C     0.17687   0.61626   0.50000   0.00000  Uiso   1.00
C69    C     0.55427   0.37530   0.50000   0.00000  Uiso   1.00
C70    C     0.36131   0.58075   0.50000   0.00000  Uiso   1.00
C71    C     0.64517   0.22151   0.50000   0.00000  Uiso   1.00
C72    C     0.41925   0.78056   0.50000   0.00000  Uiso   1.00
C73    C     0.77850   0.42366   0.50000   0.00000  Uiso   1.00
C74    C     0.21943   0.63869   0.50000   0.00000  Uiso   1.00
C75    C     0.57634   0.35483   0.50000   0.00000  Uiso   1.00
H76    H     0.36718   0.52781   0.50000   0.00000  Uiso   1.00
H77    H     0.64189   0.16323   0.50000   0.00000  Uiso   1.00
H78    H     0.47219   0.83937   0.50000   0.00000  Uiso   1.00
H79    H     0.83677   0.47866   0.50000   0.00000  Uiso   1.00
H80    H     0.16063   0.63282   0.50000   0.00000  Uiso   1.00
H81    H     0.52134   0.35811   0.50000   0.00000  Uiso   1.00
H82    H     0.32885   0.56121   0.50000   0.00000  Uiso   1.00
H83    H     0.67778   0.23601   0.50000   0.00000  Uiso   1.00
H84    H     0.43879   0.76764   0.50000   0.00000  Uiso   1.00
H85    H     0.76399   0.44177   0.50000   0.00000  Uiso   1.00
H86    H     0.23236   0.67115   0.50000   0.00000  Uiso   1.00
H87    H     0.55823   0.32222   0.50000   0.00000  Uiso   1.00
C88    C     0.35619   0.64597   0.50000   0.00000  Uiso   1.00
C89    C     0.64590   0.28978   0.50000   0.00000  Uiso   1.00
C90    C     0.35403   0.71022   0.50000   0.00000  Uiso   1.00
C91    C     0.71022   0.35613   0.50000   0.00000  Uiso   1.00
C92    C     0.28978   0.64381   0.50000   0.00000  Uiso   1.00
C93    C     0.64387   0.35410   0.50000   0.00000  Uiso   1.00
C94    C     0.42639   0.58268   0.50000   0.00000  Uiso   1.00
C95    C     0.58242   0.15630   0.50000   0.00000  Uiso   1.00
C96    C     0.41732   0.84370   0.50000   0.00000  Uiso   1.00
C97    C     0.84370   0.42612   0.50000   0.00000  Uiso   1.00
C98    C     0.15630   0.57361   0.50000   0.00000  Uiso   1.00
C99    C     0.57388   0.41758   0.50000   0.00000  Uiso   1.00
C100   C     0.38058   0.62389   0.50000   0.00000  Uiso   1.00
C101   C     0.62376   0.24331   0.50000   0.00000  Uiso   1.00
C102   C     0.37611   0.75669   0.50000   0.00000  Uiso   1.00
C103   C     0.75669   0.38045   0.50000   0.00000  Uiso   1.00
C104   C     0.24331   0.61942   0.50000   0.00000  Uiso   1.00
C105   C     0.61955   0.37624   0.50000   0.00000  Uiso   1.00
C106   C     0.37561   0.68885   0.50000   0.00000  Uiso   1.00
C107   C     0.62439   0.31121   0.50000   0.00000  Uiso   1.00
C108   C     0.31115   0.68676   0.50000   0.00000  Uiso   1.00
C109   C     0.68879   0.31318   0.50000   0.00000  Uiso   1.00
C110   C     0.31324   0.62439   0.50000   0.00000  Uiso   1.00
C111   C     0.68682   0.37561   0.50000   0.00000  Uiso   1.00
H112   H     0.29794   0.59220   0.50000   0.00000  Uiso   1.00
H113   H     0.70563   0.29783   0.50000   0.00000  Uiso   1.00
H114   H     0.40780   0.70574   0.50000   0.00000  Uiso   1.00
H115   H     0.70217   0.40780   0.50000   0.00000  Uiso   1.00
H116   H     0.29426   0.70206   0.50000   0.00000  Uiso   1.00
H117   H     0.59220   0.29437   0.50000   0.00000  Uiso   1.00
H118   H     0.04782   0.60372   0.50000   0.00000  Uiso   1.00
H119   H     0.39628   0.44410   0.50000   0.00000  Uiso   1.00
H120   H     0.55590   0.95218   0.50000   0.00000  Uiso   1.00
C121   C     0.47474   0.91398   0.50000   0.00000  Uiso   1.00
H122   H     0.90384   0.40695   0.50000   0.00000  Uiso   1.00
H123   H     0.95213   0.39587   0.50000   0.00000  Uiso   1.00
H124   H     0.40732   0.50342   0.50000   0.00000  Uiso   1.00
C125   C     0.08602   0.56076   0.50000   0.00000  Uiso   1.00
H126   H     0.59305   0.49689   0.50000   0.00000  Uiso   1.00
H127   H     0.60413   0.55627   0.50000   0.00000  Uiso   1.00
H128   H     0.49658   0.90390   0.50000   0.00000  Uiso   1.00
C129   C     0.43924   0.52526   0.50000   0.00000  Uiso   1.00
H130   H     0.50311   0.09615   0.50000   0.00000  Uiso   1.00
H131   H     0.44373   0.04787   0.50000   0.00000  Uiso   1.00
H132   H     0.09610   0.59268   0.50000   0.00000  Uiso   1.00
loop_
_geom_bond_atom_site_label_1
_geom_bond_atom_site_label_2
_geom_bond_distance
_geom_bond_site_symmetry_2
_ccdc_geom_bond_type
N1     C7      1.301   .     D
N1     C97     1.438   .     S
N2     C98     1.438   .     S
N2     C125    1.301   .     D
N3     C8      1.301   .     D
N3     C99     1.438   .     S
N4     C94     1.438   .     S
N4     C129    1.301   .     D
N5     C9      1.301   .     D
N5     C95     1.438   .     S
N6     C96     1.438   .     S
N6     C121    1.301   .     D
C7     C10     1.486   .     S
C7     H122    1.072   .     S
C8     C12     1.486   .     S
C8     H126    1.072   .     S
C9     C14     1.486   .     S
C9     H130    1.072   .     S
C10    C16     1.419   .     D
C10    C29     1.407   .     S
C11    C17     1.407   .     D
C11    C28     1.419   .     S
C11    C125    1.487   .     S
C12    C18     1.419   .     D
C12    C31     1.407   .     S
C13    C19     1.408   .     D
C13    C30     1.419   .     S
C13    C129    1.487   .     S
C14    C20     1.419   .     S
C14    C33     1.407   .     D
C15    C21     1.407   .     S
C15    C32     1.419   .     D
C15    C121    1.487   .     S
C16    C17     1.393   1_655 S
C16    O22     1.397   .     S
C17    C16     1.393   1_455 S
C17    H23     1.082   .     S
C18    C19     1.393   .     S
C18    O24     1.397   .     S
C19    H25     1.082   .     S
C20    C21     1.393   1_545 D
C20    O26     1.397   .     S
C21    C20     1.393   1_565 D
C21    H27     1.082   .     S
O22    H123    1.005   .     S
O24    H127    1.005   .     S
O26    H131    1.005   .     S
C28    C29     1.392   1_455 D
C28    O34     1.397   .     S
C29    C28     1.392   1_655 D
C29    H35     1.082   .     S
C30    C31     1.392   .     D
C30    O36     1.397   .     S
C31    H37     1.082   .     S
C32    C33     1.392   1_565 S
C32    O38     1.397   .     S
C33    C32     1.392   1_545 S
C33    H39     1.082   .     S
O34    H118    1.005   .     S
O36    H119    1.005   .     S
O38    H120    1.005   .     S
C40    C46     1.398   .     D
C40    H52     1.082   .     S
C40    C98     1.391   .     S
C41    C47     1.399   .     D
C41    H53     1.078   .     S
C41    C97     1.401   .     S
C42    C48     1.398   .     D
C42    H54     1.082   .     S
C42    C94     1.391   .     S
C43    C49     1.399   .     D
C43    H55     1.078   .     S
C43    C99     1.401   .     S
C44    C50     1.398   .     D
C44    H56     1.082   .     S
C44    C96     1.391   .     S
C45    C51     1.399   .     D
C45    H57     1.078   .     S
C45    C95     1.402   .     S
C46    H58     1.074   .     S
C46    C104    1.420   .     S
C47    H59     1.074   .     S
C47    C103    1.420   .     S
C48    H60     1.074   .     S
C48    C100    1.420   .     S
C49    H61     1.074   .     S
C49    C105    1.420   .     S
C50    H62     1.074   .     S
C50    C102    1.420   .     S
C51    H63     1.074   .     S
C51    C101    1.420   .     S
C64    C70     1.399   .     S
C64    H76     1.078   .     S
C64    C94     1.402   .     D
C65    C71     1.398   .     S
C65    H77     1.082   .     S
C65    C95     1.391   .     D
C66    C72     1.399   .     S
C66    H78     1.078   .     S
C66    C96     1.402   .     D
C67    C73     1.398   .     S
C67    H79     1.082   .     S
C67    C97     1.390   .     D
C68    C74     1.399   .     S
C68    H80     1.078   .     S
C68    C98     1.402   .     D
C69    C75     1.398   .     S
C69    H81     1.082   .     S
C69    C99     1.391   .     D
C70    H82     1.074   .     S
C70    C100    1.420   .     D
C71    H83     1.074   .     S
C71    C101    1.420   .     D
C72    H84     1.074   .     S
C72    C102    1.420   .     D
C73    H85     1.074   .     S
C73    C103    1.420   .     D
C74    H86     1.074   .     S
C74    C104    1.420   .     D
C75    H87     1.074   .     S
C75    C105    1.420   .     D
C88    C100    1.527   .     S
C88    C106    1.411   .     S
C88    C110    1.411   .     D
C89    C101    1.527   .     S
C89    C107    1.411   .     S
C89    C109    1.411   .     D
C90    C102    1.527   .     S
C90    C106    1.411   .     D
C90    C108    1.411   .     S
C91    C103    1.527   .     S
C91    C109    1.411   .     S
C91    C111    1.411   .     D
C92    C104    1.527   .     S
C92    C108    1.411   .     D
C92    C110    1.411   .     S
C93    C105    1.527   .     S
C93    C107    1.411   .     D
C93    C111    1.411   .     S
C106   H114    1.058   .     S
C107   H117    1.058   .     S
C108   H116    1.058   .     S
C109   H113    1.058   .     S
C110   H112    1.058   .     S
C111   H115    1.058   .     S
C121   H128    1.072   .     S
H124   C129    1.072   .     S
C125   H132    1.072   .     S
