data_212
_audit_creation_date              2023-09-08
_audit_creation_method            'Materials Studio'
_symmetry_space_group_name_H-M    'P1'
_symmetry_Int_Tables_number       1
_symmetry_cell_setting            triclinic
loop_
_symmetry_equiv_pos_as_xyz
  x,y,z
_cell_length_a                    25.6000
_cell_length_b                    25.6000
_cell_length_c                    4.0000
_cell_angle_alpha                 90.0000
_cell_angle_beta                  90.0000
_cell_angle_gamma                 90.0000
loop_
_atom_site_label
_atom_site_type_symbol
_atom_site_fract_x
_atom_site_fract_y
_atom_site_fract_z
_atom_site_U_iso_or_equiv
_atom_site_adp_type
_atom_site_occupancy
C1     C     1.07290   0.24610   0.34320   0.00000  Uiso   1.00
C2     C     1.09910   0.28460   0.52060   0.00000  Uiso   1.00
C3     C     1.06610   0.31950   0.68100   0.00000  Uiso   1.00
C4     C     1.01330   0.31710   0.66280   0.00000  Uiso   1.00
C5     C     0.98700   0.27850   0.48360   0.00000  Uiso   1.00
C6     C     1.02030   0.24310   0.32780   0.00000  Uiso   1.00
C7     C     1.15670   0.28670   0.52690   0.00000  Uiso   1.00
C8     C     0.18420   0.23980   0.54960   0.00000  Uiso   1.00
C9     C     1.15950   0.19150   0.63370   0.00000  Uiso   1.00
C10    C     0.19650   1.15600   0.63760   0.00000  Uiso   1.00
C11    C     0.24390   0.18240   0.55480   0.00000  Uiso   1.00
N12    N     0.23450   0.23220   0.51160   0.00000  Uiso   1.00
C13    C     0.29180   1.15680   0.53530   0.00000  Uiso   1.00
C14    C     0.33960   0.18290   0.50810   0.00000  Uiso   1.00
N15    N     0.34930   0.23330   0.50200   0.00000  Uiso   1.00
C16    C     0.39930   0.24470   0.49000   0.00000  Uiso   1.00
C17    C     0.42470   0.19650   0.48800   0.00000  Uiso   1.00
C18    C     0.38850   1.15920   0.49080   0.00000  Uiso   1.00
C19    C     0.42360   0.29350   0.47270   0.00000  Uiso   1.00
C20    C     0.48120   0.29570   0.47860   0.00000  Uiso   1.00
C21    C     0.51410   0.26070   0.31800   0.00000  Uiso   1.00
C22    C     0.56690   0.26310   0.33580   0.00000  Uiso   1.00
C23    C     0.59320   0.30180   0.51480   0.00000  Uiso   1.00
C24    C     0.56000   0.33710   0.67080   0.00000  Uiso   1.00
C25    C     0.50740   0.33410   0.65580   0.00000  Uiso   1.00
N26    N     0.64410   0.30910   0.55380   0.00000  Uiso   1.00
C27    C     0.67880   0.27880   0.43370   0.00000  Uiso   1.00
C28    C     0.73460   0.28550   0.47180   0.00000  Uiso   1.00
C29    C     0.75860   0.32670   0.63940   0.00000  Uiso   1.00
N30    N     0.93620   0.27110   0.44440   0.00000  Uiso   1.00
C31    C     0.90140   0.30150   0.56430   0.00000  Uiso   1.00
C32    C     0.84570   0.29470   0.52610   0.00000  Uiso   1.00
C33    C     0.81160   0.33070   0.66330   0.00000  Uiso   1.00
C34    C     0.39600   0.34040   0.45010   0.00000  Uiso   1.00
N35    N     0.34580   0.34800   0.48850   0.00000  Uiso   1.00
C36    C     0.33630   0.39790   0.44550   0.00000  Uiso   1.00
C37    C     0.38380   0.42430   0.36240   0.00000  Uiso   1.00
C38    C     0.42070   0.38870   0.36590   0.00000  Uiso   1.00
C39    C     0.28840   0.42350   0.46530   0.00000  Uiso   1.00
C40    C     0.24070   0.39740   0.49240   0.00000  Uiso   1.00
N41    N     0.23100   0.34700   0.49810   0.00000  Uiso   1.00
C42    C     0.18090   0.33560   0.51000   0.00000  Uiso   1.00
C43    C     1.15560   0.38370   0.51240   0.00000  Uiso   1.00
C44    C     0.19170   0.42110   0.50990   0.00000  Uiso   1.00
C45    C     0.28700   0.48110   0.44830   0.00000  Uiso   1.00
C46    C     0.24950   0.50810   0.26780   0.00000  Uiso   1.00
C47    C     0.24670   0.56080   0.26170   0.00000  Uiso   1.00
C48    C     0.28150   0.59330   0.42980   0.00000  Uiso   1.00
C49    C     0.31990   0.56610   0.60520   0.00000  Uiso   1.00
C50    C     0.32200   0.51320   0.61440   0.00000  Uiso   1.00
N51    N     0.27360   0.64430   0.40420   0.00000  Uiso   1.00
C52    C     0.30330   0.67870   0.53540   0.00000  Uiso   1.00
C53    C     0.29560   0.73450   0.51300   0.00000  Uiso   1.00
C54    C     0.33110   0.76830   0.65860   0.00000  Uiso   1.00
C55    C     0.76870   0.24960   0.33450   0.00000  Uiso   1.00
C56    C     0.25390   0.75890   0.35320   0.00000  Uiso   1.00
O57    O     0.21550   0.72990   0.19310   0.00000  Uiso   1.00
C58    C     0.29330   1.09910   0.55260   0.00000  Uiso   1.00
C59    C     0.25820   1.06700   0.38660   0.00000  Uiso   1.00
C60    C     0.26030   1.01410   0.39610   0.00000  Uiso   1.00
C61    C     0.29880   0.98700   0.57170   0.00000  Uiso   1.00
C62    C     0.33360   1.01950   0.73960   0.00000  Uiso   1.00
C63    C     0.33080   1.07220   0.73320   0.00000  Uiso   1.00
N64    N     0.30660   0.93600   0.59750   0.00000  Uiso   1.00
C65    C     0.27690   0.90160   0.46640   0.00000  Uiso   1.00
C66    C     0.28460   0.84570   0.48900   0.00000  Uiso   1.00
C67    C     0.24910   0.81190   0.34340   0.00000  Uiso   1.00
C68    C     0.32630   0.82130   0.64890   0.00000  Uiso   1.00
O69    O     0.36480   0.85030   0.80900   0.00000  Uiso   1.00
C70    C     0.82160   0.25350   0.35850   0.00000  Uiso   1.00
O71    O     0.85090   0.21470   0.20460   0.00000  Uiso   1.00
O72    O     0.72930   0.36550   0.79320   0.00000  Uiso   1.00
H73    H     0.46289   0.18672   0.50760   0.00000  Uiso   1.00
H74    H     0.49941   0.23502   0.14651   0.00000  Uiso   1.00
H75    H     0.58699   0.23563   0.20359   0.00000  Uiso   1.00
H76    H     0.57633   0.36663   0.80896   0.00000  Uiso   1.00
H77    H     0.48739   0.36012   0.79970   0.00000  Uiso   1.00
H78    H     0.66855   0.24655   0.29837   0.00000  Uiso   1.00
H79    H     0.91164   0.33381   0.69923   0.00000  Uiso   1.00
H80    H     0.82568   0.36231   0.79124   0.00000  Uiso   1.00
H81    H     0.38990   0.46208   0.29296   0.00000  Uiso   1.00
H82    H     0.45821   0.39656   0.29874   0.00000  Uiso   1.00
H83    H     0.18124   0.45906   0.54066   0.00000  Uiso   1.00
H84    H     0.22515   0.48892   0.10674   0.00000  Uiso   1.00
H85    H     0.21789   0.57792   0.12135   0.00000  Uiso   1.00
H86    H     0.34754   0.58557   0.73972   0.00000  Uiso   1.00
H87    H     0.34966   0.49701   0.76687   0.00000  Uiso   1.00
H88    H     0.33557   0.66798   0.66936   0.00000  Uiso   1.00
H89    H     0.36294   0.75387   0.78232   0.00000  Uiso   1.00
H90    H     0.75460   0.21803   0.20619   0.00000  Uiso   1.00
H91    H     0.24460   0.91231   0.33288   0.00000  Uiso   1.00
H92    H     0.21724   0.82633   0.21974   0.00000  Uiso   1.00
H93    H     0.19043   0.11823   0.70743   0.00000  Uiso   1.00
H94    H     0.39891   0.12123   0.45996   0.00000  Uiso   1.00
H95    H     0.23053   0.08318   0.23416   0.00000  Uiso   1.00
H96    H     0.23262  -0.00538   0.26194   0.00000  Uiso   1.00
H97    H     0.36244   0.00244   0.88005   0.00000  Uiso   1.00
H98    H     0.35513   0.09142   0.89418   0.00000  Uiso   1.00
H99    H     0.09293   0.22007   0.19948   0.00000  Uiso   1.00
H100   H     0.08072   0.34515   0.85288   0.00000  Uiso   1.00
H101   H    -0.00681   0.34452   0.79526   0.00000  Uiso   1.00
H102   H     0.00396   0.21359   0.18959   0.00000  Uiso   1.00
H103   H     0.12197   0.18361   0.70054   0.00000  Uiso   1.00
H104   H     0.11741   0.39346   0.49273   0.00000  Uiso   1.00
H105   H     0.21902   0.69192   0.19739   0.00000  Uiso   1.00
H106   H     0.36189   0.88828   0.80468   0.00000  Uiso   1.00
H107   H     0.88895   0.21693   0.22141   0.00000  Uiso   1.00
H108   H     0.69128   0.36364   0.77453   0.00000  Uiso   1.00
H109   H     0.25819   0.32065   0.49241   0.00000  Uiso   1.00
H110   H     0.32209   0.25964   0.50747   0.00000  Uiso   1.00
loop_
_geom_bond_atom_site_label_1
_geom_bond_atom_site_label_2
_geom_bond_distance
_geom_bond_site_symmetry_2
_ccdc_geom_bond_type
C1     C2      1.387   .     S
C1     C6      1.350   .     D
C1     H99     1.018   1_655 S
C2     C3      1.387   .     D
C2     C7      1.476   .     S
C3     C4      1.355   .     S
C3     H100    1.022   1_655 S
C4     C5      1.394   .     D
C4     H101    1.019   1_655 S
C5     C6      1.392   .     S
C5     N30     1.324   .     S
C6     H102    1.025   1_655 S
C7     C8      1.395   1_655 D
C7     C42     1.398   1_655 S
C8     C7      1.395   1_455 D
C8     C9      1.429   1_455 S
C8     N12     1.311   .     S
C9     C8      1.429   1_655 S
C9     C10     1.313   1_645 D
C9     H103    1.017   1_655 S
C10    C9      1.313   1_465 D
C10    C11     1.428   1_565 S
C10    H93     1.018   1_565 S
C11    C10     1.428   1_545 S
C11    N12     1.309   .     D
C11    C13     1.393   1_545 S
C13    C11     1.393   1_565 S
C13    C14     1.398   1_565 S
C13    C58     1.479   .     D
C14    C13     1.398   1_545 S
C14    N15     1.314   .     S
C14    C18     1.393   1_545 D
N15    C16     1.314   .     S
N15    H110    0.970   .     S
C16    C17     1.395   .     D
C16    C19     1.397   .     S
C17    C18     1.331   1_545 S
C17    H73     1.012   .     S
C18    C14     1.393   1_565 D
C18    C17     1.331   1_565 S
C18    H94     1.015   1_565 S
C19    C20     1.476   .     S
C19    C34     1.396   .     D
C20    C21     1.387   .     D
C20    C25     1.385   .     S
C21    C22     1.355   .     S
C21    H74     1.022   .     S
C22    C23     1.396   .     D
C22    H75     1.019   .     S
C23    C24     1.389   .     S
C23    N26     1.326   .     S
C24    C25     1.350   .     D
C24    H76     1.026   .     S
C25    H77     1.019   .     S
N26    C27     1.273   .     D
C27    C28     1.447   .     S
C27    H78     1.022   .     S
C28    C29     1.393   .     S
C28    C55     1.381   .     D
C29    C33     1.364   .     D
C29    O72     1.388   .     S
N30    C31     1.276   .     D
C31    C32     1.445   .     S
C31    H79     1.022   .     S
C32    C33     1.383   .     S
C32    C70     1.394   .     D
C33    H80     1.023   .     S
C34    N35     1.309   .     S
C34    C38     1.429   .     S
N35    C36     1.312   .     D
C36    C37     1.430   .     S
C36    C39     1.393   .     S
C37    C38     1.313   .     D
C37    H81     1.018   .     S
C38    H82     1.017   .     S
C39    C40     1.396   .     S
C39    C45     1.477   .     D
C40    N41     1.314   .     S
C40    C44     1.395   .     D
N41    C42     1.316   .     S
N41    H109    0.969   .     S
C42    C7      1.398   1_455 S
C42    C43     1.391   1_455 D
C43    C42     1.391   1_655 D
C43    C44     1.331   1_655 S
C43    H104    1.012   1_655 S
C44    C43     1.331   1_455 S
C44    H83     1.016   .     S
C45    C46     1.386   .     S
C45    C50     1.385   .     S
C46    C47     1.351   .     D
C46    H84     1.022   .     S
C47    C48     1.392   .     S
C47    H85     1.025   .     S
C48    C49     1.394   .     S
C48    N51     1.325   .     D
C49    C50     1.356   .     D
C49    H86     1.019   .     S
C50    H87     1.022   .     S
N51    C52     1.276   .     S
C52    C53     1.445   .     D
C52    H88     1.022   .     S
C53    C54     1.383   .     S
C53    C56     1.392   .     S
C54    C68     1.363   .     D
C54    H89     1.023   .     S
C55    C70     1.361   .     S
C55    H90     1.023   .     S
C56    O57     1.388   .     S
C56    C67     1.363   .     D
O57    H105    0.977   .     S
C58    C59     1.387   .     S
C58    C63     1.385   .     S
C59    C60     1.356   .     D
C59    H95     1.022   1_565 S
C60    C61     1.395   .     S
C60    H96     1.019   1_565 S
C61    C62     1.392   .     S
C61    N64     1.325   .     D
C62    C63     1.351   .     D
C62    H97     1.025   1_565 S
C63    H98     1.022   1_565 S
N64    C65     1.276   .     S
C65    C66     1.447   .     D
C65    H91     1.022   .     S
C66    C67     1.383   .     S
C66    C68     1.392   .     S
C67    H92     1.023   .     S
C68    O69     1.390   .     S
O69    H106    0.975   .     S
C70    O71     1.389   .     S
O71    H107    0.978   .     S
O72    H108    0.977   .     S
H93    C10     1.018   1_545 S
H94    C18     1.015   1_545 S
H95    C59     1.022   1_545 S
H96    C60     1.019   1_545 S
H97    C62     1.025   1_545 S
H98    C63     1.022   1_545 S
H99    C1      1.018   1_455 S
H100   C3      1.022   1_455 S
H101   C4      1.019   1_455 S
H102   C6      1.025   1_455 S
H103   C9      1.017   1_455 S
H104   C43     1.012   1_455 S
