data_213
_audit_creation_date              2023-09-08
_audit_creation_method            'Materials Studio'
_symmetry_space_group_name_H-M    'P1'
_symmetry_Int_Tables_number       1
_symmetry_cell_setting            triclinic
loop_
_symmetry_equiv_pos_as_xyz
  x,y,z
_cell_length_a                    24.7000
_cell_length_b                    24.6000
_cell_length_c                    4.0000
_cell_angle_alpha                 92.9000
_cell_angle_beta                  90.2000
_cell_angle_gamma                 92.7000
loop_
_atom_site_label
_atom_site_type_symbol
_atom_site_fract_x
_atom_site_fract_y
_atom_site_fract_z
_atom_site_U_iso_or_equiv
_atom_site_adp_type
_atom_site_occupancy
N1     N     0.56133   0.46819   1.59541   0.00000  Uiso   1.00
N2     N     0.44776   0.58163   1.46164   0.00000  Uiso   1.00
N3     N     0.44800   0.46977   1.55723   0.00000  Uiso   1.00
N4     N     0.56109   0.58006   1.49982   0.00000  Uiso   1.00
C5     C     0.61356   0.47624   1.56792   0.00000  Uiso   1.00
C6     C     0.39553   0.57359   1.48913   0.00000  Uiso   1.00
C7     C     0.63876   0.42702   1.55570   0.00000  Uiso   1.00
C8     C     0.37033   0.62280   1.50135   0.00000  Uiso   1.00
C9     C     0.60060   0.38959   1.57223   0.00000  Uiso   1.00
C10    C     0.40849   0.66024   1.48481   0.00000  Uiso   1.00
C11    C     0.55217   0.41590   1.59443   0.00000  Uiso   1.00
C12    C     0.45692   0.63392   1.46262   0.00000  Uiso   1.00
C13    C     0.50354   0.39168   1.58914   0.00000  Uiso   1.00
C14    C     0.50555   0.65814   1.46791   0.00000  Uiso   1.00
C15    C     0.50147   0.33188   1.56735   0.00000  Uiso   1.00
C16    C     0.50687   0.72176   1.49377   0.00000  Uiso   1.00
C17    C     0.52472   0.30155   1.81269   0.00000  Uiso   1.00
C18    C     0.48393   0.74871   1.24430   0.00000  Uiso   1.00
C19    C     0.52543   0.24789   1.78493   0.00000  Uiso   1.00
C20    C     0.50258   0.22399   1.51413   0.00000  Uiso   1.00
C21    C     0.47879   0.25348   1.26950   0.00000  Uiso   1.00
C22    C     0.47856   0.30729   1.29416   0.00000  Uiso   1.00
C23    C     0.45605   0.41762   1.58459   0.00000  Uiso   1.00
C24    C     0.55304   0.63220   1.47246   0.00000  Uiso   1.00
C25    C     0.40710   0.39158   1.60773   0.00000  Uiso   1.00
C26    C     0.60199   0.65825   1.44932   0.00000  Uiso   1.00
C27    C     0.36937   0.42957   1.58876   0.00000  Uiso   1.00
C28    C     0.63972   0.62026   1.46829   0.00000  Uiso   1.00
C29    C     0.39573   0.47793   1.55601   0.00000  Uiso   1.00
C30    C     0.61336   0.57189   1.50104   0.00000  Uiso   1.00
C31    C     0.63863   0.52414   1.53500   0.00000  Uiso   1.00
C32    C     0.37046   0.52569   1.52205   0.00000  Uiso   1.00
C33    C     0.31104   0.52607   1.52516   0.00000  Uiso   1.00
C34    C     0.72376   0.50452   1.80350   0.00000  Uiso   1.00
C35    C     0.28371   0.54524   1.25307   0.00000  Uiso   1.00
C36    C     0.77971   0.50417   1.80339   0.00000  Uiso   1.00
C37    C     0.22979   0.54569   1.25326   0.00000  Uiso   1.00
C38    C     0.20296   0.52593   1.51927   0.00000  Uiso   1.00
C39    C     0.78026   0.54349   1.26760   0.00000  Uiso   1.00
C40    C     0.22924   0.50637   1.78905   0.00000  Uiso   1.00
C41    C     0.28311   0.50684   1.79558   0.00000  Uiso   1.00
N42    N     0.86402   0.52886   1.52431   0.00000  Uiso   1.00
O43    O     0.95514   0.58745   1.51714   0.00000  Uiso   1.00
C44    C     0.89179   0.48822   1.56157   0.00000  Uiso   1.00
C45    C     0.80686   0.52350   1.52321   0.00000  Uiso   1.00
C46    C     0.94670   0.49109   1.53833   0.00000  Uiso   1.00
C47    C     0.96945   0.44084   1.53576   0.00000  Uiso   1.00
C48    C     0.97569   0.53877   1.50534   0.00000  Uiso   1.00
C49    C     0.69778   0.52277   1.54057   0.00000  Uiso   1.00
C50    C     0.72320   0.54301   1.27221   0.00000  Uiso   1.00
N51    N     0.14566   0.52865   1.49905   0.00000  Uiso   1.00
O52    O     0.05842   0.58255   1.41288   0.00000  Uiso   1.00
C53    C     0.11273   0.48771   1.51428   0.00000  Uiso   1.00
C54    C     0.05747   0.48732   1.49246   0.00000  Uiso   1.00
C55    C     0.02834   0.43969   1.53115   0.00000  Uiso   1.00
C56    C     0.03152   0.53570   1.46087   0.00000  Uiso   1.00
N57    N     0.50756   0.17193   1.50349   0.00000  Uiso   1.00
O58    O     0.56739   0.08347   1.52218   0.00000  Uiso   1.00
C59    C     0.46945   0.14357   1.52989   0.00000  Uiso   1.00
C60    C     0.47419   0.08221   1.51358   0.00000  Uiso   1.00
C61    C     0.42925   0.05375   1.53716   0.00000  Uiso   1.00
C62    C     0.52264   0.05721   1.53602   0.00000  Uiso   1.00
C63    C     0.48273   0.80250   1.25817   0.00000  Uiso   1.00
C64    C     0.52610   0.80069   1.78067   0.00000  Uiso   1.00
N65    N     0.50924   0.88151   1.54452   0.00000  Uiso   1.00
O66    O     0.56361   0.97008   1.55396   0.00000  Uiso   1.00
C67    C     0.46833   0.90933   1.52556   0.00000  Uiso   1.00
C68    C     0.50415   0.82840   1.53693   0.00000  Uiso   1.00
C69    C     0.47040   0.97047   1.55979   0.00000  Uiso   1.00
C70    C     0.42952   0.99928   1.54315   0.00000  Uiso   1.00
C71    C     0.52291   0.99581   1.54640   0.00000  Uiso   1.00
C72    C     0.52574   0.74570   1.76558   0.00000  Uiso   1.00
H73    H     0.67806   0.41807   0.50729   0.00000  Uiso   1.00
H74    H     0.33101   0.63157   0.55020   0.00000  Uiso   1.00
H75    H     0.60759   0.34906   0.54691   0.00000  Uiso   1.00
H76    H     0.40136   0.70070   0.51272   0.00000  Uiso   1.00
H77    H     0.55364   0.32151   0.96884   0.00000  Uiso   1.00
H78    H     0.45435   0.72725   0.09894   0.00000  Uiso   1.00
H79    H     0.55233   0.22693   0.92500   0.00000  Uiso   1.00
H80    H     0.45000   0.23207   0.11982   0.00000  Uiso   1.00
H81    H     0.45217   0.32787   0.15090   0.00000  Uiso   1.00
H82    H     0.39779   0.35119   0.63678   0.00000  Uiso   1.00
H83    H     0.61083   0.69883   0.42329   0.00000  Uiso   1.00
H84    H     0.32921   0.41851   0.56704   0.00000  Uiso   1.00
H85    H     0.67982   0.63164   0.49302   0.00000  Uiso   1.00
H86    H     0.70444   0.47242   0.92554   0.00000  Uiso   1.00
H87    H     0.30335   0.57779   0.13513   0.00000  Uiso   1.00
H88    H     0.79940   0.47285   0.91466   0.00000  Uiso   1.00
H89    H     0.20966   0.57717   0.14388   0.00000  Uiso   1.00
H90    H     0.80217   0.57579   0.15974   0.00000  Uiso   1.00
H91    H     0.20651   0.47461   0.89538   0.00000  Uiso   1.00
H92    H     0.30038   0.47506   0.91630   0.00000  Uiso   1.00
H93    H     0.87199   0.45112   0.59698   0.00000  Uiso   1.00
H94    H     0.94767   0.40437   0.54924   0.00000  Uiso   1.00
H95    H     0.70565   0.57369   0.14558   0.00000  Uiso   1.00
H96    H     0.12965   0.45073   0.54017   0.00000  Uiso   1.00
H97    H     0.04608   0.40313   0.55278   0.00000  Uiso   1.00
H98    H     0.43079   0.15774   0.56374   0.00000  Uiso   1.00
H99    H     0.39230   0.07135   0.54027   0.00000  Uiso   1.00
H100   H     0.45424   0.82218   0.12300   0.00000  Uiso   1.00
H101   H     0.55607   0.82254   0.92183   0.00000  Uiso   1.00
H102   H     0.42988   0.89130   0.50272   0.00000  Uiso   1.00
H103   H     0.39204   0.97928   0.53984   0.00000  Uiso   1.00
H104   H     0.55401   0.72543   0.89924   0.00000  Uiso   1.00
H105   H     0.47455   1.55411   0.45211   0.00000  Uiso   1.00
H106   H     0.53455   1.49572   0.60495   0.00000  Uiso   1.00
H107   H     0.91688   0.59210   0.56202   0.00000  Uiso   1.00
H108   H     0.09732   0.58499   0.37729   0.00000  Uiso   1.00
H109   H     0.56874   0.12272   0.49940   0.00000  Uiso   1.00
H110   H     0.56582   0.93472   0.64902   0.00000  Uiso   1.00
loop_
_geom_bond_atom_site_label_1
_geom_bond_atom_site_label_2
_geom_bond_distance
_geom_bond_site_symmetry_2
_ccdc_geom_bond_type
N1     C5      1.302   .     S
N1     C11     1.295   .     S
N1     H106    0.968   1_546 S
N2     C6      1.302   .     S
N2     C12     1.295   .     S
N2     H105    0.968   1_546 S
N3     C23     1.317   .     D
N3     C29     1.316   .     S
N4     C24     1.317   .     S
N4     C30     1.316   .     D
C5     C7      1.386   .     S
C5     C31     1.318   .     D
C6     C8      1.386   .     D
C6     C32     1.318   .     S
C7     C9      1.291   .     D
C7     H73     1.023   1_556 S
C8     C10     1.291   .     S
C8     H74     1.022   1_556 S
C9     C11     1.388   .     S
C9     H75     1.020   1_556 S
C10    C12     1.388   .     D
C10    H76     1.020   1_556 S
C11    C13     1.315   .     D
C12    C14     1.315   .     S
C13    C15     1.468   .     S
C13    C23     1.362   .     S
C14    C16     1.562   .     S
C14    C24     1.362   .     D
C15    C17     1.400   .     D
C15    C22     1.333   .     S
C16    C18     1.362   .     D
C16    C72     1.285   .     S
C17    C19     1.320   .     S
C17    H77     1.036   1_556 S
C18    C63     1.323   .     S
C18    H78     1.039   1_556 S
C19    C20     1.318   .     D
C19    H79     1.039   1_556 S
C20    C21     1.392   .     S
C20    N57     1.291   .     S
C21    C22     1.323   .     D
C21    H80     1.035   1_556 S
C22    H81     1.033   1_556 S
C23    C25     1.347   .     S
C24    C26     1.347   .     S
C25    C27     1.355   .     D
C25    H82     1.022   1_556 S
C26    C28     1.355   .     D
C26    H83     1.022   1_556 S
C27    C29     1.342   .     S
C27    H84     1.018   1_556 S
C28    C30     1.342   .     S
C28    H85     1.020   1_556 S
C29    C32     1.369   .     D
C30    C31     1.368   .     S
C31    C49     1.463   .     S
C32    C33     1.468   .     S
C33    C35     1.393   .     D
C33    C41     1.377   .     S
C34    C36     1.382   .     S
C34    C49     1.338   .     D
C34    H86     1.046   1_556 S
C35    C37     1.332   .     S
C35    H87     1.050   1_556 S
C36    C45     1.400   .     D
C36    H88     1.047   1_556 S
C37    C38     1.354   .     D
C37    H89     1.052   1_556 S
C38    C40     1.376   .     S
C38    N51     1.422   .     S
C39    C45     1.340   .     S
C39    C50     1.409   .     D
C39    H90     1.052   1_556 S
C40    C41     1.330   .     D
C40    H91     1.049   1_556 S
C41    H92     1.046   1_556 S
N42    C44     1.253   .     D
N42    C45     1.412   .     S
O43    C48     1.321   .     S
O43    H107    0.974   1_556 S
C44    C46     1.359   .     S
C44    H93     1.031   1_556 S
C46    C47     1.381   .     D
C46    C48     1.358   .     S
C47    C55     1.456   1_655 S
C47    H94     1.028   1_556 S
C48    C56     1.396   1_655 D
C49    C50     1.350   .     S
C50    H95     1.040   1_556 S
N51    C53     1.268   .     D
O52    C56     1.326   .     S
O52    H108    0.971   1_556 S
C53    C54     1.367   .     S
C53    H96     1.029   1_556 S
C54    C55     1.362   .     D
C54    C56     1.389   .     S
C55    C47     1.456   1_455 S
C55    H97     1.026   1_556 S
C56    C48     1.396   1_455 D
N57    C59     1.153   .     D
O58    C62     1.257   .     S
O58    H109    0.973   1_556 S
C59    C60     1.518   .     S
C59    H98     1.039   1_556 S
C60    C61     1.291   .     D
C60    C62     1.376   .     S
C61    C70     1.342   1_545 S
C61    H99     1.028   1_556 S
C62    C71     1.513   1_545 D
C63    C68     1.350   .     D
C63    H100    1.038   1_556 S
C64    C68     1.344   .     S
C64    C72     1.351   .     D
C64    H101    1.041   1_556 S
N65    C67     1.251   .     D
N65    C68     1.305   .     S
O66    C71     1.214   .     S
O66    H110    0.971   1_556 S
C67    C69     1.502   .     S
C67    H102    1.031   1_556 S
C69    C70     1.264   .     D
C69    C71     1.415   .     S
C70    C61     1.342   1_565 S
C70    H103    1.027   1_556 S
C71    C62     1.513   1_565 D
C72    H104    1.039   1_556 S
H73    C7      1.023   1_554 S
H74    C8      1.022   1_554 S
H75    C9      1.020   1_554 S
H76    C10     1.020   1_554 S
H77    C17     1.036   1_554 S
H78    C18     1.039   1_554 S
H79    C19     1.039   1_554 S
H80    C21     1.035   1_554 S
H81    C22     1.033   1_554 S
H82    C25     1.022   1_554 S
H83    C26     1.022   1_554 S
H84    C27     1.018   1_554 S
H85    C28     1.020   1_554 S
H86    C34     1.046   1_554 S
H87    C35     1.050   1_554 S
H88    C36     1.047   1_554 S
H89    C37     1.052   1_554 S
H90    C39     1.052   1_554 S
H91    C40     1.049   1_554 S
H92    C41     1.046   1_554 S
H93    C44     1.031   1_554 S
H94    C47     1.028   1_554 S
H95    C50     1.040   1_554 S
H96    C53     1.029   1_554 S
H97    C55     1.026   1_554 S
H98    C59     1.039   1_554 S
H99    C61     1.028   1_554 S
H100   C63     1.038   1_554 S
H101   C64     1.041   1_554 S
H102   C67     1.031   1_554 S
H103   C70     1.027   1_554 S
H104   C72     1.039   1_554 S
H105   N2      0.968   1_564 S
H106   N1      0.968   1_564 S
H107   O43     0.974   1_554 S
H108   O52     0.971   1_554 S
H109   O58     0.973   1_554 S
H110   O66     0.971   1_554 S
