data_214
_audit_creation_date              2023-09-08
_audit_creation_method            'Materials Studio'
_symmetry_space_group_name_H-M    'P1'
_symmetry_Int_Tables_number       1
_symmetry_cell_setting            triclinic
loop_
_symmetry_equiv_pos_as_xyz
  x,y,z
_cell_length_a                    25.7882
_cell_length_b                    6.7443
_cell_length_c                    25.8979
_cell_angle_alpha                 90.0000
_cell_angle_beta                  100.3786
_cell_angle_gamma                 90.0000
loop_
_atom_site_label
_atom_site_type_symbol
_atom_site_fract_x
_atom_site_fract_y
_atom_site_fract_z
_atom_site_U_iso_or_equiv
_atom_site_adp_type
_atom_site_occupancy
C1     C     0.46750   0.50000   0.45017   0.00000  Uiso   1.00
C2     C     0.95339   0.50000   0.96380   0.00000  Uiso   1.00
C3     C     0.53250   0.50000   0.54984   0.00000  Uiso   1.00
C4     C     0.04661   0.50000   0.03621   0.00000  Uiso   1.00
C5     C     0.47754   0.50000   0.54527   0.00000  Uiso   1.00
C6     C     0.04909   0.50000   0.98286   0.00000  Uiso   1.00
C7     C     0.52246   0.50000   0.45473   0.00000  Uiso   1.00
C8     C     0.95091   0.50000   0.01714   0.00000  Uiso   1.00
C9     C     0.61329   0.50000   0.50948   0.00000  Uiso   1.00
C10    C     0.00335   0.50000   0.11308   0.00000  Uiso   1.00
C11    C     0.38671   0.50000   0.49052   0.00000  Uiso   1.00
C12    C     0.99665   0.50000   0.88692   0.00000  Uiso   1.00
C13    C     0.44472   0.50000   0.49562   0.00000  Uiso   1.00
C14    C     0.00133   0.50000   0.94516   0.00000  Uiso   1.00
C15    C     0.55527   0.50000   0.50439   0.00000  Uiso   1.00
C16    C     0.99867   0.50000   0.05484   0.00000  Uiso   1.00
N17    N     0.36449   0.50000   0.53173   0.00000  Uiso   1.00
N18    N     0.03690   0.50000   0.86342   0.00000  Uiso   1.00
N19    N     0.63551   0.50000   0.46827   0.00000  Uiso   1.00
N20    N     0.96310   0.50000   0.13659   0.00000  Uiso   1.00
N21    N     0.94233   0.50000   0.55808   0.00000  Uiso   1.00
N22    N     0.05767   0.50000   0.44192   0.00000  Uiso   1.00
H23    H     0.96640   0.50000   0.53384   0.00000  Uiso   1.00
H24    H     0.03360   0.50000   0.46616   0.00000  Uiso   1.00
C25    C     0.95811   0.50000   0.61026   0.00000  Uiso   1.00
C26    C     0.11013   0.50000   0.45716   0.00000  Uiso   1.00
C27    C     0.04189   0.50000   0.38974   0.00000  Uiso   1.00
C28    C     0.88987   0.50000   0.54284   0.00000  Uiso   1.00
C29    C     0.91208   0.50000   0.63116   0.00000  Uiso   1.00
C30    C     0.13064   0.50000   0.41105   0.00000  Uiso   1.00
C31    C     0.08792   0.50000   0.36884   0.00000  Uiso   1.00
C32    C     0.86936   0.50000   0.58895   0.00000  Uiso   1.00
H33    H     0.90951   0.50000   0.67238   0.00000  Uiso   1.00
H34    H     0.17194   0.50000   0.40809   0.00000  Uiso   1.00
H35    H     0.09048   0.50000   0.32762   0.00000  Uiso   1.00
H36    H     0.82806   0.50000   0.59191   0.00000  Uiso   1.00
N37    N     0.06775   0.50000   0.56693   0.00000  Uiso   1.00
N38    N     0.93225   0.50000   0.43307   0.00000  Uiso   1.00
C39    C     0.06209   0.50000   0.62028   0.00000  Uiso   1.00
C40    C     0.12117   0.50000   0.56079   0.00000  Uiso   1.00
C41    C     0.93791   0.50000   0.37972   0.00000  Uiso   1.00
C42    C     0.87883   0.50000   0.43922   0.00000  Uiso   1.00
C43    C     0.11688   0.50000   0.64927   0.00000  Uiso   1.00
C44    C     0.15076   0.50000   0.61515   0.00000  Uiso   1.00
C45    C     0.88312   0.50000   0.35073   0.00000  Uiso   1.00
C46    C     0.84924   0.50000   0.38485   0.00000  Uiso   1.00
H47    H     0.12861   0.50000   0.69154   0.00000  Uiso   1.00
H48    H     0.19324   0.50000   0.62646   0.00000  Uiso   1.00
H49    H     0.87139   0.50000   0.30846   0.00000  Uiso   1.00
H50    H     0.80675   0.50000   0.37355   0.00000  Uiso   1.00
C51    C     0.01554   0.50000   0.64034   0.00000  Uiso   1.00
C52    C     0.14083   0.50000   0.51416   0.00000  Uiso   1.00
C53    C     0.98446   0.50000   0.35967   0.00000  Uiso   1.00
C54    C     0.85917   0.50000   0.48584   0.00000  Uiso   1.00
C55    C     0.02108   0.50000   0.69796   0.00000  Uiso   1.00
C56    C     0.19865   0.50000   0.51911   0.00000  Uiso   1.00
C57    C     0.97892   0.50000   0.30204   0.00000  Uiso   1.00
C58    C     0.80135   0.50000   0.48089   0.00000  Uiso   1.00
C59    C     0.02366   0.32018   0.72547   0.00000  Uiso   1.00
C60    C     0.22623   0.67980   0.52126   0.00000  Uiso   1.00
C61    C     0.97634   0.32018   0.27453   0.00000  Uiso   1.00
C62    C     0.77377   0.67980   0.47874   0.00000  Uiso   1.00
C63    C     0.97634   0.67982   0.27453   0.00000  Uiso   1.00
C64    C     0.77377   0.32020   0.47874   0.00000  Uiso   1.00
C65    C     0.02366   0.67982   0.72547   0.00000  Uiso   1.00
C66    C     0.22623   0.32020   0.52126   0.00000  Uiso   1.00
H67    H     0.02176   0.18086   0.70446   0.00000  Uiso   1.00
H68    H     0.20514   0.81911   0.51960   0.00000  Uiso   1.00
H69    H     0.97824   0.18086   0.29554   0.00000  Uiso   1.00
H70    H     0.79486   0.81911   0.48040   0.00000  Uiso   1.00
H71    H     0.97824   0.81914   0.29554   0.00000  Uiso   1.00
H72    H     0.79486   0.18090   0.48040   0.00000  Uiso   1.00
H73    H     0.02176   0.81914   0.70446   0.00000  Uiso   1.00
H74    H     0.20514   0.18090   0.51960   0.00000  Uiso   1.00
C75    C     0.02887   0.32056   0.78021   0.00000  Uiso   1.00
C76    C     0.28111   0.67947   0.52556   0.00000  Uiso   1.00
C77    C     0.97113   0.32056   0.21980   0.00000  Uiso   1.00
C78    C     0.71889   0.67947   0.47444   0.00000  Uiso   1.00
C79    C     0.97113   0.67944   0.21980   0.00000  Uiso   1.00
C80    C     0.71889   0.32053   0.47444   0.00000  Uiso   1.00
C81    C     0.02887   0.67944   0.78021   0.00000  Uiso   1.00
C82    C     0.28111   0.32053   0.52556   0.00000  Uiso   1.00
H83    H     0.03115   0.18252   0.80170   0.00000  Uiso   1.00
H84    H     0.30257   0.81770   0.52732   0.00000  Uiso   1.00
H85    H     0.96885   0.18252   0.19830   0.00000  Uiso   1.00
H86    H     0.69743   0.81770   0.47268   0.00000  Uiso   1.00
H87    H     0.96885   0.81748   0.19830   0.00000  Uiso   1.00
H88    H     0.69743   0.18230   0.47268   0.00000  Uiso   1.00
H89    H     0.03115   0.81748   0.80170   0.00000  Uiso   1.00
H90    H     0.30257   0.18230   0.52732   0.00000  Uiso   1.00
C91    C     0.03124   0.50000   0.80755   0.00000  Uiso   1.00
C92    C     0.30854   0.50000   0.52749   0.00000  Uiso   1.00
C93    C     0.96875   0.50000   0.19245   0.00000  Uiso   1.00
C94    C     0.69146   0.50000   0.47251   0.00000  Uiso   1.00
O95    O     0.43508   0.50000   0.40071   0.00000  Uiso   1.00
H96    H     0.46047   0.50000   0.58048   0.00000  Uiso   1.00
H97    H     0.63737   0.50000   0.54854   0.00000  Uiso   1.00
H98    H     0.91621   0.50000   0.93657   0.00000  Uiso   1.00
O99    O     0.10003   0.50000   0.97143   0.00000  Uiso   1.00
H100   H     0.04265   0.50000   0.13687   0.00000  Uiso   1.00
H101   H     0.03846   0.50000   0.53799   0.00000  Uiso   1.00
H102   H     0.45503   0.50000   0.37032   0.00000  Uiso   1.00
H103   H     0.10288   0.50000   0.93323   0.00000  Uiso   1.00
O104   O     0.56492   0.50000   0.59929   0.00000  Uiso   1.00
H105   H     0.53953   0.50000   0.41952   0.00000  Uiso   1.00
H106   H     0.36263   0.50000   0.45147   0.00000  Uiso   1.00
H107   H     0.08379   0.50000   0.06343   0.00000  Uiso   1.00
O108   O     0.89997   0.50000   0.02857   0.00000  Uiso   1.00
H109   H     0.95735   0.50000   0.86313   0.00000  Uiso   1.00
H110   H     0.96154   0.50000   0.46201   0.00000  Uiso   1.00
H111   H     0.54497   0.50000   0.62968   0.00000  Uiso   1.00
H112   H     0.89712   0.50000   0.06677   0.00000  Uiso   1.00
loop_
_geom_bond_atom_site_label_1
_geom_bond_atom_site_label_2
_geom_bond_distance
_geom_bond_site_symmetry_2
_ccdc_geom_bond_type
C1     C7      1.401   .     D
C1     C13     1.407   .     S
C1     O95     1.398   .     S
C2     C8      1.394   1_556 D
C2     C14     1.406   1_655 S
C2     H98     1.083   .     S
C3     C5      1.401   .     S
C3     C15     1.407   .     D
C3     O104    1.398   .     S
C4     C6      1.394   1_554 S
C4     C16     1.406   1_455 D
C4     H107    1.083   .     S
C5     C13     1.406   .     D
C5     H96     1.082   .     S
C6     C4      1.394   1_556 S
C6     C14     1.427   .     D
C6     O99     1.398   .     S
C7     C15     1.406   .     S
C7     H105    1.082   .     S
C8     C2      1.394   1_554 D
C8     C16     1.427   .     S
C8     O108    1.398   .     S
C9     C15     1.478   .     S
C9     N19     1.299   .     D
C9     H97     1.087   .     S
C10    C16     1.491   1_455 S
C10    N20     1.294   1_455 D
C10    H100    1.087   .     S
C11    C13     1.478   .     S
C11    N17     1.299   .     D
C11    H106    1.087   .     S
C12    C14     1.491   1_655 S
C12    N18     1.294   1_655 D
C12    H109    1.087   .     S
C14    C12     1.491   1_455 S
C14    C2      1.406   1_455 S
C16    C4      1.406   1_655 D
C16    C10     1.491   1_655 S
N17    C92     1.427   .     S
N18    C12     1.294   1_455 D
N18    C91     1.428   .     S
N19    C94     1.427   .     S
N20    C10     1.294   1_655 D
N20    C93     1.428   .     S
N21    H23     0.959   .     S
N21    C25     1.339   .     S
N21    C28     1.339   .     S
N22    H24     0.959   .     S
N22    C26     1.339   .     S
N22    C27     1.339   .     S
C25    C29     1.390   .     D
C25    C51     1.544   1_655 S
C26    C30     1.390   .     D
C26    C52     1.544   .     S
C27    C31     1.390   .     D
C27    C53     1.544   1_455 S
C28    C32     1.390   .     D
C28    C54     1.544   .     S
C29    C32     1.405   .     S
C29    H33     1.081   .     S
C30    C31     1.405   .     S
C30    H34     1.081   .     S
C31    H35     1.081   .     S
C32    H36     1.081   .     S
N37    C39     1.415   .     S
N37    C40     1.415   .     S
N37    H101    0.963   .     S
N38    C41     1.415   .     S
N38    C42     1.415   .     S
N38    H110    0.963   .     S
C39    C43     1.476   .     S
C39    C51     1.391   .     D
C40    C44     1.476   .     S
C40    C52     1.391   .     D
C41    C45     1.476   .     S
C41    C53     1.391   .     D
C42    C46     1.476   .     S
C42    C54     1.391   .     D
C43    C44     1.350   .     D
C43    H47     1.082   .     S
C44    H48     1.082   .     S
C45    C46     1.350   .     D
C45    H49     1.082   .     S
C46    H50     1.082   .     S
C51    C25     1.544   1_455 S
C51    C55     1.473   .     S
C52    C56     1.473   .     S
C53    C27     1.544   1_655 S
C53    C57     1.473   .     S
C54    C58     1.473   .     S
C55    C59     1.402   .     S
C55    C65     1.402   .     D
C56    C60     1.402   .     D
C56    C66     1.402   .     S
C57    C61     1.402   .     D
C57    C63     1.402   .     S
C58    C62     1.402   .     S
C58    C64     1.402   .     D
C59    H67     1.082   .     S
C59    C75     1.400   .     D
C60    H68     1.082   .     S
C60    C76     1.399   .     S
C61    H69     1.082   .     S
C61    C77     1.400   .     S
C62    H70     1.083   .     S
C62    C78     1.399   .     D
C63    H71     1.082   .     S
C63    C79     1.400   .     D
C64    H72     1.083   .     S
C64    C80     1.399   .     S
C65    H73     1.082   .     S
C65    C81     1.400   .     S
C66    H74     1.082   .     S
C66    C82     1.399   .     D
C75    H83     1.081   .     S
C75    C91     1.398   .     S
C76    H84     1.081   .     S
C76    C92     1.398   .     D
C77    H85     1.081   .     S
C77    C93     1.398   .     D
C78    H86     1.081   .     S
C78    C94     1.398   .     S
C79    H87     1.081   .     S
C79    C93     1.398   .     S
C80    H88     1.081   .     S
C80    C94     1.398   .     D
C81    H89     1.081   .     S
C81    C91     1.398   .     D
C82    H90     1.081   .     S
C82    C92     1.398   .     S
O95    H102    1.015   .     S
O99    H103    1.005   .     S
O104   H111    1.015   .     S
O108   H112    1.005   .     S
