data_215
_audit_creation_date              2023-09-08
_audit_creation_method            'Materials Studio'
_symmetry_space_group_name_H-M    'P1'
_symmetry_Int_Tables_number       1
_symmetry_cell_setting            triclinic
loop_
_symmetry_equiv_pos_as_xyz
  x,y,z
_cell_length_a                    37.1407
_cell_length_b                    37.1469
_cell_length_c                    3.5402
_cell_angle_alpha                 90.1853
_cell_angle_beta                  89.4554
_cell_angle_gamma                 120.5590
loop_
_atom_site_label
_atom_site_type_symbol
_atom_site_fract_x
_atom_site_fract_y
_atom_site_fract_z
_atom_site_U_iso_or_equiv
_atom_site_adp_type
_atom_site_occupancy
C1     C     0.17214   0.22163   0.50378   0.00000  Uiso   1.00
C2     C     0.15060   0.24362   0.48672   0.00000  Uiso   1.00
C3     C     0.95170   0.83895   0.48725   0.00000  Uiso   1.00
C4     C     0.90783   0.81629   0.46307   0.00000  Uiso   1.00
C5     C     0.97320   0.81694   0.50881   0.00000  Uiso   1.00
C6     C     0.88618   0.77276   0.46671   0.00000  Uiso   1.00
C7     C     0.95124   0.77342   0.51285   0.00000  Uiso   1.00
C8     C     0.90740   0.75068   0.49280   0.00000  Uiso   1.00
C9     C     0.88384   0.57538   0.48561   0.00000  Uiso   1.00
C10    C     0.94904   0.63981   0.54631   0.00000  Uiso   1.00
C11    C     0.02650   0.53975   0.47148   0.00000  Uiso   1.00
C12    C     0.00683   0.49739   0.52988   0.00000  Uiso   1.00
C13    C     0.06929   0.55950   0.41403   0.00000  Uiso   1.00
C14    C     0.02909   0.47541   0.52786   0.00000  Uiso   1.00
C15    C     0.09088   0.53823   0.41231   0.00000  Uiso   1.00
C16    C     0.07145   0.49543   0.46760   0.00000  Uiso   1.00
O17    O     0.48913   0.52030   0.55909   0.00000  Uiso   1.00
O18    O     0.96631   0.47501   0.59113   0.00000  Uiso   1.00
N19    N     0.96781   0.55021   0.52045   0.00000  Uiso   1.00
N20    N     0.41414   0.44460   0.50231   0.00000  Uiso   1.00
C21    C     0.09626   0.47504   0.45458   0.00000  Uiso   1.00
N22    N     0.21588   0.37400   0.49919   0.00000  Uiso   1.00
N23    N     0.15174   0.30958   0.48665   0.00000  Uiso   1.00
N24    N     0.21575   0.31014   0.50014   0.00000  Uiso   1.00
N25    N     0.84191   0.68446   0.49212   0.00000  Uiso   1.00
N26    N     0.90558   0.68441   0.50813   0.00000  Uiso   1.00
N27    N     0.84098   0.62030   0.50694   0.00000  Uiso   1.00
C28    C     0.14987   0.43924   0.53166   0.00000  Uiso   1.00
C29    C     0.08513   0.37392   0.46807   0.00000  Uiso   1.00
C30    C     0.90482   0.55322   0.48735   0.00000  Uiso   1.00
C31    C     0.97036   0.61793   0.54796   0.00000  Uiso   1.00
C32    C     0.94848   0.57429   0.51566   0.00000  Uiso   1.00
C33    C     0.43754   0.43011   0.44565   0.00000  Uiso   1.00
C34    C     0.00582   0.56429   0.46259   0.00000  Uiso   1.00
C35    C     0.57308   0.49821   0.45459   0.00000  Uiso   1.00
C36    C     0.48316   0.45451   0.45342   0.00000  Uiso   1.00
C37    C     0.50568   0.43420   0.40265   0.00000  Uiso   1.00
C38    C     0.50664   0.49719   0.50605   0.00000  Uiso   1.00
C39    C     0.54889   0.45519   0.40346   0.00000  Uiso   1.00
C40    C     0.55123   0.51889   0.50638   0.00000  Uiso   1.00
C41    C     0.61864   0.51829   0.44694   0.00000  Uiso   1.00
N42    N     0.08220   0.43685   0.50786   0.00000  Uiso   1.00
N43    N     0.64313   0.55648   0.50048   0.00000  Uiso   1.00
O44    O     0.09015   0.03897   0.41219   0.00000  Uiso   1.00
O45    O     0.57027   0.55984   0.55948   0.00000  Uiso   1.00
O46    O     0.00696   0.43485   0.58748   0.00000  Uiso   1.00
C47    C     0.75352   0.64093   0.46579   0.00000  Uiso   1.00
C48    C     0.75195   0.57607   0.53293   0.00000  Uiso   1.00
C49    C     0.71000   0.61962   0.46634   0.00000  Uiso   1.00
C50    C     0.70838   0.55442   0.53334   0.00000  Uiso   1.00
C51    C     0.68684   0.57596   0.49723   0.00000  Uiso   1.00
C52    C     0.90561   0.61900   0.51439   0.00000  Uiso   1.00
C53    C     0.04946   0.01983   0.47128   0.00000  Uiso   1.00
C54    C     0.02783   0.97525   0.47256   0.00000  Uiso   1.00
C55    C     0.98539   0.95167   0.53083   0.00000  Uiso   1.00
C56    C     0.96522   0.97410   0.58587   0.00000  Uiso   1.00
C57    C     0.98618   0.01730   0.58474   0.00000  Uiso   1.00
C58    C     0.02900   0.04159   0.52839   0.00000  Uiso   1.00
O59    O     0.05075   0.95785   0.41466   0.00000  Uiso   1.00
C60    C     0.04922   0.08712   0.53759   0.00000  Uiso   1.00
C61    C     0.17366   0.28974   0.49130   0.00000  Uiso   1.00
C62    C     0.17378   0.35170   0.49310   0.00000  Uiso   1.00
C63    C     0.23593   0.35226   0.50148   0.00000  Uiso   1.00
C64    C     0.88401   0.70455   0.49784   0.00000  Uiso   1.00
C65    C     0.88313   0.64227   0.51011   0.00000  Uiso   1.00
C66    C     0.82131   0.64235   0.49915   0.00000  Uiso   1.00
C67    C     0.28208   0.37571   0.50388   0.00000  Uiso   1.00
C68    C     0.96120   0.90606   0.54137   0.00000  Uiso   1.00
N69    N     0.97549   0.88273   0.48127   0.00000  Uiso   1.00
N70    N     0.08690   0.11167   0.47596   0.00000  Uiso   1.00
C71    C     0.10661   0.15536   0.48174   0.00000  Uiso   1.00
C72    C     0.08493   0.17726   0.46084   0.00000  Uiso   1.00
C73    C     0.34803   0.37699   0.53578   0.00000  Uiso   1.00
C74    C     0.34804   0.44152   0.47189   0.00000  Uiso   1.00
C75    C     0.37036   0.42054   0.50046   0.00000  Uiso   1.00
C76    C     0.15069   0.37436   0.49413   0.00000  Uiso   1.00
C77    C     0.17159   0.41776   0.52818   0.00000  Uiso   1.00
C78    C     0.10714   0.35278   0.46433   0.00000  Uiso   1.00
C79    C     0.15059   0.17814   0.49987   0.00000  Uiso   1.00
C80    C     0.10626   0.41753   0.49945   0.00000  Uiso   1.00
C81    C     0.77516   0.61948   0.49841   0.00000  Uiso   1.00
C82    C     0.10683   0.22080   0.46405   0.00000  Uiso   1.00
C83    C     0.30447   0.35503   0.53627   0.00000  Uiso   1.00
C84    C     0.30451   0.41927   0.47257   0.00000  Uiso   1.00
H85    H     0.20942   0.23635   0.50167   0.00000  Uiso   1.00
H86    H     0.88370   0.82876   0.46390   0.00000  Uiso   1.00
H87    H     1.01053   0.84031   0.50691   0.00000  Uiso   1.00
H88    H     0.84875   0.75661   0.46880   0.00000  Uiso   1.00
H89    H     0.97429   0.75955   0.51129   0.00000  Uiso   1.00
H90    H     0.84637   0.55888   0.48716   0.00000  Uiso   1.00
H91    H     0.96621   0.67734   0.54728   0.00000  Uiso   1.00
H92    H     0.08587   0.59707   0.41093   0.00000  Uiso   1.00
H93    H     0.12794   0.56282   0.40693   0.00000  Uiso   1.00
H94    H     0.13255   0.50145   0.44770   0.00000  Uiso   1.00
H95    H     0.16856   0.47653   0.53326   0.00000  Uiso   1.00
H96    H     0.04798   0.34981   0.46964   0.00000  Uiso   1.00
H97    H     0.88063   0.51609   0.48736   0.00000  Uiso   1.00
H98    H     1.00732   0.64243   0.54735   0.00000  Uiso   1.00
H99    H     0.42691   0.39382   0.44124   0.00000  Uiso   1.00
H100   H     0.02819   0.60143   0.45731   0.00000  Uiso   1.00
H101   H     0.49197   0.39704   0.40031   0.00000  Uiso   1.00
H102   H     0.56933   0.43832   0.39855   0.00000  Uiso   1.00
H103   H     0.63302   0.49589   0.44089   0.00000  Uiso   1.00
H104   H     0.77484   0.67843   0.46349   0.00000  Uiso   1.00
H105   H     0.77226   0.55916   0.53208   0.00000  Uiso   1.00
H106   H     0.69722   0.64360   0.46691   0.00000  Uiso   1.00
H107   H     0.69544   0.51750   0.53542   0.00000  Uiso   1.00
H108   H     0.92767   0.95223   0.59147   0.00000  Uiso   1.00
H109   H     0.96137   0.02908   0.59004   0.00000  Uiso   1.00
H110   H     0.02273   0.09646   0.54492   0.00000  Uiso   1.00
H111   H     0.92410   0.89078   0.54893   0.00000  Uiso   1.00
H112   H     0.04763   0.15808   0.46214   0.00000  Uiso   1.00
H113   H     0.36597   0.35799   0.53567   0.00000  Uiso   1.00
H114   H     0.36154   0.47863   0.47058   0.00000  Uiso   1.00
H115   H     0.20886   0.44107   0.52678   0.00000  Uiso   1.00
H116   H     0.09054   0.31530   0.46318   0.00000  Uiso   1.00
H117   H     0.16494   0.15543   0.49851   0.00000  Uiso   1.00
H118   H     0.08390   0.23480   0.46591   0.00000  Uiso   1.00
H119   H     0.29004   0.31779   0.53781   0.00000  Uiso   1.00
H120   H     0.28366   0.43560   0.47360   0.00000  Uiso   1.00
H121   H     0.45736   0.50989   0.55956   0.00000  Uiso   1.00
H122   H     0.94364   0.48370   0.59075   0.00000  Uiso   1.00
H123   H     0.11243   0.07085   0.41391   0.00000  Uiso   1.00
H124   H     0.60220   0.58188   0.55434   0.00000  Uiso   1.00
H125   H     0.01922   0.41543   0.58547   0.00000  Uiso   1.00
H126   H     0.04215   0.92629   0.41718   0.00000  Uiso   1.00
loop_
_geom_bond_atom_site_label_1
_geom_bond_atom_site_label_2
_geom_bond_distance
_geom_bond_site_symmetry_2
_ccdc_geom_bond_type
C1     C2      1.406   .     D
C1     C79     1.391   .     S
C1     H85     1.203   .     S
C2     C61     1.475   .     S
C2     C82     1.403   .     S
C3     C4      1.407   .     D
C3     C5      1.406   .     S
C3     N69     1.402   .     S
C4     C6      1.393   .     S
C4     H86     1.200   .     S
C5     C7      1.392   .     D
C5     H87     1.205   .     S
C6     C8      1.401   .     D
C6     H88     1.202   .     S
C7     C8      1.405   .     S
C7     H89     1.203   .     S
C8     C64     1.476   .     S
C9     C30     1.392   .     D
C9     C52     1.399   .     S
C9     H90     1.202   .     S
C10    C31     1.394   .     S
C10    C52     1.395   .     D
C10    H91     1.203   .     S
C11    C12     1.372   .     S
C11    C13     1.384   .     D
C11    C34     1.461   .     S
C12    C14     1.427   .     D
C12    O18     1.314   1_455 S
C13    C15     1.383   .     S
C13    H92     1.206   .     S
C14    C16     1.371   .     S
C14    O46     1.315   .     S
C15    C16     1.385   .     D
C15    H93     1.204   .     S
C16    C21     1.461   .     S
O17    C38     1.326   .     S
O17    H121    1.038   .     S
O18    C12     1.314   1_655 S
O18    H122    1.044   .     S
N19    C32     1.403   .     S
N19    C34     1.246   1_655 D
N20    C33     1.248   .     D
N20    C75     1.402   .     S
C21    N42     1.252   .     D
C21    H94     1.198   .     S
N22    C62     1.347   .     S
N22    C63     1.348   .     D
N23    C61     1.348   .     S
N23    C62     1.348   .     D
N24    C61     1.347   .     D
N24    C63     1.348   .     S
N25    C64     1.348   .     D
N25    C66     1.348   .     S
N26    C64     1.346   .     S
N26    C65     1.348   .     D
N27    C65     1.348   .     S
N27    C66     1.347   .     D
C28    C77     1.394   .     S
C28    C80     1.401   .     D
C28    H95     1.193   .     S
C29    C78     1.392   .     D
C29    C80     1.400   .     S
C29    H96     1.204   .     S
C30    C32     1.401   .     S
C30    H97     1.204   .     S
C31    C32     1.401   .     D
C31    H98     1.201   .     S
C33    C36     1.460   .     S
C33    H99     1.197   .     S
C34    N19     1.246   1_455 D
C34    H100    1.195   .     S
C35    C39     1.391   .     D
C35    C40     1.383   .     S
C35    C41     1.462   .     S
C36    C37     1.392   .     D
C36    C38     1.380   .     S
C37    C39     1.382   .     S
C37    H101    1.204   .     S
C38    C40     1.427   .     D
C39    H102    1.205   .     S
C40    O45     1.325   .     S
C41    N43     1.251   .     D
C41    H103    1.196   .     S
N42    C80     1.402   .     S
N43    C51     1.402   .     S
O44    C53     1.317   .     S
O44    H123    1.044   .     S
O45    H124    1.044   .     S
O46    H125    1.030   .     S
C47    C49     1.392   .     D
C47    C81     1.396   .     S
C47    H104    1.202   .     S
C48    C50     1.394   .     S
C48    C81     1.394   .     D
C48    H105    1.203   .     S
C49    C51     1.401   .     S
C49    H106    1.204   .     S
C50    C51     1.396   .     D
C50    H107    1.201   .     S
C52    C65     1.476   .     S
C53    C54     1.427   1_545 D
C53    C58     1.376   .     S
C54    C53     1.427   1_565 D
C54    C55     1.373   1_455 S
C54    O59     1.319   .     S
C55    C54     1.373   1_655 S
C55    C56     1.387   .     D
C55    C68     1.460   .     S
C56    C57     1.382   1_565 S
C56    H108    1.205   .     S
C57    C56     1.382   1_545 S
C57    C58     1.385   1_655 D
C57    H109    1.204   .     S
C58    C57     1.385   1_455 D
C58    C60     1.461   .     S
O59    H126    1.047   .     S
C60    N70     1.239   .     D
C60    H110    1.198   .     S
C62    C76     1.476   .     S
C63    C67     1.476   .     S
C66    C81     1.476   .     S
C67    C83     1.395   .     S
C67    C84     1.398   .     D
C68    N69     1.242   .     D
C68    H111    1.194   .     S
N70    C71     1.401   .     S
C71    C72     1.408   .     S
C71    C79     1.409   .     D
C72    C82     1.393   .     D
C72    H112    1.193   .     S
C73    C75     1.398   .     S
C73    C83     1.393   .     D
C73    H113    1.192   .     S
C74    C75     1.401   .     D
C74    C84     1.392   .     S
C74    H114    1.204   .     S
C76    C77     1.394   .     D
C76    C78     1.398   .     S
C77    H115    1.203   .     S
C78    H116    1.202   .     S
C79    H117    1.205   .     S
C82    H118    1.203   .     S
C83    H119    1.203   .     S
C84    H120    1.202   .     S
