data_218
_audit_creation_date              2023-09-08
_audit_creation_method            'Materials Studio'
_symmetry_space_group_name_H-M    'P1'
_symmetry_Int_Tables_number       1
_symmetry_cell_setting            triclinic
loop_
_symmetry_equiv_pos_as_xyz
  x,y,z
_cell_length_a                    25.6000
_cell_length_b                    25.6000
_cell_length_c                    4.6000
_cell_angle_alpha                 90.0000
_cell_angle_beta                  90.0000
_cell_angle_gamma                 90.0000
loop_
_atom_site_label
_atom_site_type_symbol
_atom_site_fract_x
_atom_site_fract_y
_atom_site_fract_z
_atom_site_U_iso_or_equiv
_atom_site_adp_type
_atom_site_occupancy
C1     C     0.78260   0.94360   0.28050   0.00000  Uiso   1.00
C2     C     0.80740   0.98050   0.48890   0.00000  Uiso   1.00
C3     C     0.77490   0.01160   0.69200   0.00000  Uiso   1.00
C4     C     0.72090   0.00710   0.68300   0.00000  Uiso   1.00
C5     C     0.69590   0.97060   0.47090   0.00000  Uiso   1.00
C6     C     0.72860   0.93830   0.27480   0.00000  Uiso   1.00
C7     C     0.86550   0.98650   0.49440   0.00000  Uiso   1.00
C8     C     0.88660   0.03740   0.45350   0.00000  Uiso   1.00
C9     C     0.93970   0.10340   0.46070   0.00000  Uiso   1.00
C10    C     0.88830   0.12450   0.36950   0.00000  Uiso   1.00
C11    C     0.85520   0.08330   0.36430   0.00000  Uiso   1.00
C12    C     0.98490   0.13470   0.50740   0.00000  Uiso   1.00
C13    C     0.97900   0.19280   0.51220   0.00000  Uiso   1.00
C14    C     0.01050   0.22520   0.31080   0.00000  Uiso   1.00
C15    C     0.00610   0.27920   0.32000   0.00000  Uiso   1.00
C16    C     0.96930   0.30420   0.53030   0.00000  Uiso   1.00
C17    C     0.93670   0.27150   0.72410   0.00000  Uiso   1.00
C18    C     0.94190   0.21760   0.71870   0.00000  Uiso   1.00
C19    C     0.00260   0.38710   0.49790   0.00000  Uiso   1.00
C20    C     0.00000   0.44410   0.49490   0.00000  Uiso   1.00
C21    C     0.95230   0.47270   0.49650   0.00000  Uiso   1.00
C22    C     0.95270   0.52720   0.49290   0.00000  Uiso   1.00
C23    C     0.99960   0.55620   0.49520   0.00000  Uiso   1.00
C24    C     0.04720   0.52760   0.49440   0.00000  Uiso   1.00
C25    C     0.04680   0.47310   0.49060   0.00000  Uiso   1.00
C26    C     0.99720   0.61320   0.49850   0.00000  Uiso   1.00
C27    C     0.03620   0.11450   0.55020   0.00000  Uiso   1.00
C28    C     0.10440   0.05930   0.54210   0.00000  Uiso   1.00
C29    C     0.12380   0.11010   0.63220   0.00000  Uiso   1.00
C30    C     0.08220   0.14380   0.63750   0.00000  Uiso   1.00
C31    C     0.13460   0.01340   0.49260   0.00000  Uiso   1.00
C32    C     0.11350   0.96250   0.45120   0.00000  Uiso   1.00
C33    C     0.06040   0.89660   0.45900   0.00000  Uiso   1.00
C34    C     0.11180   0.87540   0.36710   0.00000  Uiso   1.00
C35    C     0.14490   0.91660   0.36140   0.00000  Uiso   1.00
C36    C     0.01520   0.86530   0.50600   0.00000  Uiso   1.00
C37    C     0.96390   0.88530   0.54860   0.00000  Uiso   1.00
C38    C     0.89570   0.94050   0.54230   0.00000  Uiso   1.00
C39    C     0.87630   0.88970   0.63040   0.00000  Uiso   1.00
C40    C     0.91790   0.85590   0.63440   0.00000  Uiso   1.00
C41    C     0.19270   0.01950   0.48650   0.00000  Uiso   1.00
C42    C     0.21740   0.05670   0.28050   0.00000  Uiso   1.00
C43    C     0.27130   0.06220   0.27540   0.00000  Uiso   1.00
C44    C     0.30410   0.02960   0.46900   0.00000  Uiso   1.00
C45    C     0.27920   0.99250   0.67810   0.00000  Uiso   1.00
C46    C     0.22520   0.98800   0.68710   0.00000  Uiso   1.00
C47    C     0.38690   0.99650   0.50100   0.00000  Uiso   1.00
C48    C     0.44390   0.99930   0.50490   0.00000  Uiso   1.00
C49    C     0.47330   0.95270   0.50800   0.00000  Uiso   1.00
C50    C     0.52770   0.95270   0.50550   0.00000  Uiso   1.00
C51    C     0.55590   0.00050   0.50700   0.00000  Uiso   1.00
C52    C     0.52660   0.04720   0.50990   0.00000  Uiso   1.00
C53    C     0.47210   0.04720   0.50510   0.00000  Uiso   1.00
C54    C     0.61290   0.00350   0.50410   0.00000  Uiso   1.00
C55    C     0.02120   0.80720   0.51110   0.00000  Uiso   1.00
C56    C     0.99010   0.77480   0.30720   0.00000  Uiso   1.00
C57    C     0.99440   0.72080   0.31690   0.00000  Uiso   1.00
C58    C     0.03080   0.69580   0.53000   0.00000  Uiso   1.00
C59    C     0.06320   0.72850   0.72560   0.00000  Uiso   1.00
C60    C     0.05800   0.78250   0.71980   0.00000  Uiso   1.00
C61    C     0.14332   0.52331   0.49494   0.00000  Uiso   1.00
C62    C     0.52394   0.85647   0.50233   0.00000  Uiso   1.00
C63    C     0.85618   0.47700   0.50248   0.00000  Uiso   1.00
C64    C     0.47577   0.14328   0.50362   0.00000  Uiso   1.00
N65    N     0.93690   0.05120   0.49930   0.00000  Uiso   1.00
N66    N     0.96220   0.35690   0.54260   0.00000  Uiso   1.00
N67    N     0.03770   0.64310   0.54260   0.00000  Uiso   1.00
N68    N     0.05220   0.06470   0.50860   0.00000  Uiso   1.00
N69    N     0.06330   0.94870   0.49760   0.00000  Uiso   1.00
N70    N     0.94790   0.93520   0.50860   0.00000  Uiso   1.00
N71    N     0.35670   0.03680   0.45740   0.00000  Uiso   1.00
N72    N     0.64330   0.96330   0.45890   0.00000  Uiso   1.00
O73    O     0.90300   0.44710   0.50100   0.00000  Uiso   1.00
O74    O     0.09650   0.55320   0.49580   0.00000  Uiso   1.00
O75    O     0.55360   0.90350   0.50260   0.00000  Uiso   1.00
O76    O     0.44620   0.09630   0.50190   0.00000  Uiso   1.00
H77    H     0.80509   0.92215   0.14121   0.00000  Uiso   1.00
H78    H     0.79204   0.03618   0.83895   0.00000  Uiso   1.00
H79    H     0.69905   0.02801   0.82782   0.00000  Uiso   1.00
H80    H     0.71115   0.91270   0.13435   0.00000  Uiso   1.00
H81    H     0.87901   0.16227   0.32116   0.00000  Uiso   1.00
H82    H     0.81656   0.08451   0.31060   0.00000  Uiso   1.00
H83    H     0.03525   0.20803   0.16483   0.00000  Uiso   1.00
H84    H     0.02727   0.30100   0.17613   0.00000  Uiso   1.00
H85    H     0.91092   0.28896   0.86350   0.00000  Uiso   1.00
H86    H     0.92023   0.19514   0.85709   0.00000  Uiso   1.00
H87    H     0.03929   0.37154   0.47395   0.00000  Uiso   1.00
H88    H     0.91933   0.54862   0.49076   0.00000  Uiso   1.00
H89    H     0.08019   0.45172   0.48677   0.00000  Uiso   1.00
H90    H     0.96055   0.62889   0.47509   0.00000  Uiso   1.00
H91    H     0.16148   0.11969   0.68102   0.00000  Uiso   1.00
H92    H     0.08400   0.18241   0.69166   0.00000  Uiso   1.00
H93    H     0.12104   0.83762   0.31893   0.00000  Uiso   1.00
H94    H     0.18351   0.91539   0.30706   0.00000  Uiso   1.00
H95    H     0.83862   0.88009   0.67892   0.00000  Uiso   1.00
H96    H     0.91609   0.81723   0.68704   0.00000  Uiso   1.00
H97    H     0.19487   0.07833   0.14233   0.00000  Uiso   1.00
H98    H     0.28867   0.08813   0.13653   0.00000  Uiso   1.00
H99    H     0.30102   0.97127   0.82159   0.00000  Uiso   1.00
H100   H     0.20810   0.96315   0.83279   0.00000  Uiso   1.00
H101   H     0.37151   0.95971   0.52328   0.00000  Uiso   1.00
H102   H     0.45210   0.91919   0.50997   0.00000  Uiso   1.00
H103   H     0.54779   0.08071   0.51326   0.00000  Uiso   1.00
H104   H     0.62828   0.04025   0.52890   0.00000  Uiso   1.00
H105   H     0.96565   0.79200   0.15977   0.00000  Uiso   1.00
H106   H     0.97347   0.69897   0.17210   0.00000  Uiso   1.00
H107   H     0.08875   0.71102   0.86622   0.00000  Uiso   1.00
H108   H     0.07944   0.80501   0.85901   0.00000  Uiso   1.00
H109   H     0.14747   0.50012   0.29680   0.00000  Uiso   1.00
H110   H     0.14703   0.49900   0.68906   0.00000  Uiso   1.00
H111   H     0.17570   0.55101   0.49833   0.00000  Uiso   1.00
H112   H     0.55182   0.82425   0.50007   0.00000  Uiso   1.00
H113   H     0.49995   0.85261   0.30696   0.00000  Uiso   1.00
H114   H     0.50047   0.85220   0.69927   0.00000  Uiso   1.00
H115   H     0.82380   0.44931   0.50745   0.00000  Uiso   1.00
H116   H     0.85173   0.50022   0.30468   0.00000  Uiso   1.00
H117   H     0.85279   0.50130   0.69686   0.00000  Uiso   1.00
H118   H     0.50003   0.14728   0.30938   0.00000  Uiso   1.00
H119   H     0.49895   0.14748   0.70167   0.00000  Uiso   1.00
H120   H     0.44785   0.17547   0.50064   0.00000  Uiso   1.00
H121   H     0.96525   1.02820   0.55585   0.00000  Uiso   1.00
H122   H     1.03499   0.97170   0.55467   0.00000  Uiso   1.00
loop_
_geom_bond_atom_site_label_1
_geom_bond_atom_site_label_2
_geom_bond_distance
_geom_bond_site_symmetry_2
_ccdc_geom_bond_type
C1     C2      1.488   .     S
C1     C6      1.389   .     D
C1     H77     1.022   .     S
C2     C3      1.483   1_565 S
C2     C7      1.495   .     D
C3     C2      1.483   1_545 S
C3     C4      1.388   .     D
C3     H78     1.022   .     S
C4     C5      1.495   1_545 S
C4     H79     1.021   .     S
C5     C4      1.495   1_565 S
C5     C6      1.483   .     S
C5     N72     1.361   .     D
C6     H80     1.023   .     S
C7     C8      1.423   1_565 S
C7     C38     1.426   .     S
C8     C7      1.423   1_545 S
C8     C11     1.482   .     D
C8     N65     1.352   .     S
C9     C10     1.483   .     D
C9     C12     1.424   .     S
C9     N65     1.350   .     S
C10    C11     1.353   .     S
C10    H81     1.020   .     S
C11    H82     1.020   .     S
C12    C13     1.495   .     S
C12    C27     1.425   1_655 D
C13    C14     1.482   1_655 D
C13    C18     1.486   .     S
C14    C13     1.482   1_455 D
C14    C15     1.388   .     S
C14    H83     1.023   .     S
C15    C16     1.494   1_455 D
C15    H84     1.021   .     S
C16    C15     1.494   1_655 D
C16    C17     1.481   .     S
C16    N66     1.362   .     S
C17    C18     1.386   .     D
C17    H85     1.023   .     S
C18    H86     1.022   .     S
C19    C20     1.461   .     S
C19    N66     1.308   1_455 D
C19    H87     1.026   .     S
C20    C21     1.424   1_455 D
C20    C25     1.410   .     S
C21    C20     1.424   1_655 D
C21    C22     1.395   .     S
C21    O73     1.422   .     S
C22    C23     1.412   .     D
C22    H88     1.015   .     S
C23    C24     1.422   1_655 S
C23    C26     1.461   .     S
C24    C23     1.422   1_455 S
C24    C25     1.395   .     D
C24    O74     1.422   .     S
C25    H89     1.015   .     S
C26    N67     1.305   1_655 D
C26    H90     1.026   .     S
C27    C12     1.425   1_455 D
C27    C30     1.453   .     S
C27    N68     1.353   .     S
C28    C29     1.452   .     S
C28    C31     1.425   .     S
C28    N68     1.352   .     D
C29    C30     1.371   .     D
C29    H91     1.020   .     S
C30    H92     1.020   .     S
C31    C32     1.423   1_545 S
C31    C41     1.496   .     D
C32    C31     1.423   1_565 S
C32    C35     1.482   .     D
C32    N69     1.350   .     S
C33    C34     1.485   .     D
C33    C36     1.424   .     S
C33    N69     1.348   .     S
C34    C35     1.353   .     S
C34    H93     1.020   .     S
C35    H94     1.020   .     S
C36    C37     1.423   1_455 D
C36    C55     1.495   .     S
C37    C36     1.423   1_655 D
C37    C40     1.452   .     S
C37    N70     1.354   .     S
C38    C39     1.450   .     S
C38    N70     1.352   .     D
C39    C40     1.372   .     D
C39    H95     1.020   .     S
C40    H96     1.020   .     S
C41    C42     1.485   .     S
C41    C46     1.481   1_545 S
C42    C43     1.387   .     D
C42    H97     1.021   .     S
C43    C44     1.481   .     S
C43    H98     1.023   .     S
C44    C45     1.495   1_545 S
C44    N71     1.360   .     D
C45    C44     1.495   1_565 S
C45    C46     1.388   .     D
C45    H99     1.021   .     S
C46    C41     1.481   1_565 S
C46    H100    1.022   .     S
C47    C48     1.461   .     D
C47    N71     1.305   1_565 S
C47    H101    1.026   .     S
C48    C49     1.411   .     S
C48    C53     1.423   1_565 S
C49    C50     1.393   .     D
C49    H102    1.015   .     S
C50    C51     1.421   1_565 S
C50    O75     1.423   .     S
C51    C50     1.421   1_545 S
C51    C52     1.411   .     S
C51    C54     1.461   .     D
C52    C53     1.395   .     D
C52    H103    1.015   .     S
C53    C48     1.423   1_545 S
C53    O76     1.421   .     S
C54    N72     1.307   1_545 S
C54    H104    1.026   .     S
C55    C56     1.484   1_455 S
C55    C60     1.486   .     D
C56    C55     1.484   1_655 S
C56    C57     1.387   .     D
C56    H105    1.023   .     S
C57    C58     1.496   1_655 S
C57    H106    1.021   .     S
C58    C57     1.496   1_455 S
C58    C59     1.483   .     D
C58    N67     1.362   .     S
C59    C60     1.389   .     S
C59    H107    1.023   .     S
C60    H108    1.021   .     S
C61    O74     1.422   .     S
C61    H109    1.093   .     S
C61    H110    1.093   .     S
C61    H111    1.091   .     S
C62    O75     1.423   .     S
C62    H112    1.091   .     S
C62    H113    1.093   .     S
C62    H114    1.093   .     S
C63    O73     1.422   .     S
C63    H115    1.091   .     S
C63    H116    1.093   .     S
C63    H117    1.093   .     S
C64    O76     1.421   .     S
C64    H118    1.093   .     S
C64    H119    1.093   .     S
C64    H120    1.091   .     S
N65    H121    0.970   1_545 S
N66    C19     1.308   1_655 D
N67    C26     1.305   1_455 D
N69    H122    0.970   1_455 S
N71    C47     1.305   1_545 S
N72    C54     1.307   1_565 S
H121   N65     0.970   1_565 S
H122   N69     0.970   1_655 S
