data_219
_audit_creation_date              2023-09-08
_audit_creation_method            'Materials Studio'
_symmetry_space_group_name_H-M    'P1'
_symmetry_Int_Tables_number       1
_symmetry_cell_setting            triclinic
loop_
_symmetry_equiv_pos_as_xyz
  x,y,z
_cell_length_a                    25.2000
_cell_length_b                    24.6000
_cell_length_c                    4.1000
_cell_angle_alpha                 90.1000
_cell_angle_beta                  89.7000
_cell_angle_gamma                 88.4000
loop_
_atom_site_label
_atom_site_type_symbol
_atom_site_fract_x
_atom_site_fract_y
_atom_site_fract_z
_atom_site_U_iso_or_equiv
_atom_site_adp_type
_atom_site_occupancy
C1     C     0.29794   1.01200   0.67782   0.00000  Uiso   1.00
C2     C     0.27431   1.04762   0.90523   0.00000  Uiso   1.00
C3     C     0.22126   1.04291   0.97994   0.00000  Uiso   1.00
C4     C     0.45681   1.02667   0.43464   0.00000  Uiso   1.00
C5     C     0.18909   1.00765   0.80425   0.00000  Uiso   1.00
C6     C     0.13179   1.00667   0.85925   0.00000  Uiso   1.00
N7     N     0.35156   1.01668   0.61609   0.00000  Uiso   1.00
C8     C     0.21304   0.97378   0.56673   0.00000  Uiso   1.00
C9     C     0.26714   0.97413   0.51409   0.00000  Uiso   1.00
C10    C     0.37994   0.97249   0.57433   0.00000  Uiso   1.00
C11    C     0.46973   0.93024   0.55760   0.00000  Uiso   1.00
C12    C     0.43592   0.97601   0.51422   0.00000  Uiso   1.00
N13    N     1.05532   0.94757   0.90982   0.00000  Uiso   1.00
C14    C     1.10864   0.95567   0.87004   0.00000  Uiso   1.00
C15    C     1.13420   0.90341   0.84419   0.00000  Uiso   1.00
C16    C     1.04567   0.89310   0.90543   0.00000  Uiso   1.00
C17    C     1.09566   0.86550   0.85178   0.00000  Uiso   1.00
C18    C     0.68410   0.98865   0.78966   0.00000  Uiso   1.00
C19    C     0.71222   0.95806   1.02206   0.00000  Uiso   1.00
C20    C     0.76559   0.96555   1.07046   0.00000  Uiso   1.00
C21    C     0.52516   0.93608   0.55369   0.00000  Uiso   1.00
C22    C     0.79414   1.00139   0.87515   0.00000  Uiso   1.00
C23    C     0.85186   1.00315   0.90173   0.00000  Uiso   1.00
N24    N     0.63172   0.97435   0.74396   0.00000  Uiso   1.00
C25    C     0.76547   1.03298   0.64747   0.00000  Uiso   1.00
C26    C     0.71138   1.02776   0.60971   0.00000  Uiso   1.00
C27    C     0.59989   1.00294   0.56061   0.00000  Uiso   1.00
C28    C     0.51072   1.03239   0.42767   0.00000  Uiso   1.00
C29    C     0.54565   0.98860   0.50787   0.00000  Uiso   1.00
N30    N     0.92886   1.06241   0.92017   0.00000  Uiso   1.00
C31    C     0.87530   1.05423   0.89459   0.00000  Uiso   1.00
C32    C     0.85012   1.10627   0.84976   0.00000  Uiso   1.00
C33    C     0.93888   1.11664   0.88774   0.00000  Uiso   1.00
C34    C     0.88891   1.14372   0.82879   0.00000  Uiso   1.00
C35    C     0.97832   1.31326   0.75555   0.00000  Uiso   1.00
C36    C     0.94331   1.28964   0.97681   0.00000  Uiso   1.00
C37    C     0.94828   1.23457   1.04194   0.00000  Uiso   1.00
C38    C     0.97062   0.47556   0.43913   0.00000  Uiso   1.00
C39    C     0.98544   1.20136   0.87303   0.00000  Uiso   1.00
C40    C     0.98777   1.14209   0.91248   0.00000  Uiso   1.00
N41    N     0.97356   1.36836   0.68875   0.00000  Uiso   1.00
C42    C     1.01904   1.22536   0.64516   0.00000  Uiso   1.00
C43    C     1.01669   1.28055   0.59311   0.00000  Uiso   1.00
C44    C     1.01760   1.39344   0.64313   0.00000  Uiso   1.00
C45    C     1.06544   1.47730   0.56373   0.00000  Uiso   1.00
C46    C     1.01773   1.44914   0.54365   0.00000  Uiso   1.00
N47    N     0.04845   1.06107   0.91900   0.00000  Uiso   1.00
C48    C     0.03789   1.11587   0.93891   0.00000  Uiso   1.00
C49    C     0.08666   1.14571   0.94790   0.00000  Uiso   1.00
C50    C     0.10267   1.05607   0.89335   0.00000  Uiso   1.00
C51    C     0.12671   1.10889   0.89899   0.00000  Uiso   1.00
C52    C     1.01645   0.69828   0.80115   0.00000  Uiso   1.00
C53    C     1.04679   0.72430   1.03636   0.00000  Uiso   1.00
C54    C     1.03768   0.77882   1.10432   0.00000  Uiso   1.00
C55    C     1.06489   1.53382   0.52098   0.00000  Uiso   1.00
C56    C     0.99965   0.80920   0.92914   0.00000  Uiso   1.00
C57    C     0.99671   0.86853   0.94861   0.00000  Uiso   1.00
N58    N     1.03143   0.64475   0.72789   0.00000  Uiso   1.00
C59    C     0.96806   0.78228   0.70327   0.00000  Uiso   1.00
C60    C     0.97519   0.72756   0.64588   0.00000  Uiso   1.00
C61    C     1.00489   0.61753   0.51576   0.00000  Uiso   1.00
C62    C     0.97029   0.53060   0.39193   0.00000  Uiso   1.00
C63    C     1.01583   0.56079   0.45869   0.00000  Uiso   1.00
N64    N     0.93531   0.94879   0.94930   0.00000  Uiso   1.00
C65    C     0.94649   0.89416   0.97380   0.00000  Uiso   1.00
C66    C     0.89810   0.86370   0.98708   0.00000  Uiso   1.00
C67    C     0.88105   0.95341   0.93007   0.00000  Uiso   1.00
C68    C     0.85769   0.90012   0.93879   0.00000  Uiso   1.00
O69    O     0.55461   0.88922   0.59476   0.00000  Uiso   1.00
O70    O     0.44751   0.88025   0.57445   0.00000  Uiso   1.00
C71    C     0.60073   0.87876   0.39225   0.00000  Uiso   1.00
C72    C     0.45528   0.84805   0.86390   0.00000  Uiso   1.00
O73    O     1.11270   1.55766   0.54484   0.00000  Uiso   1.00
O74    O     1.11210   1.44853   0.60412   0.00000  Uiso   1.00
C75    C     1.12272   1.60462   0.34833   0.00000  Uiso   1.00
C76    C     1.14239   1.45658   0.89620   0.00000  Uiso   1.00
H77    H     0.29938   1.07535   1.03822   0.00000  Uiso   1.00
H78    H     0.20434   1.06546   1.18531   0.00000  Uiso   1.00
H79    H     0.42941   1.06080   0.39036   0.00000  Uiso   1.00
H80    H     0.18835   0.94920   0.41116   0.00000  Uiso   1.00
H81    H     0.28540   0.94961   0.32028   0.00000  Uiso   1.00
H82    H     0.36341   0.93191   0.60689   0.00000  Uiso   1.00
H83    H     1.17641   0.89553   0.81624   0.00000  Uiso   1.00
H84    H     1.10165   0.82219   0.82000   0.00000  Uiso   1.00
H85    H     0.69050   0.92941   1.17026   0.00000  Uiso   1.00
H86    H     0.78571   0.94436   1.26874   0.00000  Uiso   1.00
H87    H     0.78697   1.05817   0.47694   0.00000  Uiso   1.00
H88    H     0.69156   1.05036   0.41533   0.00000  Uiso   1.00
H89    H     0.61116   1.04197   0.45155   0.00000  Uiso   1.00
H90    H     0.52784   1.07162   0.37390   0.00000  Uiso   1.00
H91    H     0.80794   1.11420   0.82686   0.00000  Uiso   1.00
H92    H     0.88333   1.18648   0.77517   0.00000  Uiso   1.00
H93    H     0.91488   1.31591   1.10731   0.00000  Uiso   1.00
H94    H     0.92369   1.21645   1.22945   0.00000  Uiso   1.00
H95    H     0.93532   0.45162   0.40888   0.00000  Uiso   1.00
H96    H     1.04548   1.19946   0.49840   0.00000  Uiso   1.00
H97    H     1.04105   1.29834   0.40308   0.00000  Uiso   1.00
H98    H     1.05633   1.37330   0.68968   0.00000  Uiso   1.00
H99    H     0.09026   1.18915   0.98043   0.00000  Uiso   1.00
H100   H     0.16819   1.11776   0.86947   0.00000  Uiso   1.00
H101   H     1.07711   0.70052   1.16500   0.00000  Uiso   1.00
H102   H     1.06035   0.79893   1.29243   0.00000  Uiso   1.00
H103   H     0.94018   0.80610   0.55611   0.00000  Uiso   1.00
H104   H     0.95157   0.70899   0.45681   0.00000  Uiso   1.00
H105   H     0.96913   0.63391   0.39342   0.00000  Uiso   1.00
H106   H     0.93392   0.55300   0.32652   0.00000  Uiso   1.00
H107   H     0.89500   0.82021   1.01837   0.00000  Uiso   1.00
H108   H     0.81624   0.89103   0.90958   0.00000  Uiso   1.00
H109   H     0.60138   0.90629   0.18106   0.00000  Uiso   1.00
H110   H     0.59818   0.83649   0.30816   0.00000  Uiso   1.00
H111   H     0.63677   0.88391   0.53740   0.00000  Uiso   1.00
H112   H     0.49265   0.85720   0.98510   0.00000  Uiso   1.00
H113   H     0.45602   0.80525   0.78617   0.00000  Uiso   1.00
H114   H     0.42209   0.85609   1.03386   0.00000  Uiso   1.00
H115   H     1.11874   1.64145   0.49926   0.00000  Uiso   1.00
H116   H     1.09522   1.60775   0.14133   0.00000  Uiso   1.00
H117   H     1.16360   1.59932   0.25800   0.00000  Uiso   1.00
H118   H     1.18448   1.45524   0.82589   0.00000  Uiso   1.00
H119   H     1.13423   1.42378   1.06863   0.00000  Uiso   1.00
H120   H     1.13259   1.49582   1.01158   0.00000  Uiso   1.00
H121   H     0.95588   1.03052   0.94826   0.00000  Uiso   1.00
H122   H     1.02817   0.97956   0.93078   0.00000  Uiso   1.00
loop_
_geom_bond_atom_site_label_1
_geom_bond_atom_site_label_2
_geom_bond_distance
_geom_bond_site_symmetry_2
_ccdc_geom_bond_type
C1     C2      1.398   .     S
C1     N7      1.381   .     S
C1     C9      1.402   .     D
C2     C3      1.378   .     D
C2     H77     1.090   .     S
C3     C5      1.404   .     S
C3     H78     1.086   .     S
C4     C12     1.405   .     D
C4     C28     1.370   .     S
C4     H79     1.088   .     S
C5     C6      1.461   .     S
C5     C8      1.403   .     D
C6     C14     1.399   1_455 S
C6     C50     1.408   .     D
N7     C10     1.295   .     D
C8     C9      1.379   .     S
C8     H80     1.088   .     S
C9     H81     1.089   .     S
C10    C12     1.436   .     S
C10    H82     1.101   .     S
C11    C12     1.405   .     S
C11    C21     1.408   .     D
C11    O70     1.367   .     S
N13    C14     1.373   .     S
N13    C16     1.369   .     S
N13    H122    1.032   .     S
C14    C6      1.399   1_655 S
C14    C15     1.425   .     D
C15    C17     1.365   .     S
C15    H83     1.081   .     S
C16    C17     1.430   .     D
C16    C57     1.400   .     S
C17    H84     1.080   .     S
C18    C19     1.399   .     S
C18    N24     1.389   .     S
C18    C26     1.406   .     D
C19    C20     1.378   .     D
C19    H85     1.089   .     S
C20    C22     1.403   .     S
C20    H86     1.087   .     S
C21    C29     1.417   .     S
C21    O69     1.364   .     S
C22    C23     1.461   .     S
C22    C25     1.405   .     D
C23    C31     1.404   .     S
C23    C67     1.415   .     D
N24    C27     1.296   .     D
C25    C26     1.382   .     S
C25    H87     1.087   .     S
C26    H88     1.088   .     S
C27    C29     1.438   .     S
C27    H89     1.104   .     S
C28    C29     1.412   .     D
C28    H90     1.091   .     S
N30    C31     1.375   .     S
N30    C33     1.371   .     S
N30    H121    1.031   .     S
C31    C32     1.425   .     D
C32    C34     1.364   .     S
C32    H91     1.080   .     S
C33    C34     1.430   .     D
C33    C40     1.401   .     S
C34    H92     1.080   .     S
C35    C36     1.400   .     S
C35    N41     1.385   .     D
C35    C43     1.405   .     S
C36    C37     1.384   .     D
C36    H93     1.089   .     S
C37    C39     1.405   .     S
C37    H94     1.089   .     S
C38    C46     1.407   1_545 S
C38    C62     1.368   .     D
C38    H95     1.088   .     S
C39    C40     1.467   .     D
C39    C42     1.400   .     S
C40    C48     1.407   1_655 S
N41    C44     1.298   .     S
C42    C43     1.374   .     D
C42    H96     1.087   .     S
C43    H97     1.089   .     S
C44    C46     1.431   .     D
C44    H98     1.100   .     S
C45    C46     1.407   .     S
C45    C55     1.401   .     D
C45    O74     1.366   .     S
C46    C38     1.407   1_565 S
N47    C48     1.369   .     D
N47    C50     1.372   .     S
C48    C40     1.407   1_455 S
C48    C49     1.450   .     S
C49    C51     1.351   .     D
C49    H99     1.083   .     S
C50    C51     1.449   .     S
C51    H100    1.080   .     S
C52    C53     1.399   .     S
C52    N58     1.392   .     D
C52    C60     1.404   .     S
C53    C54     1.382   .     D
C53    H101    1.088   .     S
C54    C56     1.401   .     S
C54    H102    1.088   .     S
C55    C63     1.411   1_565 S
C55    O73     1.359   .     S
C56    C57     1.461   .     D
C56    C59     1.402   .     S
C57    C65     1.401   .     S
N58    C61     1.297   .     S
C59    C60     1.373   .     D
C59    H103    1.088   .     S
C60    H104    1.087   .     S
C61    C63     1.434   .     D
C61    H105    1.101   .     S
C62    C63     1.412   .     S
C62    H106    1.091   .     S
C63    C55     1.411   1_545 S
N64    C65     1.369   .     D
N64    C67     1.372   .     S
C65    C66     1.450   .     S
C66    C68     1.353   .     D
C66    H107    1.083   .     S
C67    C68     1.453   .     S
C68    H108    1.081   .     S
O69    C71     1.442   .     S
O70    C72     1.439   .     S
C71    H109    1.101   .     S
C71    H110    1.099   .     S
C71    H111    1.099   .     S
C72    H112    1.096   .     S
C72    H113    1.099   .     S
C72    H114    1.099   .     S
O73    C75     1.437   .     S
O74    C76     1.440   .     S
C75    H115    1.098   .     S
C75    H116    1.100   .     S
C75    H117    1.097   .     S
C76    H118    1.097   .     S
C76    H119    1.097   .     S
C76    H120    1.096   .     S
