data_22
_audit_creation_date              2023-09-08
_audit_creation_method            'Materials Studio'
_symmetry_space_group_name_H-M    'P1'
_symmetry_Int_Tables_number       1
_symmetry_cell_setting            triclinic
loop_
_symmetry_equiv_pos_as_xyz
  x,y,z
_cell_length_a                    37.5387
_cell_length_b                    37.5387
_cell_length_c                    4.6000
_cell_angle_alpha                 90.0000
_cell_angle_beta                  90.0000
_cell_angle_gamma                 120.0000
loop_
_atom_site_label
_atom_site_type_symbol
_atom_site_fract_x
_atom_site_fract_y
_atom_site_fract_z
_atom_site_U_iso_or_equiv
_atom_site_adp_type
_atom_site_occupancy
C1     C     0.48119   0.48264   0.50353   0.00000  Uiso   1.00
C2     C     0.44323   0.48398   0.51924   0.00000  Uiso   1.00
C3     C     0.41075   0.45921   0.33080   0.00000  Uiso   1.00
C4     C     0.37491   0.46025   0.34184   0.00000  Uiso   1.00
C5     C     0.37047   0.48528   0.55114   0.00000  Uiso   1.00
C6     C     0.40275   0.50970   0.74198   0.00000  Uiso   1.00
C7     C     0.43856   0.50869   0.72580   0.00000  Uiso   1.00
H8     H     0.46452   0.52740   0.87114   0.00000  Uiso   1.00
C9     C     0.47416   0.44090   0.49302   0.00000  Uiso   1.00
C10    C     0.43946   0.40955   0.63470   0.00000  Uiso   1.00
C11    C     0.42982   0.36929   0.61627   0.00000  Uiso   1.00
C12    C     0.45556   0.35952   0.45853   0.00000  Uiso   1.00
C13    C     0.49039   0.39044   0.31750   0.00000  Uiso   1.00
C14    C     0.49937   0.43040   0.33441   0.00000  Uiso   1.00
N15    N     0.33580   0.48817   0.56396   0.00000  Uiso   1.00
C16    C     0.30116   0.45788   0.48662   0.00000  Uiso   1.00
C17    C     0.26637   0.46321   0.45491   0.00000  Uiso   1.00
C18    C     0.22813   0.42995   0.38412   0.00000  Uiso   1.00
C19    C     0.27128   0.50193   0.50792   0.00000  Uiso   1.00
N20    N     0.44722   0.31976   0.44920   0.00000  Uiso   1.00
C21    C     0.47738   0.31362   0.48766   0.00000  Uiso   1.00
C22    C     0.47299   0.27394   0.45342   0.00000  Uiso   1.00
C23    C     0.50681   0.26916   0.50814   0.00000  Uiso   1.00
C24    C     0.43487   0.24045   0.38233   0.00000  Uiso   1.00
H25    H     0.41499   0.44006   0.16800   0.00000  Uiso   1.00
H26    H     0.35046   0.44322   0.18053   0.00000  Uiso   1.00
H27    H     0.39817   0.52852   0.90534   0.00000  Uiso   1.00
H28    H     0.41990   0.41757   0.76433   0.00000  Uiso   1.00
H29    H     0.40328   0.34503   0.73185   0.00000  Uiso   1.00
H30    H     0.50941   0.38198   0.18512   0.00000  Uiso   1.00
H31    H     0.52673   0.45440   0.22565   0.00000  Uiso   1.00
H32    H     0.29666   0.42693   0.43990   0.00000  Uiso   1.00
H33    H     0.22558   0.40035   0.33361   0.00000  Uiso   1.00
H34    H     0.30208   0.52654   0.56267   0.00000  Uiso   1.00
H35    H     0.50803   0.33908   0.55379   0.00000  Uiso   1.00
H36    H     0.53630   0.29614   0.56261   0.00000  Uiso   1.00
H37    H     0.40993   0.24639   0.33293   0.00000  Uiso   1.00
C38    C     0.51736   0.99855   0.50353   0.00000  Uiso   1.00
C39    C     0.51602   0.95925   0.51924   0.00000  Uiso   1.00
C40    C     0.54079   0.95154   0.33080   0.00000  Uiso   1.00
C41    C     0.53975   0.91466   0.34184   0.00000  Uiso   1.00
C42    C     0.51472   0.88519   0.55114   0.00000  Uiso   1.00
C43    C     0.49030   0.89305   0.74198   0.00000  Uiso   1.00
C44    C     0.49131   0.92987   0.72580   0.00000  Uiso   1.00
H45    H     0.47260   0.93712   0.87114   0.00000  Uiso   1.00
C46    C     0.55910   0.03326   0.49302   0.00000  Uiso   1.00
C47    C     0.59045   0.02991   0.63470   0.00000  Uiso   1.00
C48    C     0.63071   0.06053   0.61627   0.00000  Uiso   1.00
C49    C     0.64048   0.09604   0.45853   0.00000  Uiso   1.00
C50    C     0.60956   0.09995   0.31750   0.00000  Uiso   1.00
C51    C     0.56960   0.06897   0.33441   0.00000  Uiso   1.00
N52    N     0.51183   0.84763   0.56396   0.00000  Uiso   1.00
C53    C     0.54212   0.84328   0.48662   0.00000  Uiso   1.00
C54    C     0.53679   0.80316   0.45491   0.00000  Uiso   1.00
C55    C     0.57005   0.79818   0.38412   0.00000  Uiso   1.00
C56    C     0.49807   0.76935   0.50792   0.00000  Uiso   1.00
N57    N     0.68024   0.12746   0.44920   0.00000  Uiso   1.00
C58    C     0.68638   0.16376   0.48766   0.00000  Uiso   1.00
C59    C     0.72606   0.19905   0.45342   0.00000  Uiso   1.00
C60    C     0.73084   0.23765   0.50814   0.00000  Uiso   1.00
C61    C     0.75955   0.19442   0.38233   0.00000  Uiso   1.00
H62    H     0.55994   0.97493   0.16800   0.00000  Uiso   1.00
H63    H     0.55678   0.90724   0.18053   0.00000  Uiso   1.00
H64    H     0.47148   0.86965   0.90534   0.00000  Uiso   1.00
H65    H     0.58243   0.00233   0.76433   0.00000  Uiso   1.00
H66    H     0.65497   0.05825   0.73185   0.00000  Uiso   1.00
H67    H     0.61802   0.12743   0.18512   0.00000  Uiso   1.00
H68    H     0.54560   0.07233   0.22565   0.00000  Uiso   1.00
H69    H     0.57307   0.86973   0.43990   0.00000  Uiso   1.00
H70    H     0.59965   0.82523   0.33361   0.00000  Uiso   1.00
H71    H     0.47346   0.77554   0.56267   0.00000  Uiso   1.00
H72    H     0.66092   0.16895   0.55379   0.00000  Uiso   1.00
H73    H     0.70386   0.24016   0.56261   0.00000  Uiso   1.00
H74    H     0.75361   0.16354   0.33293   0.00000  Uiso   1.00
C75    C     0.00145   0.51881   0.50353   0.00000  Uiso   1.00
C76    C     0.04075   0.55677   0.51924   0.00000  Uiso   1.00
C77    C     0.04846   0.58925   0.33080   0.00000  Uiso   1.00
C78    C     0.08534   0.62509   0.34184   0.00000  Uiso   1.00
C79    C     0.11481   0.62953   0.55114   0.00000  Uiso   1.00
C80    C     0.10695   0.59725   0.74198   0.00000  Uiso   1.00
C81    C     0.07013   0.56144   0.72580   0.00000  Uiso   1.00
H82    H     0.06288   0.53548   0.87114   0.00000  Uiso   1.00
C83    C     0.96674   0.52584   0.49302   0.00000  Uiso   1.00
C84    C     0.97009   0.56054   0.63470   0.00000  Uiso   1.00
C85    C     0.93947   0.57018   0.61627   0.00000  Uiso   1.00
C86    C     0.90396   0.54444   0.45853   0.00000  Uiso   1.00
C87    C     0.90005   0.50961   0.31750   0.00000  Uiso   1.00
C88    C     0.93103   0.50063   0.33441   0.00000  Uiso   1.00
N89    N     0.15237   0.66420   0.56396   0.00000  Uiso   1.00
C90    C     0.15672   0.69884   0.48662   0.00000  Uiso   1.00
C91    C     0.19684   0.73363   0.45491   0.00000  Uiso   1.00
C92    C     0.20182   0.77187   0.38412   0.00000  Uiso   1.00
C93    C     0.23065   0.72872   0.50792   0.00000  Uiso   1.00
N94    N     0.87254   0.55278   0.44920   0.00000  Uiso   1.00
C95    C     0.83624   0.52262   0.48766   0.00000  Uiso   1.00
C96    C     0.80095   0.52701   0.45342   0.00000  Uiso   1.00
C97    C     0.76235   0.49319   0.50814   0.00000  Uiso   1.00
C98    C     0.80558   0.56513   0.38233   0.00000  Uiso   1.00
H99    H     0.02507   0.58501   0.16800   0.00000  Uiso   1.00
H100   H     0.09276   0.64954   0.18053   0.00000  Uiso   1.00
H101   H     0.13035   0.60183   0.90534   0.00000  Uiso   1.00
H102   H     0.99767   0.58010   0.76433   0.00000  Uiso   1.00
H103   H     0.94175   0.59672   0.73185   0.00000  Uiso   1.00
H104   H     0.87257   0.49059   0.18512   0.00000  Uiso   1.00
H105   H     0.92767   0.47327   0.22565   0.00000  Uiso   1.00
H106   H     0.13027   0.70334   0.43990   0.00000  Uiso   1.00
H107   H     0.17477   0.77442   0.33361   0.00000  Uiso   1.00
H108   H     0.22446   0.69792   0.56267   0.00000  Uiso   1.00
H109   H     0.83105   0.49197   0.55379   0.00000  Uiso   1.00
H110   H     0.75984   0.46370   0.56261   0.00000  Uiso   1.00
H111   H     0.83646   0.59007   0.33293   0.00000  Uiso   1.00
C112   C     0.51881   0.51736   0.50353   0.00000  Uiso   1.00
C113   C     0.55677   0.51602   0.51924   0.00000  Uiso   1.00
C114   C     0.58925   0.54079   0.33080   0.00000  Uiso   1.00
C115   C     0.62509   0.53975   0.34184   0.00000  Uiso   1.00
C116   C     0.62953   0.51472   0.55114   0.00000  Uiso   1.00
C117   C     0.59725   0.49030   0.74198   0.00000  Uiso   1.00
C118   C     0.56144   0.49131   0.72580   0.00000  Uiso   1.00
H119   H     0.53548   0.47260   0.87114   0.00000  Uiso   1.00
C120   C     0.52584   0.55910   0.49302   0.00000  Uiso   1.00
C121   C     0.56054   0.59045   0.63470   0.00000  Uiso   1.00
C122   C     0.57018   0.63071   0.61627   0.00000  Uiso   1.00
C123   C     0.54444   0.64048   0.45853   0.00000  Uiso   1.00
C124   C     0.50961   0.60956   0.31750   0.00000  Uiso   1.00
C125   C     0.50063   0.56960   0.33441   0.00000  Uiso   1.00
N126   N     0.66420   0.51183   0.56396   0.00000  Uiso   1.00
C127   C     0.69884   0.54212   0.48662   0.00000  Uiso   1.00
C128   C     0.73363   0.53679   0.45491   0.00000  Uiso   1.00
C129   C     0.77187   0.57005   0.38412   0.00000  Uiso   1.00
C130   C     0.72872   0.49807   0.50792   0.00000  Uiso   1.00
N131   N     0.55278   0.68024   0.44920   0.00000  Uiso   1.00
C132   C     0.52262   0.68638   0.48766   0.00000  Uiso   1.00
C133   C     0.52701   0.72606   0.45342   0.00000  Uiso   1.00
C134   C     0.49319   0.73084   0.50814   0.00000  Uiso   1.00
C135   C     0.56513   0.75955   0.38233   0.00000  Uiso   1.00
H136   H     0.58501   0.55994   0.16800   0.00000  Uiso   1.00
H137   H     0.64954   0.55678   0.18053   0.00000  Uiso   1.00
H138   H     0.60183   0.47148   0.90534   0.00000  Uiso   1.00
H139   H     0.58010   0.58243   0.76433   0.00000  Uiso   1.00
H140   H     0.59672   0.65497   0.73185   0.00000  Uiso   1.00
H141   H     0.49059   0.61802   0.18512   0.00000  Uiso   1.00
H142   H     0.47327   0.54560   0.22565   0.00000  Uiso   1.00
H143   H     0.70334   0.57307   0.43990   0.00000  Uiso   1.00
H144   H     0.77442   0.59965   0.33361   0.00000  Uiso   1.00
H145   H     0.69792   0.47346   0.56267   0.00000  Uiso   1.00
H146   H     0.49197   0.66092   0.55379   0.00000  Uiso   1.00
H147   H     0.46370   0.70386   0.56261   0.00000  Uiso   1.00
H148   H     0.59007   0.75361   0.33293   0.00000  Uiso   1.00
C149   C     0.48264   0.00145   0.50353   0.00000  Uiso   1.00
C150   C     0.48398   0.04075   0.51924   0.00000  Uiso   1.00
C151   C     0.45921   0.04846   0.33080   0.00000  Uiso   1.00
C152   C     0.46025   0.08534   0.34184   0.00000  Uiso   1.00
C153   C     0.48528   0.11481   0.55114   0.00000  Uiso   1.00
C154   C     0.50970   0.10695   0.74198   0.00000  Uiso   1.00
C155   C     0.50869   0.07013   0.72580   0.00000  Uiso   1.00
H156   H     0.52740   0.06288   0.87114   0.00000  Uiso   1.00
C157   C     0.44090   0.96674   0.49302   0.00000  Uiso   1.00
C158   C     0.40955   0.97009   0.63470   0.00000  Uiso   1.00
C159   C     0.36929   0.93947   0.61627   0.00000  Uiso   1.00
C160   C     0.35952   0.90396   0.45853   0.00000  Uiso   1.00
C161   C     0.39044   0.90005   0.31750   0.00000  Uiso   1.00
C162   C     0.43040   0.93103   0.33441   0.00000  Uiso   1.00
N163   N     0.48817   0.15237   0.56396   0.00000  Uiso   1.00
C164   C     0.45788   0.15672   0.48662   0.00000  Uiso   1.00
C165   C     0.46321   0.19684   0.45491   0.00000  Uiso   1.00
C166   C     0.42995   0.20182   0.38412   0.00000  Uiso   1.00
C167   C     0.50193   0.23065   0.50792   0.00000  Uiso   1.00
N168   N     0.31976   0.87254   0.44920   0.00000  Uiso   1.00
C169   C     0.31362   0.83624   0.48766   0.00000  Uiso   1.00
C170   C     0.27394   0.80095   0.45342   0.00000  Uiso   1.00
C171   C     0.26916   0.76235   0.50814   0.00000  Uiso   1.00
C172   C     0.24045   0.80558   0.38233   0.00000  Uiso   1.00
H173   H     0.44006   0.02507   0.16800   0.00000  Uiso   1.00
H174   H     0.44322   0.09276   0.18053   0.00000  Uiso   1.00
H175   H     0.52852   0.13035   0.90534   0.00000  Uiso   1.00
H176   H     0.41757   0.99767   0.76433   0.00000  Uiso   1.00
H177   H     0.34503   0.94175   0.73185   0.00000  Uiso   1.00
H178   H     0.38198   0.87257   0.18512   0.00000  Uiso   1.00
H179   H     0.45440   0.92767   0.22565   0.00000  Uiso   1.00
H180   H     0.42693   0.13027   0.43990   0.00000  Uiso   1.00
H181   H     0.40035   0.17477   0.33361   0.00000  Uiso   1.00
H182   H     0.52654   0.22446   0.56267   0.00000  Uiso   1.00
H183   H     0.33908   0.83105   0.55379   0.00000  Uiso   1.00
H184   H     0.29614   0.75984   0.56261   0.00000  Uiso   1.00
H185   H     0.24639   0.83646   0.33293   0.00000  Uiso   1.00
C186   C     0.99855   0.48119   0.50353   0.00000  Uiso   1.00
C187   C     0.95925   0.44323   0.51924   0.00000  Uiso   1.00
C188   C     0.95154   0.41075   0.33080   0.00000  Uiso   1.00
C189   C     0.91466   0.37491   0.34184   0.00000  Uiso   1.00
C190   C     0.88519   0.37047   0.55114   0.00000  Uiso   1.00
C191   C     0.89305   0.40275   0.74198   0.00000  Uiso   1.00
C192   C     0.92987   0.43856   0.72580   0.00000  Uiso   1.00
H193   H     0.93712   0.46452   0.87114   0.00000  Uiso   1.00
C194   C     0.03326   0.47416   0.49302   0.00000  Uiso   1.00
C195   C     0.02991   0.43946   0.63470   0.00000  Uiso   1.00
C196   C     0.06053   0.42982   0.61627   0.00000  Uiso   1.00
C197   C     0.09604   0.45556   0.45853   0.00000  Uiso   1.00
C198   C     0.09995   0.49039   0.31750   0.00000  Uiso   1.00
C199   C     0.06897   0.49937   0.33441   0.00000  Uiso   1.00
N200   N     0.84763   0.33580   0.56396   0.00000  Uiso   1.00
C201   C     0.84328   0.30116   0.48662   0.00000  Uiso   1.00
C202   C     0.80316   0.26637   0.45491   0.00000  Uiso   1.00
C203   C     0.79818   0.22813   0.38412   0.00000  Uiso   1.00
C204   C     0.76935   0.27128   0.50792   0.00000  Uiso   1.00
N205   N     0.12746   0.44722   0.44920   0.00000  Uiso   1.00
C206   C     0.16376   0.47738   0.48766   0.00000  Uiso   1.00
C207   C     0.19905   0.47299   0.45342   0.00000  Uiso   1.00
C208   C     0.23765   0.50681   0.50814   0.00000  Uiso   1.00
C209   C     0.19442   0.43487   0.38233   0.00000  Uiso   1.00
H210   H     0.97493   0.41499   0.16800   0.00000  Uiso   1.00
H211   H     0.90724   0.35046   0.18053   0.00000  Uiso   1.00
H212   H     0.86965   0.39817   0.90534   0.00000  Uiso   1.00
H213   H     0.00233   0.41990   0.76433   0.00000  Uiso   1.00
H214   H     0.05825   0.40328   0.73185   0.00000  Uiso   1.00
H215   H     0.12743   0.50941   0.18512   0.00000  Uiso   1.00
H216   H     0.07233   0.52673   0.22565   0.00000  Uiso   1.00
H217   H     0.86973   0.29666   0.43990   0.00000  Uiso   1.00
H218   H     0.82523   0.22558   0.33361   0.00000  Uiso   1.00
H219   H     0.77554   0.30208   0.56267   0.00000  Uiso   1.00
H220   H     0.16895   0.50803   0.55379   0.00000  Uiso   1.00
H221   H     0.24016   0.53630   0.56261   0.00000  Uiso   1.00
H222   H     0.16354   0.40993   0.33293   0.00000  Uiso   1.00
loop_
_geom_bond_atom_site_label_1
_geom_bond_atom_site_label_2
_geom_bond_distance
_geom_bond_site_symmetry_2
_ccdc_geom_bond_type
C1     C2      1.453   .     D
C1     C9      1.454   .     S
C1     C112    1.361   .     S
C2     C3      1.403   .     S
C2     C7      1.399   .     S
C3     C4      1.366   .     D
C3     H25     1.103   .     S
C4     C5      1.412   .     S
C4     H26     1.102   .     S
C5     C6      1.403   .     S
C5     N15     1.360   .     D
C6     C7      1.366   .     D
C6     H27     1.102   .     S
C7     H8      1.098   .     S
C9     C10     1.405   .     D
C9     C14     1.399   .     S
C10    C11     1.369   .     S
C10    H28     1.098   .     S
C11    C12     1.396   .     D
C11    H29     1.094   .     S
C12    C13     1.400   .     S
C12    N20     1.364   .     S
C13    C14     1.365   .     D
C13    H30     1.099   .     S
C14    H31     1.092   .     S
N15    C16     1.277   .     S
C16    C17     1.424   .     D
C16    H32     1.108   .     S
C17    C18     1.390   .     S
C17    C19     1.392   .     S
C18    H33     1.092   .     S
C18    C209    1.367   .     D
C19    H34     1.089   .     S
C19    C208    1.363   .     D
N20    C21     1.276   .     D
C21    C22     1.423   .     S
C21    H35     1.109   .     S
C22    C23     1.391   .     D
C22    C24     1.391   .     S
C23    H36     1.092   .     S
C23    C167    1.363   .     S
C24    H37     1.089   .     S
C24    C166    1.367   .     D
C38    C39     1.453   .     D
C38    C46     1.454   1_565 S
C38    C149    1.361   1_565 S
C39    C40     1.403   .     S
C39    C44     1.399   .     S
C40    C41     1.366   .     D
C40    H62     1.103   .     S
C41    C42     1.412   .     S
C41    H63     1.102   .     S
C42    C43     1.403   .     S
C42    N52     1.360   .     D
C43    C44     1.366   .     D
C43    H64     1.102   .     S
C44    H45     1.098   .     S
C46    C38     1.454   1_545 S
C46    C47     1.405   .     D
C46    C51     1.399   .     S
C47    C48     1.369   .     S
C47    H65     1.098   .     S
C48    C49     1.396   .     D
C48    H66     1.094   .     S
C49    C50     1.400   .     S
C49    N57     1.364   .     S
C50    C51     1.365   .     D
C50    H67     1.099   .     S
C51    H68     1.092   .     S
N52    C53     1.277   .     S
C53    C54     1.424   .     D
C53    H69     1.108   .     S
C54    C55     1.390   .     S
C54    C56     1.392   .     S
C55    H70     1.092   .     S
C55    C135    1.367   .     D
C56    H71     1.089   .     S
C56    C134    1.363   .     D
N57    C58     1.276   .     D
C58    C59     1.423   .     S
C58    H72     1.109   .     S
C59    C60     1.391   .     S
C59    C61     1.391   .     D
C60    H73     1.092   .     S
C60    C204    1.363   .     D
C61    H74     1.089   .     S
C61    C203    1.367   .     S
C75    C76     1.453   .     D
C75    C83     1.454   1_455 S
C75    C186    1.361   1_455 S
C76    C77     1.403   .     S
C76    C81     1.399   .     S
C77    C78     1.366   .     D
C77    H99     1.103   .     S
C78    C79     1.412   .     S
C78    H100    1.102   .     S
C79    C80     1.403   .     S
C79    N89     1.360   .     D
C80    C81     1.366   .     D
C80    H101    1.102   .     S
C81    H82     1.098   .     S
C83    C75     1.454   1_655 S
C83    C84     1.405   .     D
C83    C88     1.399   .     S
C84    C85     1.369   .     S
C84    H102    1.098   .     S
C85    C86     1.396   .     D
C85    H103    1.094   .     S
C86    C87     1.400   .     S
C86    N94     1.364   .     S
C87    C88     1.365   .     D
C87    H104    1.099   .     S
C88    H105    1.092   .     S
N89    C90     1.277   .     S
C90    C91     1.424   .     D
C90    H106    1.108   .     S
C91    C92     1.390   .     S
C91    C93     1.392   .     S
C92    H107    1.092   .     S
C92    C172    1.367   .     D
C93    H108    1.089   .     S
C93    C171    1.363   .     D
N94    C95     1.276   .     D
C95    C96     1.423   .     S
C95    H109    1.109   .     S
C96    C97     1.391   .     D
C96    C98     1.391   .     S
C97    H110    1.092   .     S
C97    C130    1.363   .     S
C98    H111    1.089   .     S
C98    C129    1.367   .     D
C112   C113    1.453   .     S
C112   C120    1.454   .     D
C113   C114    1.403   .     S
C113   C118    1.399   .     D
C114   C115    1.366   .     D
C114   H136    1.103   .     S
C115   C116    1.412   .     S
C115   H137    1.102   .     S
C116   C117    1.403   .     D
C116   N126    1.360   .     S
C117   C118    1.366   .     S
C117   H138    1.102   .     S
C118   H119    1.098   .     S
C120   C121    1.405   .     S
C120   C125    1.399   .     S
C121   C122    1.369   .     D
C121   H139    1.098   .     S
C122   C123    1.396   .     S
C122   H140    1.094   .     S
C123   C124    1.400   .     S
C123   N131    1.364   .     D
C124   C125    1.365   .     D
C124   H141    1.099   .     S
C125   H142    1.092   .     S
N126   C127    1.277   .     D
C127   C128    1.424   .     S
C127   H143    1.108   .     S
C128   C129    1.390   .     S
C128   C130    1.392   .     D
C129   H144    1.092   .     S
C130   H145    1.089   .     S
N131   C132    1.276   .     S
C132   C133    1.423   .     D
C132   H146    1.109   .     S
C133   C134    1.391   .     S
C133   C135    1.391   .     S
C134   H147    1.092   .     S
C135   H148    1.089   .     S
C149   C38     1.361   1_545 S
C149   C150    1.453   .     S
C149   C157    1.454   1_545 D
C150   C151    1.403   .     D
C150   C155    1.399   .     S
C151   C152    1.366   .     S
C151   H173    1.103   .     S
C152   C153    1.412   .     D
C152   H174    1.102   .     S
C153   C154    1.403   .     S
C153   N163    1.360   .     S
C154   C155    1.366   .     D
C154   H175    1.102   .     S
C155   H156    1.098   .     S
C157   C149    1.454   1_565 D
C157   C158    1.405   .     S
C157   C162    1.399   .     S
C158   C159    1.369   .     D
C158   H176    1.098   .     S
C159   C160    1.396   .     S
C159   H177    1.094   .     S
C160   C161    1.400   .     S
C160   N168    1.364   .     D
C161   C162    1.365   .     D
C161   H178    1.099   .     S
C162   H179    1.092   .     S
N163   C164    1.277   .     D
C164   C165    1.424   .     S
C164   H180    1.108   .     S
C165   C166    1.390   .     S
C165   C167    1.392   .     D
C166   H181    1.092   .     S
C167   H182    1.089   .     S
N168   C169    1.276   .     S
C169   C170    1.423   .     D
C169   H183    1.109   .     S
C170   C171    1.391   .     S
C170   C172    1.391   .     S
C171   H184    1.092   .     S
C172   H185    1.089   .     S
C186   C75     1.361   1_655 S
C186   C187    1.453   .     S
C186   C194    1.454   1_655 D
C187   C188    1.403   .     D
C187   C192    1.399   .     S
C188   C189    1.366   .     S
C188   H210    1.103   .     S
C189   C190    1.412   .     D
C189   H211    1.102   .     S
C190   C191    1.403   .     S
C190   N200    1.360   .     S
C191   C192    1.366   .     D
C191   H212    1.102   .     S
C192   H193    1.098   .     S
C194   C186    1.454   1_455 D
C194   C195    1.405   .     S
C194   C199    1.399   .     S
C195   C196    1.369   .     D
C195   H213    1.098   .     S
C196   C197    1.396   .     S
C196   H214    1.094   .     S
C197   C198    1.400   .     S
C197   N205    1.364   .     D
C198   C199    1.365   .     D
C198   H215    1.099   .     S
C199   H216    1.092   .     S
N200   C201    1.277   .     D
C201   C202    1.424   .     S
C201   H217    1.108   .     S
C202   C203    1.390   .     D
C202   C204    1.392   .     S
C203   H218    1.092   .     S
C204   H219    1.089   .     S
N205   C206    1.276   .     S
C206   C207    1.423   .     D
C206   H220    1.109   .     S
C207   C208    1.391   .     S
C207   C209    1.391   .     S
C208   H221    1.092   .     S
C209   H222    1.089   .     S
