data_220
_audit_creation_date              2023-09-08
_audit_creation_method            'Materials Studio'
_symmetry_space_group_name_H-M    'P1'
_symmetry_Int_Tables_number       1
_symmetry_cell_setting            triclinic
loop_
_symmetry_equiv_pos_as_xyz
  x,y,z
_cell_length_a                    37.6199
_cell_length_b                    37.6063
_cell_length_c                    3.5100
_cell_angle_alpha                 90.0145
_cell_angle_beta                  89.9413
_cell_angle_gamma                 120.0466
loop_
_atom_site_label
_atom_site_type_symbol
_atom_site_fract_x
_atom_site_fract_y
_atom_site_fract_z
_atom_site_U_iso_or_equiv
_atom_site_adp_type
_atom_site_occupancy
C1     C     0.47973   0.51374  -0.01998   0.00000  Uiso   1.00
C2     C     0.46374   0.47098  -0.00429   0.00000  Uiso   1.00
C3     C     0.48859   0.45519   0.11702   0.00000  Uiso   1.00
C4     C     0.53016   0.48163   0.20184   0.00000  Uiso   1.00
C5     C     0.54793   0.52423   0.12792   0.00000  Uiso   1.00
C6     C     0.52196   0.54003   0.04384   0.00000  Uiso   1.00
O7     O     0.59033   0.55247   0.17244   0.00000  Uiso   1.00
C8     C     0.62015   0.54421  -0.00554   0.00000  Uiso   1.00
O9     O     0.42568   0.44471  -0.17064   0.00000  Uiso   1.00
C10    C     0.39342   0.41809   0.08105   0.00000  Uiso   1.00
C11    C     0.55569   0.46581   0.36200   0.00000  Uiso   1.00
C12    C     0.45158   0.52997  -0.09661   0.00000  Uiso   1.00
N13    N     0.46232   0.56812  -0.02648   0.00000  Uiso   1.00
N14    N     0.54530   0.42719   0.34292   0.00000  Uiso   1.00
C15    C     0.43649   0.58640  -0.05886   0.00000  Uiso   1.00
C16    C     0.57238   0.41100   0.40789   0.00000  Uiso   1.00
C17    C     0.55545   0.36954   0.50490   0.00000  Uiso   1.00
C18    C     0.57979   0.35099   0.51239   0.00000  Uiso   1.00
C19    C     0.62160   0.37304   0.40663   0.00000  Uiso   1.00
C20    C     0.63864   0.41510   0.31897   0.00000  Uiso   1.00
C21    C     0.61458   0.43390   0.32452   0.00000  Uiso   1.00
C22    C     0.45218   0.62688   0.06530   0.00000  Uiso   1.00
C23    C     0.42811   0.64573   0.05707   0.00000  Uiso   1.00
C24    C     0.38750   0.62472  -0.08302   0.00000  Uiso   1.00
C25    C     0.37210   0.58416  -0.21407   0.00000  Uiso   1.00
C26    C     0.39602   0.56518  -0.20032   0.00000  Uiso   1.00
C27    C     0.64642   0.35182   0.36476   0.00000  Uiso   1.00
C28    C     0.36170   0.64504  -0.10426   0.00000  Uiso   1.00
C29    C     0.68925   0.37358   0.39405   0.00000  Uiso   1.00
C30    C     0.31332   0.68197  -0.20818   0.00000  Uiso   1.00
C31    C     0.47157   0.95497  -0.08398   0.00000  Uiso   1.00
C32    C     0.51121   0.98513  -0.20075   0.00000  Uiso   1.00
C33    C     0.52420   0.02698  -0.15237   0.00000  Uiso   1.00
C34    C     0.49785   0.04053  -0.01030   0.00000  Uiso   1.00
C35    C     0.45605   0.01078   0.05235   0.00000  Uiso   1.00
C36    C     0.44374   0.96697   0.03715   0.00000  Uiso   1.00
O37    O     0.42549   0.02005   0.15386   0.00000  Uiso   1.00
C38    C     0.42212   0.04990  -0.07102   0.00000  Uiso   1.00
O39    O     0.53494   0.97453  -0.43175   0.00000  Uiso   1.00
C40    C     0.56187   0.96426  -0.23959   0.00000  Uiso   1.00
C41    C     0.51438   0.08497   0.07320   0.00000  Uiso   1.00
C42    C     0.45975   0.91126  -0.07055   0.00000  Uiso   1.00
N43    N     0.42235   0.88281  -0.14418   0.00000  Uiso   1.00
N44    N     0.55290   0.11119   0.01400   0.00000  Uiso   1.00
C45    C     0.40766   0.83946  -0.13964   0.00000  Uiso   1.00
C46    C     0.57448   0.15495   0.07068   0.00000  Uiso   1.00
C47    C     0.61480   0.17681  -0.05619   0.00000  Uiso   1.00
C48    C     0.63750   0.21937  -0.02147   0.00000  Uiso   1.00
C49    C     0.62260   0.24216   0.16381   0.00000  Uiso   1.00
C50    C     0.58132   0.21949   0.29522   0.00000  Uiso   1.00
C51    C     0.55727   0.17673   0.24074   0.00000  Uiso   1.00
C52    C     0.36700   0.81296  -0.03411   0.00000  Uiso   1.00
C53    C     0.35092   0.77054  -0.03464   0.00000  Uiso   1.00
C54    C     0.37458   0.75314  -0.15956   0.00000  Uiso   1.00
C55    C     0.41562   0.78013  -0.26953   0.00000  Uiso   1.00
C56    C     0.43214   0.82286  -0.25581   0.00000  Uiso   1.00
C57    C     0.64887   0.28856   0.22395   0.00000  Uiso   1.00
C58    C     0.35604   0.70723  -0.16936   0.00000  Uiso   1.00
C59    C     0.62724   0.31004   0.27094   0.00000  Uiso   1.00
C60    C     0.31837   0.62125  -0.10170   0.00000  Uiso   1.00
C61    C     0.04586   0.52896  -0.13785   0.00000  Uiso   1.00
C62    C     0.01820   0.54319  -0.19552   0.00000  Uiso   1.00
C63    C     0.97382   0.51579  -0.11978   0.00000  Uiso   1.00
C64    C     0.95814   0.47425  -0.02806   0.00000  Uiso   1.00
C65    C     0.98569   0.45877  -0.02126   0.00000  Uiso   1.00
C66    C     0.03032   0.48759  -0.04734   0.00000  Uiso   1.00
O67    O     0.97363   0.41731   0.03985   0.00000  Uiso   1.00
C68    C     0.94176   0.38744  -0.19692   0.00000  Uiso   1.00
O69    O     0.03093   0.57994  -0.39132   0.00000  Uiso   1.00
C70    C     0.03649   0.61332  -0.15976   0.00000  Uiso   1.00
C71    C     0.91381   0.44753   0.06224   0.00000  Uiso   1.00
C72    C     0.09081   0.55756  -0.16225   0.00000  Uiso   1.00
N73    N     0.11647   0.54386  -0.16591   0.00000  Uiso   1.00
N74    N     0.88843   0.46161   0.07956   0.00000  Uiso   1.00
C75    C     0.16062   0.56853  -0.16532   0.00000  Uiso   1.00
C76    C     0.84524   0.43673   0.16645   0.00000  Uiso   1.00
C77    C     0.81776   0.44961   0.05106   0.00000  Uiso   1.00
C78    C     0.77515   0.42359   0.09583   0.00000  Uiso   1.00
C79    C     0.75906   0.38442   0.26603   0.00000  Uiso   1.00
C80    C     0.78740   0.37475   0.42132   0.00000  Uiso   1.00
C81    C     0.82947   0.39924   0.36029   0.00000  Uiso   1.00
C82    C     0.18375   0.55052  -0.27884   0.00000  Uiso   1.00
C83    C     0.22678   0.57314  -0.27793   0.00000  Uiso   1.00
C84    C     0.24779   0.61430  -0.15397   0.00000  Uiso   1.00
C85    C     0.22423   0.63176  -0.02837   0.00000  Uiso   1.00
C86    C     0.18136   0.60943  -0.03700   0.00000  Uiso   1.00
C87    C     0.71331   0.35574   0.30310   0.00000  Uiso   1.00
C88    C     0.29380   0.63931  -0.15646   0.00000  Uiso   1.00
C89    C     0.69345   0.31238   0.22504   0.00000  Uiso   1.00
C90    C     0.38002   0.68826  -0.12852   0.00000  Uiso   1.00
O91    O     0.71762   2.29707   0.06176   0.00000  Uiso   1.00
C92    C     0.72809   2.27197   0.29128   0.00000  Uiso   1.00
C93    C     0.75554   2.25720   0.09956   0.00000  Uiso   1.00
C94    C     0.79887   2.29178  -0.01287   0.00000  Uiso   1.00
C95    C     0.82762   2.27545   0.06982   0.00000  Uiso   1.00
C96    C     0.79982   2.23137   0.19292   0.00000  Uiso   1.00
N97    N     0.76199   2.22847   0.33112   0.00000  Uiso   1.00
H98    H     0.47553   0.42224   0.13830   0.00000  Uiso   1.00
H99    H     0.53517   0.57294   0.01700   0.00000  Uiso   1.00
H100   H     0.62893   0.56010  -0.27752   0.00000  Uiso   1.00
H101   H     0.61155   0.51058  -0.02746   0.00000  Uiso   1.00
H102   H     0.64929   0.55961   0.15624   0.00000  Uiso   1.00
H103   H     0.40248   0.39897   0.25207   0.00000  Uiso   1.00
H104   H     0.36586   0.39743  -0.09036   0.00000  Uiso   1.00
H105   H     0.38479   0.43647   0.26686   0.00000  Uiso   1.00
H106   H     0.58606   0.48963   0.45029   0.00000  Uiso   1.00
H107   H     0.42043   0.50818  -0.18617   0.00000  Uiso   1.00
H108   H     0.52305   0.35136   0.57063   0.00000  Uiso   1.00
H109   H     0.56539   0.31905   0.59604   0.00000  Uiso   1.00
H110   H     0.67012   0.43341   0.22568   0.00000  Uiso   1.00
H111   H     0.62878   0.46573   0.24000   0.00000  Uiso   1.00
H112   H     0.48304   0.64353   0.17969   0.00000  Uiso   1.00
H113   H     0.44119   0.67635   0.17285   0.00000  Uiso   1.00
H114   H     0.34189   0.56713  -0.34049   0.00000  Uiso   1.00
H115   H     0.38274   0.53438  -0.31076   0.00000  Uiso   1.00
H116   H     0.70450   0.40550   0.47682   0.00000  Uiso   1.00
H117   H     0.29496   0.69571  -0.28057   0.00000  Uiso   1.00
H118   H     0.55531   0.04910  -0.23630   0.00000  Uiso   1.00
H119   H     0.41305   0.94427   0.12614   0.00000  Uiso   1.00
H120   H     0.39201   0.03473  -0.21559   0.00000  Uiso   1.00
H121   H     0.44770   0.06547  -0.28026   0.00000  Uiso   1.00
H122   H     0.42279   0.07388   0.11808   0.00000  Uiso   1.00
H123   H     0.58116   0.98853  -0.03197   0.00000  Uiso   1.00
H124   H     0.58281   0.96239  -0.44945   0.00000  Uiso   1.00
H125   H     0.54452   0.93327  -0.11377   0.00000  Uiso   1.00
H126   H     0.49404   0.09524   0.18037   0.00000  Uiso   1.00
H127   H     0.48202   0.90327   0.03136   0.00000  Uiso   1.00
H128   H     0.62823   0.16070  -0.19666   0.00000  Uiso   1.00
H129   H     0.66662   0.23405  -0.14637   0.00000  Uiso   1.00
H130   H     0.56763   0.23408   0.45590   0.00000  Uiso   1.00
H131   H     0.52613   0.16097   0.34621   0.00000  Uiso   1.00
H132   H     0.34793   0.82538   0.05801   0.00000  Uiso   1.00
H133   H     0.31989   0.75151   0.06905   0.00000  Uiso   1.00
H134   H     0.43478   0.76849  -0.37684   0.00000  Uiso   1.00
H135   H     0.46339   0.84278  -0.34991   0.00000  Uiso   1.00
H136   H     0.59479   0.29443   0.21268   0.00000  Uiso   1.00
H137   H     0.30355   0.58863  -0.04849   0.00000  Uiso   1.00
H138   H     0.95348   0.52826  -0.14769   0.00000  Uiso   1.00
H139   H     0.05091   0.47570  -0.00172   0.00000  Uiso   1.00
H140   H     0.91706   0.36403  -0.01574   0.00000  Uiso   1.00
H141   H     0.95426   0.37141  -0.36584   0.00000  Uiso   1.00
H142   H     0.92806   0.40139  -0.38361   0.00000  Uiso   1.00
H143   H     0.04292   0.63972  -0.34545   0.00000  Uiso   1.00
H144   H     0.06378   0.62303   0.02512   0.00000  Uiso   1.00
H145   H     0.00832   0.60512   0.00841   0.00000  Uiso   1.00
H146   H     0.90240   0.41509   0.10495   0.00000  Uiso   1.00
H147   H     0.10192   0.59023  -0.17137   0.00000  Uiso   1.00
H148   H     0.82921   0.47892  -0.09104   0.00000  Uiso   1.00
H149   H     0.75474   0.43357  -0.01419   0.00000  Uiso   1.00
H150   H     0.77798   0.35058   0.62135   0.00000  Uiso   1.00
H151   H     0.84955   0.38971   0.48717   0.00000  Uiso   1.00
H152   H     0.16842   0.51895  -0.37520   0.00000  Uiso   1.00
H153   H     0.24332   0.55844  -0.38246   0.00000  Uiso   1.00
H154   H     0.23868   0.66258   0.08593   0.00000  Uiso   1.00
H155   H     0.16491   0.62407   0.06981   0.00000  Uiso   1.00
H156   H     0.41294   0.70726  -0.11600   0.00000  Uiso   1.00
H157   H     0.70050   2.24400   0.37815   0.00000  Uiso   1.00
H158   H     0.74382   2.28936   0.53085   0.00000  Uiso   1.00
H159   H     0.73645   2.23879  -0.13415   0.00000  Uiso   1.00
H160   H     0.80203   2.30034  -0.30736   0.00000  Uiso   1.00
H161   H     0.80842   2.32092   0.13755   0.00000  Uiso   1.00
H162   H     0.84996   2.29511   0.28564   0.00000  Uiso   1.00
H163   H     0.84703   2.27641  -0.16661   0.00000  Uiso   1.00
H164   H     0.81507   2.22234   0.40701   0.00000  Uiso   1.00
H165   H     0.79239   2.20956  -0.04285   0.00000  Uiso   1.00
H166   H     0.73752   2.19834   0.29822   0.00000  Uiso   1.00
loop_
_geom_bond_atom_site_label_1
_geom_bond_atom_site_label_2
_geom_bond_distance
_geom_bond_site_symmetry_2
_ccdc_geom_bond_type
C1     C2      1.408   .     D
C1     C6      1.407   .     S
C1     C12     1.488   .     S
C2     C3      1.402   .     S
C2     O9      1.397   .     S
C3     C4      1.402   .     D
C3     H98     1.083   .     S
C4     C5      1.417   .     S
C4     C11     1.472   .     S
C5     C6      1.406   .     D
C5     O7      1.414   .     S
C6     H99     1.082   .     S
O7     C8      1.447   .     S
C8     H100    1.086   .     S
C8     H101    1.140   .     S
C8     H102    1.107   .     S
O9     C10     1.427   .     S
C10    H103    1.113   .     S
C10    H104    1.111   .     S
C10    H105    1.110   .     S
C11    N14     1.303   .     D
C11    H106    1.086   .     S
C12    N13     1.304   .     D
C12    H107    1.087   .     S
N13    C15     1.449   .     S
N14    C16     1.443   .     S
C15    C22     1.399   .     D
C15    C26     1.409   .     S
C16    C17     1.399   .     S
C16    C21     1.406   .     D
C17    C18     1.402   .     D
C17    H108    1.082   .     S
C18    C19     1.411   .     S
C18    H109    1.082   .     S
C19    C20     1.411   .     D
C19    C27     1.509   .     S
C20    C21     1.400   .     S
C20    H110    1.080   .     S
C21    H111    1.080   .     S
C22    C23     1.402   .     S
C22    H112    1.083   .     S
C23    C24     1.412   .     D
C23    H113    1.080   .     S
C24    C25     1.410   .     S
C24    C28     1.508   .     S
C25    C26     1.402   .     D
C25    H114    1.082   .     S
C26    H115    1.078   .     S
C27    C29     1.399   .     S
C27    C59     1.401   .     D
C28    C60     1.413   .     S
C28    C90     1.415   .     D
C29    C87     1.407   .     D
C29    H116    1.079   .     S
C30    C58     1.405   .     D
C30    C88     1.402   .     S
C30    H117    1.080   .     S
C31    C32     1.408   .     S
C31    C36     1.397   .     D
C31    C42     1.473   .     S
C32    C33     1.405   1_565 D
C32    O39     1.403   .     S
C33    C32     1.405   1_545 D
C33    C34     1.413   .     S
C33    H118    1.083   .     S
C34    C35     1.418   .     D
C34    C41     1.492   .     S
C35    C36     1.472   1_545 S
C35    O37     1.404   .     S
C36    C35     1.472   1_565 S
C36    H119    1.082   .     S
O37    C38     1.429   .     S
C38    H120    1.105   .     S
C38    H121    1.115   .     S
C38    H122    1.110   .     S
O39    C40     1.423   .     S
C40    H123    1.108   .     S
C40    H124    1.106   .     S
C40    H125    1.103   .     S
C41    N44     1.298   .     D
C41    H126    1.082   .     S
C42    N43     1.298   .     D
C42    H127    1.083   .     S
N43    C45     1.436   .     S
N44    C46     1.438   .     S
C45    C52     1.394   .     S
C45    C56     1.407   .     D
C46    C47     1.387   .     D
C46    C51     1.406   .     S
C47    C48     1.392   .     S
C47    H128    1.082   .     S
C48    C49     1.397   .     D
C48    H129    1.044   .     S
C49    C50     1.423   .     S
C49    C57     1.530   .     S
C50    C51     1.409   .     D
C50    H130    1.080   .     S
C51    H131    1.079   .     S
C52    C53     1.394   .     D
C52    H132    1.083   .     S
C53    C54     1.412   .     S
C53    H133    1.082   .     S
C54    C55     1.412   .     D
C54    C58     1.504   .     S
C55    C56     1.404   .     S
C55    H134    1.081   .     S
C56    H135    1.082   .     S
C57    C59     1.414   .     S
C57    C89     1.453   .     D
C58    C90     1.410   .     S
C59    H136    1.077   .     S
C60    C88     1.408   .     D
C60    H137    1.080   .     S
C61    C62     1.403   .     D
C61    C66     1.397   .     S
C61    C72     1.484   .     S
C62    C63     1.482   1_455 S
C62    O69     1.396   .     S
C63    C62     1.482   1_655 S
C63    C64     1.403   .     D
C63    H138    1.084   .     S
C64    C65     1.421   .     S
C64    C71     1.487   .     S
C65    C66     1.476   1_655 D
C65    O67     1.405   .     S
C66    C65     1.476   1_455 D
C66    H139    1.083   .     S
O67    C68     1.429   .     S
C68    H140    1.106   .     S
C68    H141    1.104   .     S
C68    H142    1.114   .     S
O69    C70     1.420   .     S
C70    H143    1.108   .     S
C70    H144    1.111   .     S
C70    H145    1.113   .     S
C71    N74     1.305   .     D
C71    H146    1.082   .     S
C72    N73     1.302   .     D
C72    H147    1.082   .     S
N73    C75     1.441   .     S
N74    C76     1.444   .     S
C75    C82     1.401   .     D
C75    C86     1.406   .     S
C76    C77     1.403   .     D
C76    C81     1.402   .     S
C77    C78     1.407   .     S
C77    H148    1.083   .     S
C78    C79     1.414   .     D
C78    H149    1.081   .     S
C79    C80     1.398   .     S
C79    C87     1.511   .     S
C80    C81     1.392   .     D
C80    H150    1.059   .     S
C81    H151    1.081   .     S
C82    C83     1.402   .     S
C82    H152    1.082   .     S
C83    C84     1.409   .     D
C83    H153    1.082   .     S
C84    C85     1.412   .     S
C84    C88     1.500   .     S
C85    C86     1.397   .     D
C85    H154    1.081   .     S
C86    H155    1.080   .     S
C87    C89     1.440   .     S
C89    O91     1.418   1_535 S
C90    H156    1.077   .     S
O91    C89     1.418   1_575 S
O91    C92     1.438   .     S
C92    C93     1.549   .     S
C92    H157    1.088   .     S
C92    H158    1.048   .     S
C93    C94     1.543   .     S
C93    N97     1.466   .     S
C93    H159    1.082   .     S
C94    C95     1.516   .     S
C94    H160    1.071   .     S
C94    H161    1.102   .     S
C95    C96     1.514   .     S
C95    H162    1.098   .     S
C95    H163    1.093   .     S
C96    N97     1.455   .     S
C96    H164    1.098   .     S
C96    H165    1.098   .     S
N97    H166    1.049   .     S
