data_221
_audit_creation_date              2023-09-08
_audit_creation_method            'Materials Studio'
_symmetry_space_group_name_H-M    'P1'
_symmetry_Int_Tables_number       1
_symmetry_cell_setting            triclinic
loop_
_symmetry_equiv_pos_as_xyz
  x,y,z
_cell_length_a                    37.3311
_cell_length_b                    37.3087
_cell_length_c                    3.5200
_cell_angle_alpha                 90.0390
_cell_angle_beta                  89.9905
_cell_angle_gamma                 119.9604
loop_
_atom_site_label
_atom_site_type_symbol
_atom_site_fract_x
_atom_site_fract_y
_atom_site_fract_z
_atom_site_U_iso_or_equiv
_atom_site_adp_type
_atom_site_occupancy
C1     C     0.47744   0.51241   0.02725   0.00000  Uiso   1.00
C2     C     0.46504   0.46986   0.00445   0.00000  Uiso   1.00
C3     C     0.49323   0.45685   0.09591   0.00000  Uiso   1.00
C4     C     0.53371   0.48492   0.21712   0.00000  Uiso   1.00
C5     C     0.54622   0.52756   0.23507   0.00000  Uiso   1.00
C6     C     0.51781   0.54046   0.14932   0.00000  Uiso   1.00
O7     O     0.58547   0.55804   0.36172   0.00000  Uiso   1.00
C8     C     0.62011   0.56421   0.13854   0.00000  Uiso   1.00
O9     O     0.42622   0.43966  -0.13364   0.00000  Uiso   1.00
C10    C     0.39072   0.43334   0.07576   0.00000  Uiso   1.00
C11    C     0.56203   0.46934   0.32313   0.00000  Uiso   1.00
C12    C     0.44940   0.52804  -0.08419   0.00000  Uiso   1.00
N13    N     0.45735   0.56488   0.01350   0.00000  Uiso   1.00
N14    N     0.55004   0.43011   0.30154   0.00000  Uiso   1.00
C15    C     0.43229   0.58348  -0.06139   0.00000  Uiso   1.00
C16    C     0.57608   0.41248   0.36227   0.00000  Uiso   1.00
C17    C     0.55799   0.37122   0.47814   0.00000  Uiso   1.00
C18    C     0.58166   0.35183   0.50790   0.00000  Uiso   1.00
C19    C     0.62387   0.37300   0.40908   0.00000  Uiso   1.00
C20    C     0.64194   0.41464   0.29372   0.00000  Uiso   1.00
C21    C     0.61842   0.43423   0.27316   0.00000  Uiso   1.00
C22    C     0.44835   0.62508   0.03430   0.00000  Uiso   1.00
C23    C     0.42504   0.64463  -0.01793   0.00000  Uiso   1.00
C24    C     0.38492   0.62301  -0.17336   0.00000  Uiso   1.00
C25    C     0.36892   0.58107  -0.27047   0.00000  Uiso   1.00
C26    C     0.39199   0.56135  -0.21117   0.00000  Uiso   1.00
C27    C     0.64817   0.35105   0.40062   0.00000  Uiso   1.00
C28    C     0.36015   0.64400  -0.24186   0.00000  Uiso   1.00
C29    C     0.69063   0.37235   0.46396   0.00000  Uiso   1.00
C30    C     0.31338   0.68214  -0.40933   0.00000  Uiso   1.00
C31    C     0.48427   0.95610  -0.23319   0.00000  Uiso   1.00
C32    C     0.52633   0.98739  -0.25667   0.00000  Uiso   1.00
C33    C     0.53815   0.02852  -0.17141   0.00000  Uiso   1.00
C34    C     0.50986   0.04048  -0.04678   0.00000  Uiso   1.00
C35    C     0.46775   0.01015  -0.01896   0.00000  Uiso   1.00
C36    C     0.45519   0.96695  -0.11000   0.00000  Uiso   1.00
O37    O     0.43712   0.01812   0.11851   0.00000  Uiso   1.00
C38    C     0.43070   0.04742  -0.08804   0.00000  Uiso   1.00
O39    O     0.55756   0.97995  -0.38758   0.00000  Uiso   1.00
C40    C     0.56516   0.95206  -0.17064   0.00000  Uiso   1.00
C41    C     0.52513   0.08418   0.05986   0.00000  Uiso   1.00
C42    C     0.47026   0.91260  -0.33997   0.00000  Uiso   1.00
N43    N     0.43247   0.88369  -0.26889   0.00000  Uiso   1.00
N44    N     0.56130   0.11272  -0.05296   0.00000  Uiso   1.00
C45    C     0.41440   0.83995  -0.33026   0.00000  Uiso   1.00
C46    C     0.58127   0.15643   0.01775   0.00000  Uiso   1.00
C47    C     0.62138   0.18082  -0.11875   0.00000  Uiso   1.00
C48    C     0.64253   0.22359  -0.06585   0.00000  Uiso   1.00
C49    C     0.62623   0.24315   0.15382   0.00000  Uiso   1.00
C50    C     0.58470   0.21854   0.27724   0.00000  Uiso   1.00
C51    C     0.56219   0.17590   0.20324   0.00000  Uiso   1.00
C52    C     0.37317   0.81476  -0.22466   0.00000  Uiso   1.00
C53    C     0.35443   0.77184  -0.24510   0.00000  Uiso   1.00
C54    C     0.37632   0.75273  -0.38068   0.00000  Uiso   1.00
C55    C     0.41757   0.77818  -0.49847   0.00000  Uiso   1.00
C56    C     0.43660   0.82135  -0.47055   0.00000  Uiso   1.00
C57    C     0.65158   0.28838   0.25847   0.00000  Uiso   1.00
C58    C     0.35645   0.70667  -0.37374   0.00000  Uiso   1.00
C59    C     0.62945   0.30967   0.29210   0.00000  Uiso   1.00
C60    C     0.31661   0.62103  -0.24084   0.00000  Uiso   1.00
C61    C     0.04543   0.53208  -0.16977   0.00000  Uiso   1.00
C62    C     0.01745   0.54720  -0.16211   0.00000  Uiso   1.00
C63    C     0.97358   0.51882  -0.06827   0.00000  Uiso   1.00
C64    C     0.95903   0.47726   0.02369   0.00000  Uiso   1.00
C65    C     0.98683   0.46195   0.00740   0.00000  Uiso   1.00
C66    C     0.03065   0.49039  -0.08197   0.00000  Uiso   1.00
O67    O     0.97640   0.42178   0.11964   0.00000  Uiso   1.00
C68    C     0.94647   0.38829  -0.10550   0.00000  Uiso   1.00
O69    O     0.02795   0.58725  -0.27805   0.00000  Uiso   1.00
C70    C     0.05816   0.62094  -0.05661   0.00000  Uiso   1.00
C71    C     0.91527   0.45044   0.13716   0.00000  Uiso   1.00
C72    C     0.08984   0.55901  -0.26252   0.00000  Uiso   1.00
N73    N     0.11553   0.54515  -0.23564   0.00000  Uiso   1.00
N74    N     0.88971   0.46445   0.16655   0.00000  Uiso   1.00
C75    C     0.15955   0.56981  -0.27949   0.00000  Uiso   1.00
C76    C     0.84659   0.43905   0.26032   0.00000  Uiso   1.00
C77    C     0.81831   0.45099   0.13970   0.00000  Uiso   1.00
C78    C     0.77565   0.42370   0.17708   0.00000  Uiso   1.00
C79    C     0.76059   0.38448   0.34783   0.00000  Uiso   1.00
C80    C     0.78926   0.37600   0.51004   0.00000  Uiso   1.00
C81    C     0.83157   0.40150   0.45612   0.00000  Uiso   1.00
C82    C     0.18186   0.55065  -0.39171   0.00000  Uiso   1.00
C83    C     0.22503   0.57325  -0.41566   0.00000  Uiso   1.00
C84    C     0.24685   0.61549  -0.31764   0.00000  Uiso   1.00
C85    C     0.22419   0.63444  -0.19952   0.00000  Uiso   1.00
C86    C     0.18108   0.61195  -0.18221   0.00000  Uiso   1.00
C87    C     0.71531   0.35452   0.38673   0.00000  Uiso   1.00
C88    C     0.29292   0.63967  -0.32856   0.00000  Uiso   1.00
C89    C     0.69598   0.31065   0.31198   0.00000  Uiso   1.00
C90    C     0.37966   0.68706  -0.30367   0.00000  Uiso   1.00
O91    O     0.71930   2.29278   0.16834   0.00000  Uiso   1.00
C92    C     0.72540   2.23082   0.36686   0.00000  Uiso   1.00
C93    C     0.74308   2.27796   0.37939   0.00000  Uiso   1.00
C94    C     0.78831   2.29612   0.25496   0.00000  Uiso   1.00
C95    C     0.79359   2.25972   0.12992   0.00000  Uiso   1.00
N96    N     0.75675   2.22098   0.23633   0.00000  Uiso   1.00
C97    C     0.83367   1.26152   0.24377   0.00000  Uiso   1.00
O98    O     0.83863   1.22740   0.16949   0.00000  Uiso   1.00
O99    O     0.86192   1.29267   0.38796   0.00000  Uiso   1.00
H100   H     0.48301   0.42419   0.07184   0.00000  Uiso   1.00
H101   H     0.52796   0.57312   0.17079   0.00000  Uiso   1.00
H102   H     0.63250   0.59380  -0.01892   0.00000  Uiso   1.00
H103   H     0.61231   0.53865  -0.06523   0.00000  Uiso   1.00
H104   H     0.64481   0.56638   0.32796   0.00000  Uiso   1.00
H105   H     0.37685   0.40291   0.22025   0.00000  Uiso   1.00
H106   H     0.36744   0.43302  -0.12164   0.00000  Uiso   1.00
H107   H     0.39792   0.45768   0.28958   0.00000  Uiso   1.00
H108   H     0.59300   0.49074   0.41846   0.00000  Uiso   1.00
H109   H     0.42208   0.50811  -0.24545   0.00000  Uiso   1.00
H110   H     0.52535   0.35399   0.54562   0.00000  Uiso   1.00
H111   H     0.56677   0.32009   0.60527   0.00000  Uiso   1.00
H112   H     0.67380   0.43167   0.20027   0.00000  Uiso   1.00
H113   H     0.63290   0.46561   0.16791   0.00000  Uiso   1.00
H114   H     0.47895   0.64230   0.15718   0.00000  Uiso   1.00
H115   H     0.43839   0.67638   0.07413   0.00000  Uiso   1.00
H116   H     0.33881   0.56335  -0.40111   0.00000  Uiso   1.00
H117   H     0.37790   0.52904  -0.28619   0.00000  Uiso   1.00
H118   H     0.70523   0.40441   0.55118   0.00000  Uiso   1.00
H119   H     0.29555   0.69638  -0.49504   0.00000  Uiso   1.00
H120   H     0.57059   0.05142  -0.19580   0.00000  Uiso   1.00
H121   H     0.42278   0.94401  -0.08612   0.00000  Uiso   1.00
H122   H     0.45471   0.06434  -0.30584   0.00000  Uiso   1.00
H123   H     0.43102   0.07066   0.11001   0.00000  Uiso   1.00
H124   H     0.39982   0.03106  -0.22502   0.00000  Uiso   1.00
H125   H     0.59506   0.96985  -0.01893   0.00000  Uiso   1.00
H126   H     0.56768   0.93004  -0.36537   0.00000  Uiso   1.00
H127   H     0.54024   0.93366   0.03615   0.00000  Uiso   1.00
H128   H     0.50602   0.09199   0.22852   0.00000  Uiso   1.00
H129   H     0.49201   0.90511  -0.46652   0.00000  Uiso   1.00
H130   H     0.63586   0.16674  -0.28006   0.00000  Uiso   1.00
H131   H     0.67125   0.24135  -0.20962   0.00000  Uiso   1.00
H132   H     0.56981   0.23144   0.44824   0.00000  Uiso   1.00
H133   H     0.53076   0.15863   0.30543   0.00000  Uiso   1.00
H134   H     0.35582   0.82858  -0.11343   0.00000  Uiso   1.00
H135   H     0.32318   0.75375  -0.13929   0.00000  Uiso   1.00
H136   H     0.43532   0.76494  -0.61170   0.00000  Uiso   1.00
H137   H     0.46851   0.83960  -0.55694   0.00000  Uiso   1.00
H138   H     0.59724   0.29436   0.21022   0.00000  Uiso   1.00
H139   H     0.30101   0.58882  -0.15850   0.00000  Uiso   1.00
H140   H     0.95281   0.53120  -0.06675   0.00000  Uiso   1.00
H141   H     0.05128   0.47786  -0.08179   0.00000  Uiso   1.00
H142   H     0.96163   0.37290  -0.25024   0.00000  Uiso   1.00
H143   H     0.93135   0.39822  -0.31873   0.00000  Uiso   1.00
H144   H     0.92192   0.36517   0.08159   0.00000  Uiso   1.00
H145   H     0.08193   0.64439  -0.24736   0.00000  Uiso   1.00
H146   H     0.07399   0.61127   0.15132   0.00000  Uiso   1.00
H147   H     0.04295   0.63584   0.09530   0.00000  Uiso   1.00
H148   H     0.90402   0.41812   0.18153   0.00000  Uiso   1.00
H149   H     0.10113   0.59061  -0.34834   0.00000  Uiso   1.00
H150   H     0.82918   0.48022  -0.00511   0.00000  Uiso   1.00
H151   H     0.75461   0.43285   0.06149   0.00000  Uiso   1.00
H152   H     0.77837   0.35094   0.69943   0.00000  Uiso   1.00
H153   H     0.85227   0.39262   0.58474   0.00000  Uiso   1.00
H154   H     0.16567   0.51810  -0.46357   0.00000  Uiso   1.00
H155   H     0.24116   0.55764  -0.51396   0.00000  Uiso   1.00
H156   H     0.23972   0.66642  -0.10768   0.00000  Uiso   1.00
H157   H     0.16477   0.62709  -0.07677   0.00000  Uiso   1.00
H158   H     0.41290   0.70551  -0.29112   0.00000  Uiso   1.00
H159   H     0.69740   2.21396   0.20057   0.00000  Uiso   1.00
H160   H     0.71485   2.21700   0.64480   0.00000  Uiso   1.00
H161   H     0.74440   2.28600   0.66183   0.00000  Uiso   1.00
H162   H     0.81035   2.31345   0.48221   0.00000  Uiso   1.00
H163   H     0.79805   2.32000   0.04146   0.00000  Uiso   1.00
H164   H     0.79418   2.25966  -0.17088   0.00000  Uiso   1.00
H165   H     0.76318   2.20557   0.45069   0.00000  Uiso   1.00
H166   H     0.86668   1.23204   0.25155   0.00000  Uiso   1.00
loop_
_geom_bond_atom_site_label_1
_geom_bond_atom_site_label_2
_geom_bond_distance
_geom_bond_site_symmetry_2
_ccdc_geom_bond_type
C1     C2      1.417   .     D
C1     C6      1.405   .     S
C1     C12     1.483   .     S
C2     C3      1.399   .     S
C2     O9      1.405   .     S
C3     C4      1.408   .     D
C3     H100    1.083   .     S
C4     C5      1.418   .     S
C4     C11     1.486   .     S
C5     C6      1.399   .     D
C5     O7      1.405   .     S
C6     H101    1.083   .     S
O7     C8      1.430   .     S
C8     H102    1.109   .     S
C8     H103    1.109   .     S
C8     H104    1.108   .     S
O9     C10     1.429   .     S
C10    H105    1.109   .     S
C10    H106    1.108   .     S
C10    H107    1.104   .     S
C11    N14     1.301   .     D
C11    H108    1.079   .     S
C12    N13     1.299   .     D
C12    H109    1.076   .     S
N13    C15     1.440   .     S
N14    C16     1.436   .     S
C15    C22     1.397   .     D
C15    C26     1.408   .     S
C16    C17     1.398   .     S
C16    C21     1.405   .     D
C17    C18     1.398   .     D
C17    H110    1.083   .     S
C18    C19     1.409   .     S
C18    H111    1.082   .     S
C19    C20     1.410   .     D
C19    C27     1.495   .     S
C20    C21     1.397   .     S
C20    H112    1.083   .     S
C21    H113    1.081   .     S
C22    C23     1.399   .     S
C22    H114    1.082   .     S
C23    C24     1.409   .     D
C23    H115    1.080   .     S
C24    C25     1.410   .     S
C24    C28     1.500   .     S
C25    C26     1.400   .     D
C25    H116    1.081   .     S
C26    H117    1.080   .     S
C27    C29     1.391   .     S
C27    C59     1.393   .     D
C28    C60     1.409   .     S
C28    C90     1.411   .     D
C29    C87     1.406   .     D
C29    H118    1.082   .     S
C30    C58     1.403   .     D
C30    C88     1.402   .     S
C30    H119    1.082   .     S
C31    C32     1.416   .     S
C31    C36     1.403   .     D
C31    C42     1.483   .     S
C32    C33     1.401   1_565 D
C32    O39     1.404   .     S
C33    C32     1.401   1_545 D
C33    C34     1.406   .     S
C33    H120    1.082   .     S
C34    C35     1.409   .     D
C34    C41     1.482   .     S
C35    C36     1.471   1_545 S
C35    O37     1.403   .     S
C36    C35     1.471   1_565 S
C36    H121    1.081   .     S
O37    C38     1.430   .     S
C38    H122    1.107   .     S
C38    H123    1.108   .     S
C38    H124    1.109   .     S
O39    C40     1.429   .     S
C40    H125    1.110   .     S
C40    H126    1.109   .     S
C40    H127    1.109   .     S
C41    N44     1.296   .     D
C41    H128    1.074   .     S
C42    N43     1.303   .     D
C42    H129    1.078   .     S
N43    C45     1.437   .     S
N44    C46     1.436   .     S
C45    C52     1.395   .     S
C45    C56     1.409   .     D
C46    C47     1.393   .     D
C46    C51     1.406   .     S
C47    C48     1.395   .     S
C47    H130    1.083   .     S
C48    C49     1.394   .     D
C48    H131    1.066   .     S
C49    C50     1.419   .     S
C49    C57     1.511   .     S
C50    C51     1.403   .     D
C50    H132    1.081   .     S
C51    H133    1.080   .     S
C52    C53     1.393   .     D
C52    H134    1.083   .     S
C53    C54     1.409   .     S
C53    H135    1.081   .     S
C54    C55     1.409   .     D
C54    C58     1.494   .     S
C55    C56     1.402   .     S
C55    H136    1.081   .     S
C56    H137    1.079   .     S
C57    C59     1.408   .     S
C57    C89     1.448   .     D
C58    C90     1.407   .     S
C59    H138    1.081   .     S
C60    C88     1.406   .     D
C60    H139    1.081   .     S
C61    C62     1.414   .     D
C61    C66     1.401   .     S
C61    C72     1.484   .     S
C62    C63     1.477   1_455 S
C62    O69     1.403   .     S
C63    C62     1.477   1_655 S
C63    C64     1.401   .     D
C63    H140    1.083   .     S
C64    C65     1.414   .     S
C64    C71     1.482   .     S
C65    C66     1.472   1_655 D
C65    O67     1.404   .     S
C66    C65     1.472   1_455 D
C66    H141    1.082   .     S
O67    C68     1.429   .     S
C68    H142    1.111   .     S
C68    H143    1.108   .     S
C68    H144    1.108   .     S
O69    C70     1.429   .     S
C70    H145    1.109   .     S
C70    H146    1.108   .     S
C70    H147    1.110   .     S
C71    N74     1.301   .     D
C71    H148    1.072   .     S
C72    N73     1.301   .     D
C72    H149    1.078   .     S
N73    C75     1.436   .     S
N74    C76     1.440   .     S
C75    C82     1.398   .     D
C75    C86     1.404   .     S
C76    C77     1.401   .     D
C76    C81     1.403   .     S
C77    C78     1.404   .     S
C77    H150    1.083   .     S
C78    C79     1.413   .     D
C78    H151    1.080   .     S
C79    C80     1.382   .     S
C79    C87     1.496   .     S
C80    C81     1.391   .     D
C80    H152    1.051   .     S
C81    H153    1.081   .     S
C82    C83     1.399   .     S
C82    H154    1.082   .     S
C83    C84     1.408   .     D
C83    H155    1.082   .     S
C84    C85     1.409   .     S
C84    C88     1.491   .     S
C85    C86     1.396   .     D
C85    H156    1.083   .     S
C86    H157    1.082   .     S
C87    C89     1.445   .     S
C89    O91     1.427   1_535 S
C90    H158    1.078   .     S
O91    C89     1.427   1_575 S
O91    C93     1.462   .     S
C92    C93     1.540   .     S
C92    N96     1.464   .     S
C92    H159    1.083   .     S
C92    H160    1.084   .     S
C93    C94     1.536   .     S
C93    H161    1.032   .     S
C94    C95     1.531   .     S
C94    H162    1.097   .     S
C94    H163    1.081   .     S
C95    N96     1.461   .     S
C95    C97     1.518   1_565 S
C95    H164    1.059   .     S
N96    H165    1.047   .     S
C97    C95     1.518   1_545 S
C97    O98     1.399   .     S
C97    O99     1.223   .     D
O98    H166    1.014   .     S
