data_222
_audit_creation_date              2023-09-08
_audit_creation_method            'Materials Studio'
_symmetry_space_group_name_H-M    'P1'
_symmetry_Int_Tables_number       1
_symmetry_cell_setting            triclinic
loop_
_symmetry_equiv_pos_as_xyz
  x,y,z
_cell_length_a                    37.2093
_cell_length_b                    37.2016
_cell_length_c                    3.5400
_cell_angle_alpha                 90.0596
_cell_angle_beta                  89.9842
_cell_angle_gamma                 120.0515
loop_
_atom_site_label
_atom_site_type_symbol
_atom_site_fract_x
_atom_site_fract_y
_atom_site_fract_z
_atom_site_U_iso_or_equiv
_atom_site_adp_type
_atom_site_occupancy
C1     C     0.46295   0.49578  -0.22874   0.00000  Uiso   1.00
C2     C     0.45045   0.45295  -0.24362   0.00000  Uiso   1.00
C3     C     0.47960   0.44033  -0.17028   0.00000  Uiso   1.00
C4     C     0.52105   0.46907  -0.07321   0.00000  Uiso   1.00
C5     C     0.53349   0.51184  -0.06253   0.00000  Uiso   1.00
C6     C     0.50431   0.52432  -0.13050   0.00000  Uiso   1.00
O7     O     0.57313   0.54266   0.05426   0.00000  Uiso   1.00
C8     C     0.60683   0.55039  -0.18887   0.00000  Uiso   1.00
O9     O     0.41072   0.42193  -0.36021   0.00000  Uiso   1.00
C10    C     0.37615   0.41692  -0.14303   0.00000  Uiso   1.00
C11    C     0.55085   0.45451   0.01563   0.00000  Uiso   1.00
C12    C     0.43411   0.51155  -0.31551   0.00000  Uiso   1.00
N13    N     0.44478   0.54986  -0.23703   0.00000  Uiso   1.00
N14    N     0.53898   0.41502   0.01856   0.00000  Uiso   1.00
C15    C     0.42080   0.57022  -0.28539   0.00000  Uiso   1.00
C16    C     0.56640   0.39868   0.07505   0.00000  Uiso   1.00
C17    C     0.55002   0.35776   0.20179   0.00000  Uiso   1.00
C18    C     0.57561   0.34039   0.24397   0.00000  Uiso   1.00
C19    C     0.61809   0.36346   0.15505   0.00000  Uiso   1.00
C20    C     0.63432   0.40434   0.02325   0.00000  Uiso   1.00
C21    C     0.60878   0.42166  -0.01906   0.00000  Uiso   1.00
C22    C     0.43977   0.61234  -0.19168   0.00000  Uiso   1.00
C23    C     0.41813   0.63393  -0.22131   0.00000  Uiso   1.00
C24    C     0.37656   0.61376  -0.34562   0.00000  Uiso   1.00
C25    C     0.35734   0.57130  -0.43885   0.00000  Uiso   1.00
C26    C     0.37915   0.54965  -0.40911   0.00000  Uiso   1.00
C27    C     0.64571   0.34539   0.20487   0.00000  Uiso   1.00
C28    C     0.35366   0.63705  -0.37215   0.00000  Uiso   1.00
C29    C     0.68671   0.37039   0.32137   0.00000  Uiso   1.00
C30    C     0.31230   0.68276  -0.38740   0.00000  Uiso   1.00
C31    C     0.48645   0.95024  -0.22729   0.00000  Uiso   1.00
C32    C     0.52871   0.98159  -0.20951   0.00000  Uiso   1.00
C33    C     0.53975   0.02247  -0.11801   0.00000  Uiso   1.00
C34    C     0.51022   0.03431  -0.02574   0.00000  Uiso   1.00
C35    C     0.46763   0.00371  -0.03987   0.00000  Uiso   1.00
C36    C     0.45607   0.96065  -0.13576   0.00000  Uiso   1.00
O37    O     0.43530   0.01093   0.06305   0.00000  Uiso   1.00
C38    C     0.43199   0.04203  -0.14635   0.00000  Uiso   1.00
O39    O     0.56092   0.97499  -0.32822   0.00000  Uiso   1.00
C40    C     0.57012   0.94936  -0.09621   0.00000  Uiso   1.00
C41    C     0.52505   0.07847   0.07713   0.00000  Uiso   1.00
C42    C     0.47390   0.90680  -0.33218   0.00000  Uiso   1.00
N43    N     0.43597   0.88034  -0.42622   0.00000  Uiso   1.00
N44    N     0.56449   0.10515   0.05733   0.00000  Uiso   1.00
C45    C     0.41920   0.83659  -0.49147   0.00000  Uiso   1.00
C46    C     0.58552   0.14925   0.11514   0.00000  Uiso   1.00
C47    C     0.62645   0.17184  -0.00727   0.00000  Uiso   1.00
C48    C     0.64828   0.21493   0.01325   0.00000  Uiso   1.00
C49    C     0.63157   0.23745   0.18468   0.00000  Uiso   1.00
C50    C     0.58994   0.21409   0.31324   0.00000  Uiso   1.00
C51    C     0.56687   0.17056   0.27418   0.00000  Uiso   1.00
C52    C     0.37895   0.81356  -0.63753   0.00000  Uiso   1.00
C53    C     0.35911   0.77024  -0.65845   0.00000  Uiso   1.00
C54    C     0.37862   0.74879  -0.52061   0.00000  Uiso   1.00
C55    C     0.41990   0.77217  -0.39200   0.00000  Uiso   1.00
C56    C     0.43999   0.81549  -0.37887   0.00000  Uiso   1.00
C57    C     0.65500   0.28467   0.20862   0.00000  Uiso   1.00
C58    C     0.35481   0.70275  -0.47218   0.00000  Uiso   1.00
C59    C     0.63094   0.30343   0.13715   0.00000  Uiso   1.00
C60    C     0.31123   0.61796  -0.28076   0.00000  Uiso   1.00
C61    C     0.05040   0.55468   0.24972   0.00000  Uiso   1.00
C62    C     0.02225   0.56911   0.20263   0.00000  Uiso   1.00
C63    C     0.97787   0.54192   0.30127   0.00000  Uiso   1.00
C64    C     0.96368   0.50195   0.44572   0.00000  Uiso   1.00
C65    C     0.99197   0.48761   0.48839   0.00000  Uiso   1.00
C66    C     0.03598   0.51467   0.39153   0.00000  Uiso   1.00
O67    O     0.98039   0.44982   0.66384   0.00000  Uiso   1.00
C68    C     0.95630   0.41407   0.43401   0.00000  Uiso   1.00
O69    O     0.03374   0.60532  -0.00123   0.00000  Uiso   1.00
C70    C     0.04164   0.64030   0.22642   0.00000  Uiso   1.00
C71    C     0.91959   0.47440   0.55001   0.00000  Uiso   1.00
C72    C     0.09489   0.58100   0.15266   0.00000  Uiso   1.00
N73    N     0.11567   0.56379   0.03863   0.00000  Uiso   1.00
N74    N     0.89010   0.47853   0.39728   0.00000  Uiso   1.00
C75    C     0.15913   0.58436  -0.04999   0.00000  Uiso   1.00
C76    C     0.84634   0.44941   0.43159   0.00000  Uiso   1.00
C77    C     0.81790   0.45895   0.26767   0.00000  Uiso   1.00
C78    C     0.77561   0.42888   0.24535   0.00000  Uiso   1.00
C79    C     0.76006   0.38861   0.40079   0.00000  Uiso   1.00
C80    C     0.78862   0.38182   0.59915   0.00000  Uiso   1.00
C81    C     0.83104   0.41025   0.59958   0.00000  Uiso   1.00
C82    C     0.17522   0.56081  -0.20599   0.00000  Uiso   1.00
C83    C     0.21765   0.57869  -0.28044   0.00000  Uiso   1.00
C84    C     0.24520   0.62057  -0.19266   0.00000  Uiso   1.00
C85    C     0.22895   0.64414  -0.03123   0.00000  Uiso   1.00
C86    C     0.18642   0.62634   0.03692   0.00000  Uiso   1.00
C87    C     0.71464   0.35539   0.34992   0.00000  Uiso   1.00
C88    C     0.29015   0.64051  -0.29043   0.00000  Uiso   1.00
C89    C     0.69837   0.31096   0.30971   0.00000  Uiso   1.00
C90    C     0.37484   0.67923  -0.47462   0.00000  Uiso   1.00
C91    C     0.72388   2.29093   0.42820   0.00000  Uiso   1.00
C92    C     0.76988   2.24467   0.28965   0.00000  Uiso   1.00
C93    C     0.78639   2.29001   0.40613   0.00000  Uiso   1.00
C94    C     0.83183   2.31338   0.28043   0.00000  Uiso   1.00
C95    C     0.84093   2.27938   0.14509   0.00000  Uiso   1.00
N96    N     0.80511   2.23834   0.22705   0.00000  Uiso   1.00
C97    C     0.88221   1.28451   0.26949   0.00000  Uiso   1.00
O98    O     0.88435   1.25161   0.43783   0.00000  Uiso   1.00
O99    O     0.91411   1.31715   0.20639   0.00000  Uiso   1.00
O100   O     0.76335   1.30776   0.25607   0.00000  Uiso   1.00
H101   H     0.46944   0.40754  -0.19054   0.00000  Uiso   1.00
H102   H     0.51454   0.55712  -0.10852   0.00000  Uiso   1.00
H103   H     0.61433   0.57752  -0.37095   0.00000  Uiso   1.00
H104   H     0.60034   0.52330  -0.36731   0.00000  Uiso   1.00
H105   H     0.63463   0.55854  -0.01345   0.00000  Uiso   1.00
H106   H     0.36178   0.38646   0.00284   0.00000  Uiso   1.00
H107   H     0.35271   0.41726  -0.33384   0.00000  Uiso   1.00
H108   H     0.38491   0.44173   0.06891   0.00000  Uiso   1.00
H109   H     0.58296   0.47739   0.08341   0.00000  Uiso   1.00
H110   H     0.40419   0.49087  -0.43802   0.00000  Uiso   1.00
H111   H     0.51742   0.33943   0.27278   0.00000  Uiso   1.00
H112   H     0.56265   0.30929   0.35550   0.00000  Uiso   1.00
H113   H     0.66674   0.42270  -0.05486   0.00000  Uiso   1.00
H114   H     0.62198   0.45247  -0.13816   0.00000  Uiso   1.00
H115   H     0.47160   0.62862  -0.09129   0.00000  Uiso   1.00
H116   H     0.43379   0.66628  -0.13711   0.00000  Uiso   1.00
H117   H     0.32554   0.55472  -0.53866   0.00000  Uiso   1.00
H118   H     0.36312   0.51711  -0.48233   0.00000  Uiso   1.00
H119   H     0.69694   0.40239   0.39630   0.00000  Uiso   1.00
H120   H     0.29636   0.70039  -0.39082   0.00000  Uiso   1.00
H121   H     0.57245   0.04533  -0.12101   0.00000  Uiso   1.00
H122   H     0.42350   0.93726  -0.13860   0.00000  Uiso   1.00
H123   H     0.40153   0.02732  -0.28920   0.00000  Uiso   1.00
H124   H     0.45766   0.05831  -0.35309   0.00000  Uiso   1.00
H125   H     0.43298   0.06552   0.05169   0.00000  Uiso   1.00
H126   H     0.60032   0.96907   0.04626   0.00000  Uiso   1.00
H127   H     0.57306   0.92651  -0.27669   0.00000  Uiso   1.00
H128   H     0.54559   0.93152   0.11459   0.00000  Uiso   1.00
H129   H     0.50348   0.08891   0.14520   0.00000  Uiso   1.00
H130   H     0.49644   0.89693  -0.31979   0.00000  Uiso   1.00
H131   H     0.64123   0.15595  -0.13297   0.00000  Uiso   1.00
H132   H     0.67852   0.22969  -0.10549   0.00000  Uiso   1.00
H133   H     0.57525   0.22946   0.44858   0.00000  Uiso   1.00
H134   H     0.53524   0.15388   0.37686   0.00000  Uiso   1.00
H135   H     0.36263   0.82931  -0.72902   0.00000  Uiso   1.00
H136   H     0.32814   0.75347  -0.77696   0.00000  Uiso   1.00
H137   H     0.43603   0.75713  -0.27971   0.00000  Uiso   1.00
H138   H     0.47082   0.83185  -0.25944   0.00000  Uiso   1.00
H139   H     0.59943   0.28476   0.03333   0.00000  Uiso   1.00
H140   H     0.29490   0.58595  -0.18833   0.00000  Uiso   1.00
H141   H     0.95657   0.55340   0.25725   0.00000  Uiso   1.00
H142   H     0.05714   0.50306   0.43440   0.00000  Uiso   1.00
H143   H     0.94419   0.38588   0.61498   0.00000  Uiso   1.00
H144   H     0.97640   0.41116   0.21975   0.00000  Uiso   1.00
H145   H     0.92922   0.41484   0.30221   0.00000  Uiso   1.00
H146   H     0.04855   0.66685   0.04030   0.00000  Uiso   1.00
H147   H     0.06925   0.64960   0.40719   0.00000  Uiso   1.00
H148   H     0.01386   0.63345   0.39938   0.00000  Uiso   1.00
H149   H     0.91248   0.44769   0.72600   0.00000  Uiso   1.00
H150   H     0.10923   0.61453   0.16801   0.00000  Uiso   1.00
H151   H     0.82876   0.48895   0.13626   0.00000  Uiso   1.00
H152   H     0.75562   0.43685   0.08752   0.00000  Uiso   1.00
H153   H     0.77867   0.35523   0.76867   0.00000  Uiso   1.00
H154   H     0.85106   0.40118   0.73965   0.00000  Uiso   1.00
H155   H     0.15453   0.52863  -0.27841   0.00000  Uiso   1.00
H156   H     0.22849   0.56021  -0.42268   0.00000  Uiso   1.00
H157   H     0.24908   0.67628   0.04943   0.00000  Uiso   1.00
H158   H     0.17545   0.64525   0.16806   0.00000  Uiso   1.00
H159   H     0.40715   0.69381  -0.55672   0.00000  Uiso   1.00
H160   H     0.70794   2.25769   0.39177   0.00000  Uiso   1.00
H161   H     0.72685   2.29475   0.72573   0.00000  Uiso   1.00
H162   H     0.75099   2.23765   0.03618   0.00000  Uiso   1.00
H163   H     0.74774   2.22129   0.48850   0.00000  Uiso   1.00
H164   H     0.78644   2.29172   0.70554   0.00000  Uiso   1.00
H165   H     0.85377   2.33309   0.50144   0.00000  Uiso   1.00
H166   H     0.83687   2.33655   0.06177   0.00000  Uiso   1.00
H167   H     0.84327   2.28137  -0.15287   0.00000  Uiso   1.00
H168   H     0.80962   2.22582   0.47436   0.00000  Uiso   1.00
H169   H     0.91387   1.25934   0.50404   0.00000  Uiso   1.00
loop_
_geom_bond_atom_site_label_1
_geom_bond_atom_site_label_2
_geom_bond_distance
_geom_bond_site_symmetry_2
_ccdc_geom_bond_type
C1     C2      1.420   .     D
C1     C6      1.407   .     S
C1     C12     1.490   .     S
C2     C3      1.405   .     S
C2     O9      1.406   .     S
C3     C4      1.410   .     D
C3     H101    1.084   .     S
C4     C5      1.418   .     S
C4     C11     1.491   .     S
C5     C6      1.399   .     D
C5     O7      1.402   .     S
C6     H102    1.084   .     S
O7     C8      1.426   .     S
C8     H103    1.110   .     S
C8     H104    1.108   .     S
C8     H105    1.111   .     S
O9     C10     1.428   .     S
C10    H106    1.109   .     S
C10    H107    1.108   .     S
C10    H108    1.104   .     S
C11    N14     1.305   .     D
C11    H109    1.091   .     S
C12    N13     1.303   .     D
C12    H110    1.078   .     S
N13    C15     1.441   .     S
N14    C16     1.439   .     S
C15    C22     1.398   .     D
C15    C26     1.411   .     S
C16    C17     1.401   .     D
C16    C21     1.407   .     S
C17    C18     1.401   .     S
C17    H111    1.082   .     S
C18    C19     1.406   .     D
C18    H112    1.081   .     S
C19    C20     1.406   .     S
C19    C27     1.494   .     S
C20    C21     1.398   .     D
C20    H113    1.083   .     S
C21    H114    1.082   .     S
C22    C23     1.397   .     S
C22    H115    1.085   .     S
C23    C24     1.409   .     D
C23    H116    1.083   .     S
C24    C25     1.408   .     S
C24    C28     1.492   .     S
C25    C26     1.405   .     D
C25    H117    1.084   .     S
C26    H118    1.079   .     S
C27    C29     1.393   .     D
C27    C59     1.391   .     S
C28    C60     1.407   .     D
C28    C90     1.406   .     S
C29    C87     1.408   .     S
C29    H119    1.085   .     S
C30    C58     1.403   .     S
C30    C88     1.404   .     D
C30    H120    1.082   .     S
C31    C32     1.414   .     D
C31    C36     1.404   .     S
C31    C42     1.487   .     S
C32    C33     1.400   1_565 S
C32    O39     1.403   .     S
C33    C32     1.400   1_545 S
C33    C34     1.411   .     D
C33    H121    1.080   .     S
C34    C35     1.415   .     S
C34    C41     1.492   .     S
C35    C36     1.475   1_545 D
C35    O37     1.405   .     S
C36    C35     1.475   1_565 D
C36    H122    1.082   .     S
O37    C38     1.431   .     S
C38    H123    1.104   .     S
C38    H124    1.112   .     S
C38    H125    1.106   .     S
O39    C40     1.425   .     S
C40    H126    1.109   .     S
C40    H127    1.111   .     S
C40    H128    1.107   .     S
C41    N44     1.298   .     D
C41    H129    1.079   .     S
C42    N43     1.296   .     D
C42    H130    1.072   .     S
N43    C45     1.440   .     S
N44    C46     1.435   .     S
C45    C52     1.400   .     D
C45    C56     1.408   .     S
C46    C47     1.390   .     D
C46    C51     1.406   .     S
C47    C48     1.389   .     S
C47    H131    1.084   .     S
C48    C49     1.406   .     D
C48    H132    1.061   .     S
C49    C50     1.419   .     S
C49    C57     1.523   .     S
C50    C51     1.409   .     D
C50    H133    1.081   .     S
C51    H134    1.082   .     S
C52    C53     1.399   .     S
C52    H135    1.083   .     S
C53    C54     1.408   .     D
C53    H136    1.083   .     S
C54    C55     1.409   .     S
C54    C58     1.493   .     S
C55    C56     1.397   .     D
C55    H137    1.081   .     S
C56    H138    1.080   .     S
C57    C59     1.407   .     D
C57    C89     1.452   .     S
C58    C90     1.405   .     D
C59    H139    1.085   .     S
C60    C88     1.407   .     S
C60    H140    1.082   .     S
C61    C62     1.406   .     S
C61    C66     1.399   .     D
C61    C72     1.481   .     S
C62    C63     1.483   1_455 D
C62    O69     1.394   .     S
C63    C62     1.483   1_655 D
C63    C64     1.402   .     S
C63    H141    1.084   .     S
C64    C65     1.406   .     D
C64    C71     1.481   .     S
C65    C66     1.470   1_655 S
C65    O67     1.394   .     S
C66    C65     1.470   1_455 S
C66    H142    1.082   .     S
O67    C68     1.428   .     S
C68    H143    1.114   .     S
C68    H144    1.108   .     S
C68    H145    1.124   .     S
O69    C70     1.430   .     S
C70    H146    1.106   .     S
C70    H147    1.108   .     S
C70    H148    1.116   .     S
C71    N74     1.300   .     D
C71    H149    1.088   .     S
C72    N73     1.291   .     D
C72    H150    1.085   .     S
N73    C75     1.435   .     S
N74    C76     1.440   .     S
C75    C82     1.398   .     S
C75    C86     1.406   .     D
C76    C77     1.400   .     S
C76    C81     1.404   .     D
C77    C78     1.404   .     D
C77    H151    1.084   .     S
C78    C79     1.420   .     S
C78    H152    1.084   .     S
C79    C80     1.399   .     D
C79    C87     1.524   .     S
C80    C81     1.392   .     S
C80    H153    1.054   .     S
C81    H154    1.080   .     S
C82    C83     1.397   .     D
C82    H155    1.081   .     S
C83    C84     1.405   .     S
C83    H156    1.080   .     S
C84    C85     1.411   .     D
C84    C88     1.492   .     S
C85    C86     1.397   .     S
C85    H157    1.084   .     S
C86    H158    1.079   .     S
C87    C89     1.455   .     D
C89    C91     1.530   1_535 S
C90    H159    1.082   .     S
C91    C89     1.530   1_575 S
C91    O100    1.414   1_565 S
C91    H160    1.078   .     S
C91    H161    1.061   .     S
C92    C93     1.534   .     S
C92    N96     1.460   .     S
C92    H162    1.088   .     S
C92    H163    1.102   .     S
C93    C94     1.530   .     S
C93    O100    1.422   1_565 S
C93    H164    1.062   .     S
C94    C95     1.540   .     S
C94    H165    1.103   .     S
C94    H166    1.103   .     S
C95    N96     1.468   .     S
C95    C97     1.515   1_565 S
C95    H167    1.058   .     S
N96    H168    1.044   .     S
C97    C95     1.515   1_545 S
C97    O98     1.400   .     S
C97    O99     1.221   .     D
O98    H169    1.014   .     S
O100   C91     1.414   1_545 S
O100   C93     1.422   1_545 S
