data_223
_audit_creation_date              2023-09-08
_audit_creation_method            'Materials Studio'
_symmetry_space_group_name_H-M    'P1'
_symmetry_Int_Tables_number       1
_symmetry_cell_setting            triclinic
loop_
_symmetry_equiv_pos_as_xyz
  x,y,z
_cell_length_a                    37.5012
_cell_length_b                    37.4998
_cell_length_c                    3.5400
_cell_angle_alpha                 90.0056
_cell_angle_beta                  90.0553
_cell_angle_gamma                 120.0100
loop_
_atom_site_label
_atom_site_type_symbol
_atom_site_fract_x
_atom_site_fract_y
_atom_site_fract_z
_atom_site_U_iso_or_equiv
_atom_site_adp_type
_atom_site_occupancy
C1     C     0.47557   0.51299   0.25155   0.00000  Uiso   1.00
C2     C     0.46239   0.47032   0.23043   0.00000  Uiso   1.00
C3     C     0.49065   0.45681   0.29589   0.00000  Uiso   1.00
C4     C     0.53167   0.48412   0.40191   0.00000  Uiso   1.00
C5     C     0.54463   0.52665   0.43043   0.00000  Uiso   1.00
C6     C     0.51657   0.54030   0.35952   0.00000  Uiso   1.00
O7     O     0.58416   0.55645   0.55093   0.00000  Uiso   1.00
C8     C     0.61812   0.56170   0.32691   0.00000  Uiso   1.00
O9     O     0.42256   0.44021   0.11823   0.00000  Uiso   1.00
C10    C     0.38879   0.43622   0.33836   0.00000  Uiso   1.00
C11    C     0.55996   0.46782   0.48511   0.00000  Uiso   1.00
C12    C     0.44765   0.52942   0.15530   0.00000  Uiso   1.00
N13    N     0.45967   0.56844   0.18492   0.00000  Uiso   1.00
N14    N     0.55073   0.43092   0.38033   0.00000  Uiso   1.00
C15    C     0.43394   0.58634   0.12021   0.00000  Uiso   1.00
C16    C     0.57542   0.41137   0.41828   0.00000  Uiso   1.00
C17    C     0.55854   0.37073   0.29253   0.00000  Uiso   1.00
C18    C     0.58177   0.35092   0.29163   0.00000  Uiso   1.00
C19    C     0.62274   0.37089   0.42607   0.00000  Uiso   1.00
C20    C     0.63927   0.41150   0.56445   0.00000  Uiso   1.00
C21    C     0.61618   0.43169   0.55643   0.00000  Uiso   1.00
C22    C     0.45197   0.62696  -0.00877   0.00000  Uiso   1.00
C23    C     0.42819   0.64578  -0.06620   0.00000  Uiso   1.00
C24    C     0.38572   0.62496   0.01827   0.00000  Uiso   1.00
C25    C     0.36797   0.58432   0.15819   0.00000  Uiso   1.00
C26    C     0.39163   0.56514   0.20511   0.00000  Uiso   1.00
C27    C     0.64839   0.35025   0.39559   0.00000  Uiso   1.00
C28    C     0.36027   0.64527  -0.04876   0.00000  Uiso   1.00
C29    C     0.69103   0.37323   0.34654   0.00000  Uiso   1.00
C30    C     0.31405   0.68355  -0.22488   0.00000  Uiso   1.00
C31    C     0.47746   0.95690  -0.16546   0.00000  Uiso   1.00
C32    C     0.51775   0.98836  -0.28144   0.00000  Uiso   1.00
C33    C     0.52804   0.02989  -0.26296   0.00000  Uiso   1.00
C34    C     0.50072   0.04249  -0.13521   0.00000  Uiso   1.00
C35    C     0.46078   0.01269  -0.03294   0.00000  Uiso   1.00
C36    C     0.44903   0.96887  -0.05100   0.00000  Uiso   1.00
O37    O     0.43532   0.02364   0.16326   0.00000  Uiso   1.00
C38    C     0.40622   0.02720  -0.06819   0.00000  Uiso   1.00
O39    O     0.54878   0.98269  -0.44934   0.00000  Uiso   1.00
C40    C     0.55162   0.94670  -0.39240   0.00000  Uiso   1.00
C41    C     0.51527   0.08698  -0.09685   0.00000  Uiso   1.00
C42    C     0.46393   0.91230  -0.14194   0.00000  Uiso   1.00
N43    N     0.42561   0.88435  -0.18805   0.00000  Uiso   1.00
N44    N     0.55099   0.11035   0.05308   0.00000  Uiso   1.00
C45    C     0.40977   0.84063  -0.16333   0.00000  Uiso   1.00
C46    C     0.57300   0.15415   0.10949   0.00000  Uiso   1.00
C47    C     0.61165   0.17091   0.27424   0.00000  Uiso   1.00
C48    C     0.63635   0.21319   0.31814   0.00000  Uiso   1.00
C49    C     0.62403   0.24090   0.20305   0.00000  Uiso   1.00
C50    C     0.58398   0.22373   0.04482   0.00000  Uiso   1.00
C51    C     0.55873   0.18081  -0.00370   0.00000  Uiso   1.00
C52    C     0.36879   0.81516  -0.05534   0.00000  Uiso   1.00
C53    C     0.35191   0.77248  -0.03487   0.00000  Uiso   1.00
C54    C     0.37526   0.75396  -0.13606   0.00000  Uiso   1.00
C55    C     0.41650   0.77963  -0.24619   0.00000  Uiso   1.00
C56    C     0.43367   0.82254  -0.25764   0.00000  Uiso   1.00
C57    C     0.65088   0.28679   0.27813   0.00000  Uiso   1.00
C58    C     0.35597   0.70810  -0.13648   0.00000  Uiso   1.00
C59    C     0.62962   0.30737   0.38272   0.00000  Uiso   1.00
C60    C     0.31745   0.62160  -0.11946   0.00000  Uiso   1.00
C61    C     0.04561   0.53003  -0.31908   0.00000  Uiso   1.00
C62    C     0.01791   0.54382  -0.40160   0.00000  Uiso   1.00
C63    C     0.97333   0.51691  -0.32263   0.00000  Uiso   1.00
C64    C     0.95790   0.47655  -0.19115   0.00000  Uiso   1.00
C65    C     0.98548   0.46124  -0.15143   0.00000  Uiso   1.00
C66    C     0.03011   0.48942  -0.19892   0.00000  Uiso   1.00
O67    O     0.97376   0.42217  -0.00554   0.00000  Uiso   1.00
C68    C     0.94597   0.38734  -0.22683   0.00000  Uiso   1.00
O69    O     0.03127   0.58013  -0.60671   0.00000  Uiso   1.00
C70    C     0.03295   0.61319  -0.39754   0.00000  Uiso   1.00
C71    C     0.91366   0.45066  -0.09148   0.00000  Uiso   1.00
C72    C     0.09067   0.55880  -0.33676   0.00000  Uiso   1.00
N73    N     0.11651   0.54517  -0.31815   0.00000  Uiso   1.00
N74    N     0.88877   0.46523  -0.05232   0.00000  Uiso   1.00
C75    C     0.16070   0.57008  -0.29989   0.00000  Uiso   1.00
C76    C     0.84599   0.43985   0.05465   0.00000  Uiso   1.00
C77    C     0.81661   0.45058  -0.05512   0.00000  Uiso   1.00
C78    C     0.77432   0.42321   0.00627   0.00000  Uiso   1.00
C79    C     0.76040   0.38468   0.18598   0.00000  Uiso   1.00
C80    C     0.79063   0.37658   0.31902   0.00000  Uiso   1.00
C81    C     0.83235   0.40294   0.25256   0.00000  Uiso   1.00
C82    C     0.18465   0.55255  -0.40323   0.00000  Uiso   1.00
C83    C     0.22774   0.57527  -0.37797   0.00000  Uiso   1.00
C84    C     0.24787   0.61593  -0.23910   0.00000  Uiso   1.00
C85    C     0.22346   0.63301  -0.12695   0.00000  Uiso   1.00
C86    C     0.18052   0.61054  -0.15911   0.00000  Uiso   1.00
C87    C     0.71511   0.35498   0.26175   0.00000  Uiso   1.00
C88    C     0.29381   0.64048  -0.19794   0.00000  Uiso   1.00
C89    C     0.69532   0.31043   0.22963   0.00000  Uiso   1.00
C90    C     0.37870   0.68865  -0.04549   0.00000  Uiso   1.00
C91    C     0.71776   2.29114   0.02108   0.00000  Uiso   1.00
C92    C     0.73867   1.26641   0.19046   0.00000  Uiso   1.00
N93    N     0.71912   1.22287   0.07565   0.00000  Uiso   1.00
C94    C     0.75129   1.21264  -0.04278   0.00000  Uiso   1.00
N95    N     0.79127   1.25090   0.03825   0.00000  Uiso   1.00
C96    C     0.78243   1.28135   0.10530   0.00000  Uiso   1.00
C97    C     0.74119   1.16687   0.12724   0.00000  Uiso   1.00
C98    C     0.69645   1.14859   0.30944   0.00000  Uiso   1.00
C99    C     0.78285   1.17592   0.31048   0.00000  Uiso   1.00
C100   C     0.73159   1.12440  -0.06051   0.00000  Uiso   1.00
C101   C     0.83363   1.26353  -0.09021   0.00000  Uiso   1.00
O102   O     0.80881   1.31759   0.09317   0.00000  Uiso   1.00
H103   H     0.47999   0.42422   0.26944   0.00000  Uiso   1.00
H104   H     0.52740   0.57294   0.38516   0.00000  Uiso   1.00
H105   H     0.63128   0.59144   0.17414   0.00000  Uiso   1.00
H106   H     0.60955   0.53651   0.12039   0.00000  Uiso   1.00
H107   H     0.64234   0.56258   0.51337   0.00000  Uiso   1.00
H108   H     0.37373   0.40584   0.48142   0.00000  Uiso   1.00
H109   H     0.36581   0.43742   0.14943   0.00000  Uiso   1.00
H110   H     0.39818   0.46080   0.55280   0.00000  Uiso   1.00
H111   H     0.58878   0.48741   0.62490   0.00000  Uiso   1.00
H112   H     0.41695   0.50862   0.05291   0.00000  Uiso   1.00
H113   H     0.52751   0.35476   0.18013   0.00000  Uiso   1.00
H114   H     0.56788   0.32049   0.16757   0.00000  Uiso   1.00
H115   H     0.67009   0.42790   0.68123   0.00000  Uiso   1.00
H116   H     0.63063   0.46309   0.65714   0.00000  Uiso   1.00
H117   H     0.48457   0.64395  -0.07306   0.00000  Uiso   1.00
H118   H     0.44321   0.67652  -0.18394   0.00000  Uiso   1.00
H119   H     0.33598   0.56740   0.24182   0.00000  Uiso   1.00
H120   H     0.37719   0.53430   0.32089   0.00000  Uiso   1.00
H121   H     0.70577   0.40636   0.35941   0.00000  Uiso   1.00
H122   H     0.29693   0.69818  -0.31649   0.00000  Uiso   1.00
H123   H     0.55864   0.05320  -0.35162   0.00000  Uiso   1.00
H124   H     0.41861   0.94621   0.04636   0.00000  Uiso   1.00
H125   H     0.38798  -0.00123  -0.23813   0.00000  Uiso   1.00
H126   H     0.42213   0.05469  -0.25191   0.00000  Uiso   1.00
H127   H     0.38462   0.03136   0.11539   0.00000  Uiso   1.00
H128   H     0.58097   0.95184  -0.51619   0.00000  Uiso   1.00
H129   H     0.52606   0.91957  -0.53186   0.00000  Uiso   1.00
H130   H     0.55337   0.94109  -0.09402   0.00000  Uiso   1.00
H131   H     0.49641   0.09936  -0.19402   0.00000  Uiso   1.00
H132   H     0.48500   0.90269  -0.04766   0.00000  Uiso   1.00
H133   H     0.62227   0.15069   0.37627   0.00000  Uiso   1.00
H134   H     0.66492   0.22377   0.44767   0.00000  Uiso   1.00
H135   H     0.57212   0.24332  -0.04699   0.00000  Uiso   1.00
H136   H     0.52874   0.16899  -0.13293   0.00000  Uiso   1.00
H137   H     0.35001   0.82854   0.01945   0.00000  Uiso   1.00
H138   H     0.32054   0.75394   0.06403   0.00000  Uiso   1.00
H139   H     0.43523   0.76655  -0.33304   0.00000  Uiso   1.00
H140   H     0.46513   0.84134  -0.35232   0.00000  Uiso   1.00
H141   H     0.59706   0.28946   0.44348   0.00000  Uiso   1.00
H142   H     0.30230   0.58840  -0.11299   0.00000  Uiso   1.00
H143   H     0.95270   0.52880  -0.37312   0.00000  Uiso   1.00
H144   H     0.05083   0.47814  -0.12907   0.00000  Uiso   1.00
H145   H     0.92087   0.36456  -0.04509   0.00000  Uiso   1.00
H146   H     0.96280   0.37261  -0.34484   0.00000  Uiso   1.00
H147   H     0.93143   0.39547  -0.45629   0.00000  Uiso   1.00
H148   H     0.03858   0.63850  -0.59356   0.00000  Uiso   1.00
H149   H     0.05937   0.62518  -0.20044   0.00000  Uiso   1.00
H150   H     0.00366   0.60367  -0.24484   0.00000  Uiso   1.00
H151   H     0.90173   0.41831  -0.05283   0.00000  Uiso   1.00
H152   H     0.10174   0.59158  -0.35328   0.00000  Uiso   1.00
H153   H     0.82621   0.47909  -0.20562   0.00000  Uiso   1.00
H154   H     0.75258   0.43164  -0.10189   0.00000  Uiso   1.00
H155   H     0.78276   0.34953   0.47334   0.00000  Uiso   1.00
H156   H     0.85388   0.39442   0.36543   0.00000  Uiso   1.00
H157   H     0.16984   0.52128  -0.50916   0.00000  Uiso   1.00
H158   H     0.24518   0.56109  -0.47254   0.00000  Uiso   1.00
H159   H     0.23742   0.66339  -0.00131   0.00000  Uiso   1.00
H160   H     0.16292   0.62434  -0.05926   0.00000  Uiso   1.00
H161   H     0.41060   0.70749   0.03728   0.00000  Uiso   1.00
H162   H     0.74112   2.31573  -0.14381   0.00000  Uiso   1.00
H163   H     0.69472   2.27130  -0.18050   0.00000  Uiso   1.00
H164   H     0.73826   1.26708   0.48692   0.00000  Uiso   1.00
H165   H     0.69726   1.21508  -0.13339   0.00000  Uiso   1.00
H166   H     0.75046   1.21185  -0.34136   0.00000  Uiso   1.00
H167   H     0.67727   1.11520   0.36417   0.00000  Uiso   1.00
H168   H     0.67538   1.14896   0.09471   0.00000  Uiso   1.00
H169   H     0.69256   1.16560   0.53506   0.00000  Uiso   1.00
H170   H     0.80479   1.18388   0.07879   0.00000  Uiso   1.00
H171   H     0.78739   1.15054   0.39953   0.00000  Uiso   1.00
H172   H     0.79712   1.20100   0.50762   0.00000  Uiso   1.00
H173   H     0.72571   1.10271   0.17777   0.00000  Uiso   1.00
H174   H     0.75630   1.11999  -0.16695   0.00000  Uiso   1.00
H175   H     0.70209   1.10471  -0.19593   0.00000  Uiso   1.00
H176   H     0.83627   1.26779  -0.39279   0.00000  Uiso   1.00
H177   H     0.84542   1.24344   0.00035   0.00000  Uiso   1.00
H178   H     0.85651   1.29391   0.02825   0.00000  Uiso   1.00
loop_
_geom_bond_atom_site_label_1
_geom_bond_atom_site_label_2
_geom_bond_distance
_geom_bond_site_symmetry_2
_ccdc_geom_bond_type
C1     C2      1.421   .     D
C1     C6      1.408   .     S
C1     C12     1.496   .     S
C2     C3      1.404   .     S
C2     O9      1.406   .     S
C3     C4      1.407   .     D
C3     H103    1.083   .     S
C4     C5      1.419   .     S
C4     C11     1.495   .     S
C5     C6      1.404   .     D
C5     O7      1.404   .     S
C6     H104    1.084   .     S
O7     C8      1.429   .     S
C8     H105    1.109   .     S
C8     H106    1.107   .     S
C8     H107    1.109   .     S
O9     C10     1.430   .     S
C10    H108    1.109   .     S
C10    H109    1.109   .     S
C10    H110    1.107   .     S
C11    N14     1.301   .     D
C11    H111    1.076   .     S
C12    N13     1.302   .     D
C12    H112    1.080   .     S
N13    C15     1.443   .     S
N14    C16     1.446   .     S
C15    C22     1.399   .     D
C15    C26     1.407   .     S
C16    C17     1.398   .     S
C16    C21     1.411   .     D
C17    C18     1.399   .     D
C17    H113    1.083   .     S
C18    C19     1.413   .     S
C18    H114    1.082   .     S
C19    C20     1.414   .     D
C19    C27     1.510   .     S
C20    C21     1.407   .     S
C20    H115    1.083   .     S
C21    H116    1.081   .     S
C22    C23     1.401   .     S
C22    H117    1.083   .     S
C23    C24     1.412   .     D
C23    H118    1.082   .     S
C24    C25     1.413   .     S
C24    C28     1.508   .     S
C25    C26     1.404   .     D
C25    H119    1.081   .     S
C26    H120    1.083   .     S
C27    C29     1.397   .     S
C27    C59     1.397   .     D
C28    C60     1.415   .     S
C28    C90     1.414   .     D
C29    C87     1.412   .     D
C29    H121    1.079   .     S
C30    C58     1.403   .     D
C30    C88     1.403   .     S
C30    H122    1.082   .     S
C31    C32     1.436   .     S
C31    C36     1.408   .     D
C31    C42     1.488   .     S
C32    C33     1.406   1_565 D
C32    O39     1.415   .     S
C33    C32     1.406   1_545 D
C33    C34     1.401   .     S
C33    H123    1.085   .     S
C34    C35     1.396   .     D
C34    C41     1.479   .     S
C35    C36     1.474   1_545 S
C35    O37     1.399   .     S
C36    C35     1.474   1_565 S
C36    H124    1.083   .     S
O37    C38     1.423   .     S
C38    H125    1.112   .     S
C38    H126    1.108   .     S
C38    H127    1.109   .     S
O39    C40     1.420   .     S
C40    H128    1.109   .     S
C40    H129    1.105   .     S
C40    H130    1.085   .     S
C41    N44     1.292   .     D
C41    H131    1.078   .     S
C42    N43     1.297   .     D
C42    H132    1.072   .     S
N43    C45     1.440   .     S
N44    C46     1.436   .     S
C45    C52     1.398   .     S
C45    C56     1.408   .     D
C46    C47     1.387   .     D
C46    C51     1.408   .     S
C47    C48     1.388   .     S
C47    H133    1.080   .     S
C48    C49     1.393   .     D
C48    H134    1.044   .     S
C49    C50     1.420   .     S
C49    C57     1.521   .     S
C50    C51     1.411   .     D
C50    H135    1.082   .     S
C51    H136    1.082   .     S
C52    C53     1.398   .     D
C52    H137    1.082   .     S
C53    C54     1.409   .     S
C53    H138    1.083   .     S
C54    C55     1.408   .     D
C54    C58     1.495   .     S
C55    C56     1.403   .     S
C55    H139    1.083   .     S
C56    H140    1.082   .     S
C57    C59     1.409   .     S
C57    C89     1.454   .     D
C58    C90     1.408   .     S
C59    H141    1.081   .     S
C60    C88     1.411   .     D
C60    H142    1.080   .     S
C61    C62     1.403   .     D
C61    C66     1.398   .     S
C61    C72     1.483   .     S
C62    C63     1.485   1_455 S
C62    O69     1.397   .     S
C63    C62     1.485   1_655 S
C63    C64     1.402   .     D
C63    H143    1.084   .     S
C64    C65     1.419   .     S
C64    C71     1.486   .     S
C65    C66     1.476   1_655 D
C65    O67     1.401   .     S
C66    C65     1.476   1_455 D
C66    H144    1.083   .     S
O67    C68     1.429   .     S
C68    H145    1.108   .     S
C68    H146    1.108   .     S
C68    H147    1.103   .     S
O69    C70     1.418   .     S
C70    H148    1.108   .     S
C70    H149    1.106   .     S
C70    H150    1.111   .     S
C71    N74     1.304   .     D
C71    H151    1.071   .     S
C72    N73     1.304   .     D
C72    H152    1.085   .     S
N73    C75     1.440   .     S
N74    C76     1.448   .     S
C75    C82     1.401   .     D
C75    C86     1.405   .     S
C76    C77     1.403   .     D
C76    C81     1.400   .     S
C77    C78     1.410   .     S
C77    H153    1.083   .     S
C78    C79     1.418   .     D
C78    H154    1.081   .     S
C79    C80     1.394   .     S
C79    C87     1.518   .     S
C80    C81     1.391   .     D
C80    H155    1.056   .     S
C81    H156    1.082   .     S
C82    C83     1.403   .     S
C82    H157    1.083   .     S
C83    C84     1.409   .     D
C83    H158    1.082   .     S
C84    C85     1.412   .     S
C84    C88     1.500   .     S
C85    C86     1.399   .     D
C85    H159    1.083   .     S
C86    H160    1.082   .     S
C87    C89     1.454   .     S
C89    C91     1.545   1_535 S
C90    H161    1.082   .     S
C91    C89     1.545   1_575 S
C91    C92     1.600   1_565 S
C91    H162    1.073   .     S
C91    H163    1.079   .     S
C92    C91     1.600   1_545 S
C92    N93     1.473   .     S
C92    C96     1.476   .     S
C92    H164    1.050   .     S
N93    C94     1.497   .     S
N93    H165    1.032   .     S
C94    N95     1.495   .     S
C94    C97     1.674   .     S
C94    H166    1.057   .     S
N95    C96     1.360   .     S
N95    C101    1.484   .     S
C96    O102    1.218   .     D
C97    C98     1.598   .     S
C97    C99     1.563   .     S
C97    C100    1.592   .     S
C98    H167    1.105   .     S
C98    H168    1.101   .     S
C98    H169    1.077   .     S
C99    H170    1.093   .     S
C99    H171    1.094   .     S
C99    H172    1.074   .     S
C100   H173    1.115   .     S
C100   H174    1.087   .     S
C100   H175    1.087   .     S
C101   H176    1.080   .     S
C101   H177    1.095   .     S
C101   H178    1.110   .     S
