data_224
_audit_creation_date              2023-09-08
_audit_creation_method            'Materials Studio'
_symmetry_space_group_name_H-M    'P1'
_symmetry_Int_Tables_number       1
_symmetry_cell_setting            triclinic
loop_
_symmetry_equiv_pos_as_xyz
  x,y,z
_cell_length_a                    37.3008
_cell_length_b                    37.3052
_cell_length_c                    3.5300
_cell_angle_alpha                 90.0124
_cell_angle_beta                  89.9865
_cell_angle_gamma                 120.0155
loop_
_atom_site_label
_atom_site_type_symbol
_atom_site_fract_x
_atom_site_fract_y
_atom_site_fract_z
_atom_site_U_iso_or_equiv
_atom_site_adp_type
_atom_site_occupancy
C1     C     0.47701   0.51759   0.21061   0.00000  Uiso   1.00
C2     C     0.46338   0.47478   0.17065   0.00000  Uiso   1.00
C3     C     0.49121   0.46048   0.23237   0.00000  Uiso   1.00
C4     C     0.53192   0.48716   0.35468   0.00000  Uiso   1.00
C5     C     0.54484   0.52918   0.41530   0.00000  Uiso   1.00
C6     C     0.51747   0.54401   0.34328   0.00000  Uiso   1.00
O7     O     0.58314   0.55494   0.58817   0.00000  Uiso   1.00
C8     C     0.61172   0.59021   0.37420   0.00000  Uiso   1.00
O9     O     0.42372   0.44561   0.04096   0.00000  Uiso   1.00
C10    C     0.38920   0.44002   0.26248   0.00000  Uiso   1.00
C11    C     0.56134   0.47165   0.41030   0.00000  Uiso   1.00
C12    C     0.44987   0.53493   0.11246   0.00000  Uiso   1.00
N13    N     0.46241   0.57413   0.15256   0.00000  Uiso   1.00
N14    N     0.55026   0.43318   0.34117   0.00000  Uiso   1.00
C15    C     0.43682   0.59233   0.08834   0.00000  Uiso   1.00
C16    C     0.57559   0.41404   0.36265   0.00000  Uiso   1.00
C17    C     0.55790   0.37249   0.25378   0.00000  Uiso   1.00
C18    C     0.58143   0.35276   0.24589   0.00000  Uiso   1.00
C19    C     0.62346   0.37413   0.35101   0.00000  Uiso   1.00
C20    C     0.64091   0.41556   0.47107   0.00000  Uiso   1.00
C21    C     0.61742   0.43537   0.47606   0.00000  Uiso   1.00
C22    C     0.45492   0.63302  -0.04471   0.00000  Uiso   1.00
C23    C     0.43090   0.65179  -0.10333   0.00000  Uiso   1.00
C24    C     0.38825   0.63084  -0.01477   0.00000  Uiso   1.00
C25    C     0.37073   0.59032   0.13335   0.00000  Uiso   1.00
C26    C     0.39451   0.57119   0.17941   0.00000  Uiso   1.00
C27    C     0.64943   0.35401   0.31781   0.00000  Uiso   1.00
C28    C     0.36211   0.65050  -0.08770   0.00000  Uiso   1.00
C29    C     0.69044   0.37692   0.19910   0.00000  Uiso   1.00
C30    C     0.31238   0.68729  -0.26290   0.00000  Uiso   1.00
C31    C     0.49256   0.96414  -0.26985   0.00000  Uiso   1.00
C32    C     0.53402   0.99712  -0.27997   0.00000  Uiso   1.00
C33    C     0.54250   0.03739  -0.20034   0.00000  Uiso   1.00
C34    C     0.51098   0.04608  -0.10205   0.00000  Uiso   1.00
C35    C     0.46940   0.01344  -0.11152   0.00000  Uiso   1.00
C36    C     0.46097   0.97319  -0.18644   0.00000  Uiso   1.00
O37    O     0.43576   0.01814  -0.00391   0.00000  Uiso   1.00
C38    C     0.42747   0.04494  -0.22960   0.00000  Uiso   1.00
O39    O     0.56759   0.99235  -0.38949   0.00000  Uiso   1.00
C40    C     0.57564   0.96491  -0.17114   0.00000  Uiso   1.00
C41    C     0.52262   0.08872   0.01821   0.00000  Uiso   1.00
C42    C     0.48090   0.92024  -0.33281   0.00000  Uiso   1.00
N43    N     0.44606   0.89179  -0.19334   0.00000  Uiso   1.00
N44    N     0.56024   0.11385   0.12717   0.00000  Uiso   1.00
C45    C     0.42725   0.84765  -0.19560   0.00000  Uiso   1.00
C46    C     0.57806   0.15668   0.22664   0.00000  Uiso   1.00
C47    C     0.61494   0.17470   0.42877   0.00000  Uiso   1.00
C48    C     0.63691   0.21722   0.48827   0.00000  Uiso   1.00
C49    C     0.62727   0.24403   0.29749   0.00000  Uiso   1.00
C50    C     0.58780   0.22549   0.12103   0.00000  Uiso   1.00
C51    C     0.56309   0.18219   0.09024   0.00000  Uiso   1.00
C52    C     0.38928   0.82602  -0.01494   0.00000  Uiso   1.00
C53    C     0.36902   0.78327   0.00695   0.00000  Uiso   1.00
C54    C     0.38174   0.75981  -0.19755   0.00000  Uiso   1.00
C55    C     0.42186   0.78163  -0.36127   0.00000  Uiso   1.00
C56    C     0.44481   0.82538  -0.35676   0.00000  Uiso   1.00
C57    C     0.65461   0.29067   0.31057   0.00000  Uiso   1.00
C58    C     0.35663   0.71314  -0.18968   0.00000  Uiso   1.00
C59    C     0.63270   0.31173   0.38503   0.00000  Uiso   1.00
C60    C     0.31961   0.62611  -0.15383   0.00000  Uiso   1.00
C61    C     0.04755   0.52485  -0.25368   0.00000  Uiso   1.00
C62    C     0.02142   0.54236  -0.25794   0.00000  Uiso   1.00
C63    C     0.97915   0.51724  -0.18337   0.00000  Uiso   1.00
C64    C     0.96190   0.47520  -0.09025   0.00000  Uiso   1.00
C65    C     0.98796   0.45762  -0.08832   0.00000  Uiso   1.00
C66    C     0.03025   0.48274  -0.16277   0.00000  Uiso   1.00
O67    O     0.97450   0.41653   0.01933   0.00000  Uiso   1.00
C68    C     0.94277   0.38421  -0.20327   0.00000  Uiso   1.00
O69    O     0.03483   0.58345  -0.36517   0.00000  Uiso   1.00
C70    C     0.06629   0.61581  -0.14091   0.00000  Uiso   1.00
C71    C     0.91719   0.45035   0.00095   0.00000  Uiso   1.00
C72    C     0.09252   0.55004  -0.33293   0.00000  Uiso   1.00
N73    N     0.11765   0.53606  -0.26781   0.00000  Uiso   1.00
N74    N     0.89245   0.46529  -0.03568   0.00000  Uiso   1.00
C75    C     0.16181   0.56257  -0.26928   0.00000  Uiso   1.00
C76    C     0.84832   0.43987  -0.00224   0.00000  Uiso   1.00
C77    C     0.82485   0.45552   0.16209   0.00000  Uiso   1.00
C78    C     0.78198   0.42982   0.21084   0.00000  Uiso   1.00
C79    C     0.76125   0.38845   0.07601   0.00000  Uiso   1.00
C80    C     0.78505   0.37550  -0.12850   0.00000  Uiso   1.00
C81    C     0.82789   0.39992  -0.15458   0.00000  Uiso   1.00
C82    C     0.18772   0.54850  -0.41015   0.00000  Uiso   1.00
C83    C     0.23089   0.57477  -0.40982   0.00000  Uiso   1.00
C84    C     0.24878   0.61493  -0.25236   0.00000  Uiso   1.00
C85    C     0.22245   0.62683  -0.08434   0.00000  Uiso   1.00
C86    C     0.17965   0.60185  -0.10295   0.00000  Uiso   1.00
C87    C     0.71583   0.35928   0.16099   0.00000  Uiso   1.00
C88    C     0.29460   0.64347  -0.22967   0.00000  Uiso   1.00
C89    C     0.69844   0.31536   0.21149   0.00000  Uiso   1.00
C90    C     0.37953   0.69361  -0.09390   0.00000  Uiso   1.00
O91    O     0.72604   2.30058   0.11948   0.00000  Uiso   1.00
C92    C     0.72568   2.26501   0.27170   0.00000  Uiso   1.00
C93    C     0.76499   2.26228   0.16766   0.00000  Uiso   1.00
N94    N     0.76566   2.22548   0.30843   0.00000  Uiso   1.00
C95    C     0.80690   2.23554   0.43475   0.00000  Uiso   1.00
C96    C     0.83444   2.28228   0.39877   0.00000  Uiso   1.00
C97    C     0.80657   2.29954   0.28101   0.00000  Uiso   1.00
C98    C     0.73470   2.18493   0.26501   0.00000  Uiso   1.00
O99    O     0.74499   2.15300   0.26870   0.00000  Uiso   1.00
C100   C     0.71498   2.10825   0.36272   0.00000  Uiso   1.00
C101   C     0.66395   2.08901   0.29253   0.00000  Uiso   1.00
C102   C     0.73392   2.07620   0.29214   0.00000  Uiso   1.00
C103   C     0.71757   2.11112   0.68857   0.00000  Uiso   1.00
O104   O     0.69915   2.17660   0.21194   0.00000  Uiso   1.00
O105   O     1.28572   1.70054  -0.42749   0.00000  Uiso   1.00
C106   C     1.28129   1.73329  -0.26080   0.00000  Uiso   1.00
C107   C     1.24279   1.73739  -0.38063   0.00000  Uiso   1.00
C108   C     1.20006   1.70179  -0.27243   0.00000  Uiso   1.00
C109   C     1.17373   1.72139  -0.18619   0.00000  Uiso   1.00
C110   C     1.20377   1.76703  -0.10916   0.00000  Uiso   1.00
N111   N     1.24440   1.77564  -0.24390   0.00000  Uiso   1.00
C112   C     1.27572   1.81503  -0.34168   0.00000  Uiso   1.00
O113   O     1.27687   1.85157  -0.20259   0.00000  Uiso   1.00
C114   C     1.28490   1.88495  -0.46084   0.00000  Uiso   1.00
C115   C     1.24087   1.86763  -0.63786   0.00000  Uiso   1.00
C116   C     1.32909   1.89931  -0.64005   0.00000  Uiso   1.00
C117   C     1.29232   1.92765  -0.30637   0.00000  Uiso   1.00
O118   O     1.30397   1.81827  -0.53745   0.00000  Uiso   1.00
H119   H     0.48059   0.42801   0.18487   0.00000  Uiso   1.00
H120   H     0.52770   0.57623   0.39917   0.00000  Uiso   1.00
H121   H     0.59667   0.60555   0.22738   0.00000  Uiso   1.00
H122   H     0.62796   0.58076   0.16944   0.00000  Uiso   1.00
H123   H     0.63552   0.61322   0.56741   0.00000  Uiso   1.00
H124   H     0.37498   0.40936   0.40335   0.00000  Uiso   1.00
H125   H     0.36560   0.44042   0.07455   0.00000  Uiso   1.00
H126   H     0.39765   0.46447   0.47844   0.00000  Uiso   1.00
H127   H     0.59261   0.49342   0.49650   0.00000  Uiso   1.00
H128   H     0.41945   0.51483  -0.00303   0.00000  Uiso   1.00
H129   H     0.52588   0.35561   0.16344   0.00000  Uiso   1.00
H130   H     0.56698   0.32123   0.14310   0.00000  Uiso   1.00
H131   H     0.67287   0.43281   0.56220   0.00000  Uiso   1.00
H132   H     0.63243   0.46720   0.56850   0.00000  Uiso   1.00
H133   H     0.48759   0.64988  -0.11329   0.00000  Uiso   1.00
H134   H     0.44588   0.68238  -0.22729   0.00000  Uiso   1.00
H135   H     0.33880   0.57333   0.22393   0.00000  Uiso   1.00
H136   H     0.38010   0.54036   0.29900   0.00000  Uiso   1.00
H137   H     0.70254   0.40906   0.12481   0.00000  Uiso   1.00
H138   H     0.57446   0.06211  -0.21042   0.00000  Uiso   1.00
H139   H     0.42891   0.94864  -0.17838   0.00000  Uiso   1.00
H140   H     0.39752   0.02618  -0.37830   0.00000  Uiso   1.00
H141   H     0.45214   0.06280  -0.43969   0.00000  Uiso   1.00
H142   H     0.42457   0.06729  -0.04346   0.00000  Uiso   1.00
H143   H     0.57776   0.94241  -0.36155   0.00000  Uiso   1.00
H144   H     0.55138   0.94724   0.04198   0.00000  Uiso   1.00
H145   H     0.60590   0.98315  -0.02595   0.00000  Uiso   1.00
H146   H     0.50014   0.09879   0.02460   0.00000  Uiso   1.00
H147   H     0.50131   0.91212  -0.47785   0.00000  Uiso   1.00
H148   H     0.62583   0.15544   0.55475   0.00000  Uiso   1.00
H149   H     0.66090   0.22875   0.69057   0.00000  Uiso   1.00
H150   H     0.57687   0.24438  -0.01135   0.00000  Uiso   1.00
H151   H     0.53450   0.16934  -0.06834   0.00000  Uiso   1.00
H152   H     0.37652   0.84268   0.13037   0.00000  Uiso   1.00
H153   H     0.34358   0.76844   0.19238   0.00000  Uiso   1.00
H154   H     0.43496   0.76501  -0.50125   0.00000  Uiso   1.00
H155   H     0.47492   0.84125  -0.49030   0.00000  Uiso   1.00
H156   H     0.60099   0.29435   0.48279   0.00000  Uiso   1.00
H157   H     0.30536   0.59286  -0.14406   0.00000  Uiso   1.00
H158   H     0.95977   0.53122  -0.19436   0.00000  Uiso   1.00
H159   H     0.04965   0.46880  -0.15146   0.00000  Uiso   1.00
H160   H     0.95586   0.36712  -0.35139   0.00000  Uiso   1.00
H161   H     0.92901   0.39578  -0.41350   0.00000  Uiso   1.00
H162   H     0.91758   0.36209  -0.01523   0.00000  Uiso   1.00
H163   H     0.09151   0.63807  -0.32790   0.00000  Uiso   1.00
H164   H     0.08006   0.60433   0.07028   0.00000  Uiso   1.00
H165   H     0.05294   0.63271   0.00645   0.00000  Uiso   1.00
H166   H     0.90445   0.41868   0.09162   0.00000  Uiso   1.00
H167   H     0.10522   0.58159  -0.42765   0.00000  Uiso   1.00
H168   H     0.84006   0.48679   0.27242   0.00000  Uiso   1.00
H169   H     0.76575   0.44204   0.37084   0.00000  Uiso   1.00
H170   H     0.77056   0.34748  -0.28968   0.00000  Uiso   1.00
H171   H     0.84499   0.38849  -0.31236   0.00000  Uiso   1.00
H172   H     0.17447   0.51783  -0.53170   0.00000  Uiso   1.00
H173   H     0.25000   0.56387  -0.53860   0.00000  Uiso   1.00
H174   H     0.23539   0.65470   0.08063   0.00000  Uiso   1.00
H175   H     0.16037   0.61217   0.03262   0.00000  Uiso   1.00
H176   H     0.41175   0.71269  -0.01764   0.00000  Uiso   1.00
H177   H     0.69975   2.23778   0.14945   0.00000  Uiso   1.00
H178   H     0.72255   2.26566   0.56964   0.00000  Uiso   1.00
H179   H     0.76607   2.26040  -0.12980   0.00000  Uiso   1.00
H180   H     0.81959   2.21879   0.27515   0.00000  Uiso   1.00
H181   H     0.80512   2.22536   0.72390   0.00000  Uiso   1.00
H182   H     0.86015   2.28941   0.20382   0.00000  Uiso   1.00
H183   H     0.85076   2.29753   0.65625   0.00000  Uiso   1.00
H184   H     0.82204   2.32336   0.06294   0.00000  Uiso   1.00
H185   H     0.80190   2.31613   0.51085   0.00000  Uiso   1.00
H186   H     0.64615   2.05619   0.38862   0.00000  Uiso   1.00
H187   H     0.65047   2.08702   0.01388   0.00000  Uiso   1.00
H188   H     0.65109   2.10636   0.44125   0.00000  Uiso   1.00
H189   H     0.74071   2.06842   0.01223   0.00000  Uiso   1.00
H190   H     0.71255   2.04462   0.40534   0.00000  Uiso   1.00
H191   H     0.76512   2.08788   0.42096   0.00000  Uiso   1.00
H192   H     0.70585   2.13229   0.76762   0.00000  Uiso   1.00
H193   H     0.75157   2.12497   0.76853   0.00000  Uiso   1.00
H194   H     0.69635   2.07835   0.78213   0.00000  Uiso   1.00
H195   H     1.30769   1.76231  -0.34084   0.00000  Uiso   1.00
H196   H     1.28202   1.73003   0.03460   0.00000  Uiso   1.00
H197   H     1.24199   1.73942  -0.67688   0.00000  Uiso   1.00
H198   H     1.18441   1.67643  -0.47742   0.00000  Uiso   1.00
H199   H     1.20275   1.68658  -0.02420   0.00000  Uiso   1.00
H200   H     1.15172   1.70402   0.03893   0.00000  Uiso   1.00
H201   H     1.15316   1.71918  -0.41608   0.00000  Uiso   1.00
H202   H     1.20472   1.77255   0.18981   0.00000  Uiso   1.00
H203   H     1.19335   1.78693  -0.24773   0.00000  Uiso   1.00
H204   H     1.22816   1.83792  -0.77919   0.00000  Uiso   1.00
H205   H     1.23370   1.88881  -0.78692   0.00000  Uiso   1.00
H206   H     1.21854   1.85910  -0.40067   0.00000  Uiso   1.00
H207   H     1.33262   1.87967  -0.84659   0.00000  Uiso   1.00
H208   H     1.34970   1.89980  -0.41335   0.00000  Uiso   1.00
H209   H     1.34758   1.93187  -0.73033   0.00000  Uiso   1.00
H210   H     1.29781   1.94809  -0.55341   0.00000  Uiso   1.00
H211   H     1.32091   1.94644  -0.14881   0.00000  Uiso   1.00
H212   H     1.26622   1.92927  -0.18342   0.00000  Uiso   1.00
loop_
_geom_bond_atom_site_label_1
_geom_bond_atom_site_label_2
_geom_bond_distance
_geom_bond_site_symmetry_2
_ccdc_geom_bond_type
C1     C2      1.420   .     D
C1     C6      1.407   .     S
C1     C12     1.490   .     S
C2     C3      1.401   .     S
C2     O9      1.404   .     S
C3     C4      1.404   .     D
C3     H119    1.083   .     S
C4     C5      1.407   .     S
C4     C11     1.488   .     S
C5     C6      1.407   .     D
C5     O7      1.401   .     S
C6     H120    1.082   .     S
O7     C8      1.427   .     S
C8     H121    1.110   .     S
C8     H122    1.108   .     S
C8     H123    1.108   .     S
O9     C10     1.430   .     S
C10    H124    1.109   .     S
C10    H125    1.108   .     S
C10    H126    1.107   .     S
C11    N14     1.302   .     D
C11    H127    1.079   .     S
C12    N13     1.301   .     D
C12    H128    1.079   .     S
N13    C15     1.439   .     S
N14    C16     1.443   .     S
C15    C22     1.398   .     D
C15    C26     1.404   .     S
C16    C17     1.401   .     S
C16    C21     1.409   .     D
C17    C18     1.400   .     D
C17    H129    1.083   .     S
C18    C19     1.407   .     S
C18    H130    1.082   .     S
C19    C20     1.409   .     D
C19    C27     1.498   .     S
C20    C21     1.401   .     S
C20    H131    1.082   .     S
C21    H132    1.079   .     S
C22    C23     1.401   .     S
C22    H133    1.083   .     S
C23    C24     1.413   .     D
C23    H134    1.081   .     S
C24    C25     1.413   .     S
C24    C28     1.507   .     S
C25    C26     1.399   .     D
C25    H135    1.080   .     S
C26    H136    1.082   .     S
C27    C29     1.392   .     S
C27    C59     1.396   .     D
C28    C60     1.397   .     S
C28    C90     1.401   .     D
C29    C87     1.404   .     D
C29    H137    1.081   .     S
C30    C58     1.459   .     D
C30    C88     1.429   .     S
C30    O105    1.436   1_445 S
C31    C32     1.415   .     S
C31    C36     1.410   .     D
C31    C42     1.486   .     S
C32    C33     1.400   1_565 D
C32    O39     1.404   .     S
C33    C32     1.400   1_545 D
C33    C34     1.410   .     S
C33    H138    1.083   .     S
C34    C35     1.414   .     D
C34    C41     1.486   .     S
C35    C36     1.397   1_545 S
C35    O37     1.403   .     S
C36    C35     1.397   1_565 S
C36    H139    1.083   .     S
O37    C38     1.428   .     S
C38    H140    1.110   .     S
C38    H141    1.108   .     S
C38    H142    1.108   .     S
O39    C40     1.428   .     S
C40    H143    1.108   .     S
C40    H144    1.106   .     S
C40    H145    1.110   .     S
C41    N44     1.296   .     D
C41    H146    1.077   .     S
C42    N43     1.295   .     D
C42    H147    1.079   .     S
N43    C45     1.431   .     S
N44    C46     1.434   .     S
C45    C52     1.386   .     S
C45    C56     1.410   .     D
C46    C47     1.389   .     D
C46    C51     1.408   .     S
C47    C48     1.390   .     S
C47    H148    1.082   .     S
C48    C49     1.394   .     D
C48    H149    1.054   .     S
C49    C50     1.420   .     S
C49    C57     1.515   .     S
C50    C51     1.407   .     D
C50    H150    1.081   .     S
C51    H151    1.081   .     S
C52    C53     1.384   .     D
C52    H152    1.082   .     S
C53    C54     1.388   .     S
C53    H153    1.053   .     S
C54    C55     1.420   .     D
C54    C58     1.509   .     S
C55    C56     1.414   .     S
C55    H154    1.082   .     S
C56    H155    1.081   .     S
C57    C59     1.413   .     S
C57    C89     1.462   .     D
C58    C90     1.413   .     S
C59    H156    1.082   .     S
C60    C88     1.402   .     D
C60    H157    1.078   .     S
C61    C62     1.419   .     D
C61    C66     1.405   .     S
C61    C72     1.483   .     S
C62    C63     1.398   1_455 S
C62    O69     1.406   .     S
C63    C62     1.398   1_655 S
C63    C64     1.404   .     D
C63    H158    1.083   .     S
C64    C65     1.419   .     S
C64    C71     1.482   .     S
C65    C66     1.399   1_655 D
C65    O67     1.406   .     S
C66    C65     1.399   1_455 D
C66    H159    1.083   .     S
O67    C68     1.430   .     S
C68    H160    1.109   .     S
C68    H161    1.106   .     S
C68    H162    1.108   .     S
O69    C70     1.430   .     S
C70    H163    1.108   .     S
C70    H164    1.106   .     S
C70    H165    1.109   .     S
C71    N74     1.301   .     D
C71    H166    1.078   .     S
C72    N73     1.301   .     D
C72    H167    1.079   .     S
N73    C75     1.436   .     S
N74    C76     1.436   .     S
C75    C82     1.401   .     D
C75    C86     1.400   .     S
C76    C77     1.398   .     D
C76    C81     1.398   .     S
C77    C78     1.404   .     S
C77    H168    1.083   .     S
C78    C79     1.419   .     D
C78    H169    1.081   .     S
C79    C80     1.404   .     S
C79    C87     1.517   .     S
C80    C81     1.391   .     D
C80    H170    1.069   .     S
C81    H171    1.082   .     S
C82    C83     1.405   .     S
C82    H172    1.082   .     S
C83    C84     1.414   .     D
C83    H173    1.082   .     S
C84    C85     1.396   .     S
C84    C88     1.497   .     S
C85    C86     1.390   .     D
C85    H174    1.073   .     S
C86    H175    1.082   .     S
C87    C89     1.440   .     S
C89    O91     1.427   1_535 S
C90    H176    1.081   .     S
O91    C89     1.427   1_575 S
O91    C92     1.426   .     S
C92    C93     1.563   .     S
C92    H177    1.082   .     S
C92    H178    1.060   .     S
C93    N94     1.472   .     S
C93    C97     1.530   .     S
C93    H179    1.054   .     S
N94    C95     1.459   .     S
N94    C98     1.378   .     S
C95    C96     1.523   .     S
C95    H180    1.108   .     S
C95    H181    1.080   .     S
C96    C97     1.529   .     S
C96    H182    1.099   .     S
C96    H183    1.083   .     S
C97    H184    1.096   .     S
C97    H185    1.086   .     S
C98    O99     1.423   .     S
C98    O104    1.216   .     D
O99    C100    1.510   .     S
C100   C101    1.683   .     S
C100   C102    1.684   .     S
C100   C103    1.155   .     S
C101   H186    1.114   .     S
C101   H187    1.090   .     S
C101   H188    1.111   .     S
C102   H189    1.095   .     S
C102   H190    1.115   .     S
C102   H191    1.115   .     S
C103   H192    1.113   .     S
C103   H193    1.140   .     S
C103   H194    1.123   .     S
O105   C30     1.436   1_665 S
O105   C106    1.438   .     S
C106   C107    1.576   .     S
C106   H195    1.075   .     S
C106   H196    1.052   .     S
C107   C108    1.527   .     S
C107   N111    1.479   .     S
C107   H197    1.050   .     S
C108   C109    1.520   .     S
C108   H198    1.099   .     S
C108   H199    1.076   .     S
C109   C110    1.523   .     S
C109   H200    1.092   .     S
C109   H201    1.091   .     S
C110   N111    1.463   .     S
C110   H202    1.072   .     S
C110   H203    1.109   .     S
N111   C112    1.388   .     S
C112   O113    1.429   .     S
C112   O118    1.214   .     D
O113   C114    1.449   .     S
C114   C115    1.563   .     S
C114   C116    1.588   .     S
C114   C117    1.572   .     S
C115   H204    1.085   .     S
C115   H205    1.088   .     S
C115   H206    1.109   .     S
C116   H207    1.087   .     S
C116   H208    1.104   .     S
C116   H209    1.102   .     S
C117   H210    1.108   .     S
C117   H211    1.091   .     S
C117   H212    1.095   .     S
