data_225
_audit_creation_date              2023-09-08
_audit_creation_method            'Materials Studio'
_symmetry_space_group_name_H-M    'P1'
_symmetry_Int_Tables_number       1
_symmetry_cell_setting            triclinic
loop_
_symmetry_equiv_pos_as_xyz
  x,y,z
_cell_length_a                    37.7150
_cell_length_b                    37.6910
_cell_length_c                    3.5500
_cell_angle_alpha                 90.0117
_cell_angle_beta                  89.9844
_cell_angle_gamma                 120.0100
loop_
_atom_site_label
_atom_site_type_symbol
_atom_site_fract_x
_atom_site_fract_y
_atom_site_fract_z
_atom_site_U_iso_or_equiv
_atom_site_adp_type
_atom_site_occupancy
C1     C     0.47877   0.52351   0.06837   0.00000  Uiso   1.00
C2     C     0.46643   0.48265  -0.02856   0.00000  Uiso   1.00
C3     C     0.49573   0.46971  -0.03724   0.00000  Uiso   1.00
C4     C     0.53673   0.49631   0.06721   0.00000  Uiso   1.00
C5     C     0.54894   0.53707   0.16493   0.00000  Uiso   1.00
C6     C     0.51979   0.55012   0.16961   0.00000  Uiso   1.00
O7     O     0.58969   0.56347   0.27769   0.00000  Uiso   1.00
C8     C     0.60986   0.60400   0.12387   0.00000  Uiso   1.00
O9     O     0.42568   0.45645  -0.14172   0.00000  Uiso   1.00
C10    C     0.40577   0.41557   0.00403   0.00000  Uiso   1.00
C11    C     0.56719   0.48204   0.07282   0.00000  Uiso   1.00
C12    C     0.44862   0.53811   0.07062   0.00000  Uiso   1.00
N13    N     0.46079   0.57713   0.07537   0.00000  Uiso   1.00
N14    N     0.55691   0.44455  -0.01450   0.00000  Uiso   1.00
C15    C     0.43519   0.59551   0.07413   0.00000  Uiso   1.00
C16    C     0.58279   0.42636  -0.01215   0.00000  Uiso   1.00
C17    C     0.56643   0.38628  -0.14640   0.00000  Uiso   1.00
C18    C     0.58957   0.36657  -0.14717   0.00000  Uiso   1.00
C19    C     0.62983   0.38604  -0.00230   0.00000  Uiso   1.00
C20    C     0.64615   0.42649   0.13358   0.00000  Uiso   1.00
C21    C     0.62322   0.44649   0.12647   0.00000  Uiso   1.00
C22    C     0.45228   0.63620  -0.04543   0.00000  Uiso   1.00
C23    C     0.42885   0.65555  -0.05668   0.00000  Uiso   1.00
C24    C     0.38764   0.63517   0.06360   0.00000  Uiso   1.00
C25    C     0.37103   0.59458   0.19718   0.00000  Uiso   1.00
C26    C     0.39431   0.57490   0.19928   0.00000  Uiso   1.00
C27    C     0.65394   0.36396   0.02209   0.00000  Uiso   1.00
C28    C     0.36222   0.65579   0.03647   0.00000  Uiso   1.00
C29    C     0.69677   0.38568   0.03485   0.00000  Uiso   1.00
C30    C     0.31483   0.69589  -0.07350   0.00000  Uiso   1.00
C31    C     0.49562   0.96753  -0.00167   0.00000  Uiso   1.00
C32    C     0.53675   0.99826  -0.07031   0.00000  Uiso   1.00
C33    C     0.54838   0.03955  -0.02318   0.00000  Uiso   1.00
C34    C     0.52052   0.05150   0.10202   0.00000  Uiso   1.00
C35    C     0.47988   0.02122   0.17701   0.00000  Uiso   1.00
C36    C     0.46799   0.97957   0.13289   0.00000  Uiso   1.00
O37    O     0.45232   0.03333   0.30764   0.00000  Uiso   1.00
C38    C     0.41318   0.01535   0.12760   0.00000  Uiso   1.00
O39    O     0.56664   0.98992  -0.21123   0.00000  Uiso   1.00
C40    C     0.57514   0.96290   0.00265   0.00000  Uiso   1.00
C41    C     0.53354   0.09559   0.14480   0.00000  Uiso   1.00
C42    C     0.48070   0.92348  -0.08060   0.00000  Uiso   1.00
N43    N     0.44603   0.89558   0.05894   0.00000  Uiso   1.00
N44    N     0.56966   0.12337   0.03278   0.00000  Uiso   1.00
C45    C     0.42661   0.85175   0.02561   0.00000  Uiso   1.00
C46    C     0.58790   0.16716   0.04487   0.00000  Uiso   1.00
C47    C     0.62614   0.19005  -0.12282   0.00000  Uiso   1.00
C48    C     0.64609   0.23264  -0.12065   0.00000  Uiso   1.00
C49    C     0.63110   0.25402   0.07695   0.00000  Uiso   1.00
C50    C     0.59134   0.23117   0.23306   0.00000  Uiso   1.00
C51    C     0.56963   0.18802   0.21332   0.00000  Uiso   1.00
C52    C     0.38793   0.82885   0.18599   0.00000  Uiso   1.00
C53    C     0.36763   0.78624   0.17821   0.00000  Uiso   1.00
C54    C     0.38295   0.76486  -0.01295   0.00000  Uiso   1.00
C55    C     0.42293   0.78763  -0.16425   0.00000  Uiso   1.00
C56    C     0.44486   0.83081  -0.14195   0.00000  Uiso   1.00
C57    C     0.65590   0.29991   0.08448   0.00000  Uiso   1.00
C58    C     0.35860   0.71897  -0.01557   0.00000  Uiso   1.00
C59    C     0.63428   0.32119   0.04187   0.00000  Uiso   1.00
C60    C     0.31983   0.63306  -0.01955   0.00000  Uiso   1.00
C61    C     0.04987   0.53201  -0.12193   0.00000  Uiso   1.00
C62    C     0.02349   0.54810  -0.16268   0.00000  Uiso   1.00
C63    C     0.98163   0.52370  -0.07827   0.00000  Uiso   1.00
C64    C     0.96520   0.48290   0.04240   0.00000  Uiso   1.00
C65    C     0.99154   0.46606   0.05899   0.00000  Uiso   1.00
C66    C     0.03347   0.49110  -0.01070   0.00000  Uiso   1.00
O67    O     0.97847   0.42572   0.17344   0.00000  Uiso   1.00
C68    C     0.94847   0.39345  -0.05530   0.00000  Uiso   1.00
O69    O     0.03794   0.58630  -0.33534   0.00000  Uiso   1.00
C70    C     0.03779   0.61735  -0.10772   0.00000  Uiso   1.00
C71    C     0.92094   0.45797   0.13748   0.00000  Uiso   1.00
C72    C     0.09466   0.55902  -0.17155   0.00000  Uiso   1.00
N73    N     0.12008   0.54511  -0.15375   0.00000  Uiso   1.00
N74    N     0.89580   0.47205   0.10278   0.00000  Uiso   1.00
C75    C     0.16390   0.57135  -0.14337   0.00000  Uiso   1.00
C76    C     0.85205   0.44582   0.12522   0.00000  Uiso   1.00
C77    C     0.82697   0.45991   0.27860   0.00000  Uiso   1.00
C78    C     0.78408   0.43401   0.28886   0.00000  Uiso   1.00
C79    C     0.76558   0.39425   0.12957   0.00000  Uiso   1.00
C80    C     0.79095   0.38306  -0.05101   0.00000  Uiso   1.00
C81    C     0.83337   0.40697  -0.04137   0.00000  Uiso   1.00
C82    C     0.18987   0.55815  -0.29217   0.00000  Uiso   1.00
C83    C     0.23271   0.58422  -0.28544   0.00000  Uiso   1.00
C84    C     0.25032   0.62337  -0.11436   0.00000  Uiso   1.00
C85    C     0.22397   0.63341   0.06577   0.00000  Uiso   1.00
C86    C     0.18158   0.60928   0.03991   0.00000  Uiso   1.00
C87    C     0.72007   0.36644   0.10039   0.00000  Uiso   1.00
C88    C     0.29571   0.65167  -0.07395   0.00000  Uiso   1.00
C89    C     0.69996   0.32223   0.11972   0.00000  Uiso   1.00
C90    C     0.38055   0.69846   0.05254   0.00000  Uiso   1.00
O91    O     0.71990   2.30237   0.29316   0.00000  Uiso   1.00
C92    C     0.72536   2.23992   0.12575   0.00000  Uiso   1.00
N93    N     0.75740   2.23018   0.22364   0.00000  Uiso   1.00
C94    C     0.79262   2.26773   0.37537   0.00000  Uiso   1.00
C95    C     0.78780   2.30387   0.23621   0.00000  Uiso   1.00
C96    C     0.74340   2.28650   0.09799   0.00000  Uiso   1.00
C97    C     0.74427   2.18960   0.31834   0.00000  Uiso   1.00
O98    O     0.76636   2.16960   0.21369   0.00000  Uiso   1.00
C99    C     0.77290   2.14384   0.47393   0.00000  Uiso   1.00
C100   C     0.78685   2.11314   0.31696   0.00000  Uiso   1.00
C101   C     0.81254   2.17772   0.66091   0.00000  Uiso   1.00
C102   C     0.73018   2.11366   0.66471   0.00000  Uiso   1.00
O103   O     0.70860   2.16818   0.41391   0.00000  Uiso   1.00
O104   O     1.29469   1.71543  -0.24855   0.00000  Uiso   1.00
C105   C     1.28759   1.77705  -0.08939   0.00000  Uiso   1.00
C106   C     1.27069   1.73080  -0.05436   0.00000  Uiso   1.00
C107   C     1.22605   1.71207  -0.18712   0.00000  Uiso   1.00
C108   C     1.21819   1.74711  -0.30570   0.00000  Uiso   1.00
N109   N     1.25494   1.78558  -0.19592   0.00000  Uiso   1.00
C110   C     1.26681   1.82477  -0.32908   0.00000  Uiso   1.00
O111   O     1.24274   1.84384  -0.26961   0.00000  Uiso   1.00
C112   C     1.23896   1.87075  -0.53870   0.00000  Uiso   1.00
C113   C     1.19820   1.83886  -0.72374   0.00000  Uiso   1.00
C114   C     1.28246   1.89929  -0.71691   0.00000  Uiso   1.00
C115   C     1.22792   1.90413  -0.40687   0.00000  Uiso   1.00
O116   O     1.30232   1.84624  -0.42756   0.00000  Uiso   1.00
C117   C     0.83669   2.27810   0.32196   0.00000  Uiso   1.00
O118   O     0.84782   2.25307   0.12475   0.00000  Uiso   1.00
C119   C     0.89062   2.26658   0.08162   0.00000  Uiso   1.00
O120   O     0.86302   2.30990   0.46825   0.00000  Uiso   1.00
C121   C     1.17609   1.73940  -0.17451   0.00000  Uiso   1.00
O122   O     1.15992   1.76282  -0.32186   0.00000  Uiso   1.00
C123   C     1.11911   1.75254  -0.21582   0.00000  Uiso   1.00
O124   O     1.15467   1.70987   0.02646   0.00000  Uiso   1.00
H125   H     0.48659   0.43900  -0.13163   0.00000  Uiso   1.00
H126   H     0.52898   0.58087   0.26211   0.00000  Uiso   1.00
H127   H     0.59019   0.61001  -0.06687   0.00000  Uiso   1.00
H128   H     0.63709   0.60864  -0.03615   0.00000  Uiso   1.00
H129   H     0.62070   0.62692   0.35284   0.00000  Uiso   1.00
H130   H     0.42510   0.40966   0.19986   0.00000  Uiso   1.00
H131   H     0.39620   0.39328  -0.22829   0.00000  Uiso   1.00
H132   H     0.37773   0.40987   0.15480   0.00000  Uiso   1.00
H133   H     0.59825   0.50367   0.15448   0.00000  Uiso   1.00
H134   H     0.41633   0.51590   0.05092   0.00000  Uiso   1.00
H135   H     0.53549   0.37028  -0.25590   0.00000  Uiso   1.00
H136   H     0.57573   0.33626  -0.26837   0.00000  Uiso   1.00
H137   H     0.67622   0.44256   0.26044   0.00000  Uiso   1.00
H138   H     0.63709   0.47704   0.24206   0.00000  Uiso   1.00
H139   H     0.48377   0.65268  -0.14072   0.00000  Uiso   1.00
H140   H     0.44304   0.68624  -0.17046   0.00000  Uiso   1.00
H141   H     0.34027   0.57807   0.30888   0.00000  Uiso   1.00
H142   H     0.38062   0.54405   0.30903   0.00000  Uiso   1.00
H143   H     0.71255   0.41841  -0.00920   0.00000  Uiso   1.00
H144   H     0.57971   0.06247  -0.08723   0.00000  Uiso   1.00
H145   H     0.43687   0.95653   0.20165   0.00000  Uiso   1.00
H146   H     0.40796  -0.00894  -0.07784   0.00000  Uiso   1.00
H147   H     0.41060   0.03981  -0.02158   0.00000  Uiso   1.00
H148   H     0.38857   0.00190   0.34132   0.00000  Uiso   1.00
H149   H     0.57555   0.93974  -0.18691   0.00000  Uiso   1.00
H150   H     0.55223   0.94625   0.22524   0.00000  Uiso   1.00
H151   H     0.60589   0.98081   0.13263   0.00000  Uiso   1.00
H152   H     0.51253   0.10425   0.26238   0.00000  Uiso   1.00
H153   H     0.49879   0.91492  -0.25315   0.00000  Uiso   1.00
H154   H     0.63987   0.17467  -0.26852   0.00000  Uiso   1.00
H155   H     0.67302   0.24963  -0.28449   0.00000  Uiso   1.00
H156   H     0.57759   0.24631   0.38193   0.00000  Uiso   1.00
H157   H     0.53977   0.17153   0.34315   0.00000  Uiso   1.00
H158   H     0.37421   0.84420   0.33240   0.00000  Uiso   1.00
H159   H     0.34036   0.76907   0.33564   0.00000  Uiso   1.00
H160   H     0.43689   0.77222  -0.30538   0.00000  Uiso   1.00
H161   H     0.47526   0.84727  -0.26151   0.00000  Uiso   1.00
H162   H     0.60132   0.30377   0.02656   0.00000  Uiso   1.00
H163   H     0.30525   0.60008  -0.02433   0.00000  Uiso   1.00
H164   H     0.96176   0.53644  -0.11717   0.00000  Uiso   1.00
H165   H     0.05331   0.47824   0.02374   0.00000  Uiso   1.00
H166   H     0.96262   0.37728  -0.19592   0.00000  Uiso   1.00
H167   H     0.93481   0.40437  -0.26914   0.00000  Uiso   1.00
H168   H     0.92327   0.37111   0.12542   0.00000  Uiso   1.00
H169   H     0.04299   0.64341  -0.28999   0.00000  Uiso   1.00
H170   H     0.06361   0.62914   0.09441   0.00000  Uiso   1.00
H171   H     0.00809   0.60622   0.03960   0.00000  Uiso   1.00
H172   H     0.90883   0.42662   0.22594   0.00000  Uiso   1.00
H173   H     0.10638   0.59157  -0.20668   0.00000  Uiso   1.00
H174   H     0.84060   0.49034   0.39878   0.00000  Uiso   1.00
H175   H     0.76563   0.44504   0.42236   0.00000  Uiso   1.00
H176   H     0.77692   0.35736  -0.22914   0.00000  Uiso   1.00
H177   H     0.85144   0.39650  -0.19124   0.00000  Uiso   1.00
H178   H     0.17695   0.52843  -0.42592   0.00000  Uiso   1.00
H179   H     0.25167   0.57393  -0.42064   0.00000  Uiso   1.00
H180   H     0.23698   0.65865   0.25213   0.00000  Uiso   1.00
H181   H     0.16274   0.61890   0.18818   0.00000  Uiso   1.00
H182   H     0.41277   0.71636   0.12017   0.00000  Uiso   1.00
H183   H     0.69918   2.22633   0.31640   0.00000  Uiso   1.00
H184   H     0.71260   2.22442  -0.13769   0.00000  Uiso   1.00
H185   H     0.78888   2.26524   0.67164   0.00000  Uiso   1.00
H186   H     0.80987   2.31997   0.00751   0.00000  Uiso   1.00
H187   H     0.79790   2.32815   0.44230   0.00000  Uiso   1.00
H188   H     0.74431   2.29292  -0.19067   0.00000  Uiso   1.00
H189   H     0.78773   2.10941   0.01838   0.00000  Uiso   1.00
H190   H     0.76727   2.08103   0.41397   0.00000  Uiso   1.00
H191   H     0.81806   2.12080   0.41018   0.00000  Uiso   1.00
H192   H     0.83740   2.19087   0.45198   0.00000  Uiso   1.00
H193   H     0.82750   2.16982   0.88108   0.00000  Uiso   1.00
H194   H     0.80842   2.20369   0.72965   0.00000  Uiso   1.00
H195   H     0.72834   2.08806   0.83070   0.00000  Uiso   1.00
H196   H     0.70766   2.09742   0.43738   0.00000  Uiso   1.00
H197   H     0.71558   2.12701   0.83464   0.00000  Uiso   1.00
H198   H     1.31404   1.79118  -0.27589   0.00000  Uiso   1.00
H199   H     1.29984   1.79276   0.17352   0.00000  Uiso   1.00
H200   H     1.27020   1.72482   0.23537   0.00000  Uiso   1.00
H201   H     1.20533   1.69368   0.03889   0.00000  Uiso   1.00
H202   H     1.21733   1.68888  -0.40203   0.00000  Uiso   1.00
H203   H     1.21772   1.74766  -0.60592   0.00000  Uiso   1.00
H204   H     1.19848   1.81069  -0.80194   0.00000  Uiso   1.00
H205   H     1.18557   1.84870  -0.94190   0.00000  Uiso   1.00
H206   H     1.17307   1.82846  -0.51775   0.00000  Uiso   1.00
H207   H     1.28724   1.92722  -0.85661   0.00000  Uiso   1.00
H208   H     1.29582   1.88520  -0.89108   0.00000  Uiso   1.00
H209   H     1.30471   1.91311  -0.48305   0.00000  Uiso   1.00
H210   H     1.19770   1.89458  -0.28272   0.00000  Uiso   1.00
H211   H     1.22487   1.91919  -0.66261   0.00000  Uiso   1.00
H212   H     1.25191   1.93075  -0.25762   0.00000  Uiso   1.00
H213   H     0.89797   2.26797  -0.21616   0.00000  Uiso   1.00
H214   H     0.89749   2.24376   0.20698   0.00000  Uiso   1.00
H215   H     0.91178   2.29737   0.19906   0.00000  Uiso   1.00
H216   H     1.10210   1.72369  -0.05351   0.00000  Uiso   1.00
H217   H     1.10073   1.74880  -0.46931   0.00000  Uiso   1.00
H218   H     1.12046   1.77825  -0.05288   0.00000  Uiso   1.00
loop_
_geom_bond_atom_site_label_1
_geom_bond_atom_site_label_2
_geom_bond_distance
_geom_bond_site_symmetry_2
_ccdc_geom_bond_type
C1     C2      1.411   .     S
C1     C6      1.406   .     D
C1     C12     1.491   .     S
C2     C3      1.414   .     D
C2     O9      1.407   .     S
C3     C4      1.408   .     S
C3     H125    1.082   .     S
C4     C5      1.409   .     D
C4     C11     1.492   .     S
C5     C6      1.411   .     S
C5     O7      1.408   .     S
C6     H126    1.081   .     S
O7     C8      1.431   .     S
C8     H127    1.108   .     S
C8     H128    1.108   .     S
C8     H129    1.105   .     S
O9     C10     1.431   .     S
C10    H130    1.108   .     S
C10    H131    1.101   .     S
C10    H132    1.106   .     S
C11    N14     1.302   .     D
C11    H133    1.080   .     S
C12    N13     1.303   .     D
C12    H134    1.081   .     S
N13    C15     1.443   .     S
N14    C16     1.446   .     S
C15    C22     1.400   .     S
C15    C26     1.407   .     D
C16    C17     1.399   .     S
C16    C21     1.409   .     D
C17    C18     1.401   .     D
C17    H135    1.083   .     S
C18    C19     1.412   .     S
C18    H136    1.080   .     S
C19    C20     1.413   .     D
C19    C27     1.511   .     S
C20    C21     1.403   .     S
C20    H137    1.081   .     S
C21    H138    1.079   .     S
C22    C23     1.400   .     D
C22    H139    1.083   .     S
C23    C24     1.412   .     S
C23    H140    1.081   .     S
C24    C25     1.414   .     D
C24    C28     1.509   .     S
C25    C26     1.405   .     S
C25    H141    1.081   .     S
C26    H142    1.082   .     S
C27    C29     1.400   .     S
C27    C59     1.399   .     D
C28    C60     1.400   .     D
C28    C90     1.398   .     S
C29    C87     1.411   .     D
C29    H143    1.080   .     S
C30    C58     1.445   .     S
C30    C88     1.448   .     D
C30    O104    1.437   1_445 S
C31    C32     1.418   .     D
C31    C36     1.412   .     S
C31    C42     1.489   .     S
C32    C33     1.400   1_565 S
C32    O39     1.405   .     S
C33    C32     1.400   1_545 S
C33    C34     1.406   .     D
C33    H144    1.083   .     S
C34    C35     1.405   .     S
C34    C41     1.486   .     S
C35    C36     1.409   1_545 D
C35    O37     1.406   .     S
C36    C35     1.409   1_565 D
C36    H145    1.082   .     S
O37    C38     1.431   .     S
C38    H146    1.108   .     S
C38    H147    1.109   .     S
C38    H148    1.106   .     S
O39    C40     1.429   .     S
C40    H149    1.108   .     S
C40    H150    1.106   .     S
C40    H151    1.109   .     S
C41    N44     1.297   .     D
C41    H152    1.080   .     S
C42    N43     1.298   .     D
C42    H153    1.079   .     S
N43    C45     1.438   .     S
N44    C46     1.436   .     S
C45    C52     1.392   .     D
C45    C56     1.412   .     S
C46    C47     1.391   .     D
C46    C51     1.411   .     S
C47    C48     1.391   .     S
C47    H154    1.082   .     S
C48    C49     1.384   .     D
C48    H155    1.063   .     S
C49    C50     1.416   .     S
C49    C57     1.500   .     S
C50    C51     1.410   .     D
C50    H156    1.081   .     S
C51    H157    1.080   .     S
C52    C53     1.391   .     S
C52    H158    1.083   .     S
C53    C54     1.382   .     D
C53    H159    1.060   .     S
C54    C55     1.416   .     S
C54    C58     1.499   .     S
C55    C56     1.412   .     D
C55    H160    1.082   .     S
C56    H161    1.081   .     S
C57    C59     1.409   .     S
C57    C89     1.444   .     D
C58    C90     1.408   .     D
C59    H162    1.078   .     S
C60    C88     1.413   .     S
C60    H163    1.079   .     S
C61    C62     1.408   .     D
C61    C66     1.401   .     S
C61    C72     1.483   .     S
C62    C63     1.406   1_455 S
C62    O69     1.400   .     S
C63    C62     1.406   1_655 S
C63    C64     1.407   .     D
C63    H164    1.082   .     S
C64    C65     1.423   .     S
C64    C71     1.488   .     S
C65    C66     1.400   1_655 D
C65    O67     1.404   .     S
C66    C65     1.400   1_455 D
C66    H165    1.083   .     S
O67    C68     1.429   .     S
C68    H166    1.109   .     S
C68    H167    1.106   .     S
C68    H168    1.106   .     S
O69    C70     1.424   .     S
C70    H169    1.109   .     S
C70    H170    1.108   .     S
C70    H171    1.111   .     S
C71    N74     1.304   .     D
C71    H172    1.079   .     S
C72    N73     1.304   .     D
C72    H173    1.083   .     S
N73    C75     1.441   .     S
N74    C76     1.440   .     S
C75    C82     1.405   .     D
C75    C86     1.399   .     S
C76    C77     1.405   .     D
C76    C81     1.399   .     S
C77    C78     1.411   .     S
C77    H174    1.083   .     S
C78    C79     1.416   .     D
C78    H175    1.082   .     S
C79    C80     1.381   .     S
C79    C87     1.502   .     S
C80    C81     1.389   .     D
C80    H176    1.051   .     S
C81    H177    1.083   .     S
C82    C83     1.410   .     S
C82    H178    1.082   .     S
C83    C84     1.417   .     D
C83    H179    1.081   .     S
C84    C85     1.384   .     S
C84    C88     1.504   .     S
C85    C86     1.392   .     D
C85    H180    1.057   .     S
C86    H181    1.082   .     S
C87    C89     1.447   .     S
C89    O91     1.438   1_535 S
C90    H182    1.081   .     S
O91    C89     1.438   1_575 S
O91    C96     1.467   .     S
C92    N93     1.470   .     S
C92    C96     1.536   .     S
C92    H183    1.091   .     S
C92    H184    1.080   .     S
N93    C94     1.476   .     S
N93    C97     1.393   .     S
C94    C95     1.543   .     S
C94    C117    1.517   .     S
C94    H185    1.059   .     S
C95    C96     1.542   .     S
C95    H186    1.102   .     S
C95    H187    1.081   .     S
C96    H188    1.050   .     S
C97    O98     1.424   .     S
C97    O103    1.221   .     D
O98    C99     1.448   .     S
C99    C100    1.592   .     S
C99    C101    1.548   .     S
C99    C102    1.586   .     S
C100   H189    1.072   .     S
C100   H190    1.111   .     S
C100   H191    1.113   .     S
C101   H192    1.100   .     S
C101   H193    1.089   .     S
C101   H194    1.093   .     S
C102   H195    1.103   .     S
C102   H196    1.108   .     S
C102   H197    1.094   .     S
O104   C30     1.437   1_665 S
O104   C106    1.468   .     S
C105   C106    1.533   .     S
C105   N109    1.469   .     S
C105   H198    1.089   .     S
C105   H199    1.078   .     S
C106   C107    1.538   .     S
C106   H200    1.051   .     S
C107   C108    1.550   .     S
C107   H201    1.092   .     S
C107   H202    1.080   .     S
C108   N109    1.471   .     S
C108   C121    1.536   .     S
C108   H203    1.066   .     S
N109   C110    1.394   .     S
C110   O111    1.428   .     S
C110   O116    1.219   .     D
O111   C112    1.451   .     S
C112   C113    1.546   .     S
C112   C114    1.576   .     S
C112   C115    1.581   .     S
C113   H204    1.103   .     S
C113   H205    1.068   .     S
C113   H206    1.102   .     S
C114   H207    1.094   .     S
C114   H208    1.089   .     S
C114   H209    1.108   .     S
C115   H210    1.101   .     S
C115   H211    1.107   .     S
C115   H212    1.095   .     S
C117   O118    1.397   .     S
C117   O120    1.225   .     D
O118   C119    1.437   .     S
C119   H213    1.087   .     S
C119   H214    1.108   .     S
C119   H215    1.110   .     S
C121   O122    1.401   .     S
C121   O124    1.225   .     D
O122   C123    1.437   .     S
C123   H216    1.108   .     S
C123   H217    1.101   .     S
C123   H218    1.108   .     S
