data_227
_audit_creation_date              2023-09-08
_audit_creation_method            'Materials Studio'
_symmetry_space_group_name_H-M    'P1'
_symmetry_Int_Tables_number       1
_symmetry_cell_setting            triclinic
loop_
_symmetry_equiv_pos_as_xyz
  x,y,z
_cell_length_a                    35.9164
_cell_length_b                    35.8973
_cell_length_c                    3.6000
_cell_angle_alpha                 90.0000
_cell_angle_beta                  90.0000
_cell_angle_gamma                 90.3220
loop_
_atom_site_label
_atom_site_type_symbol
_atom_site_fract_x
_atom_site_fract_y
_atom_site_fract_z
_atom_site_U_iso_or_equiv
_atom_site_adp_type
_atom_site_occupancy
C1     C     0.48198   0.68198   1.38889   0.00000  Uiso   1.00
C2     C     0.54108   0.64973   1.38889   0.00000  Uiso   1.00
C3     C     0.52051   0.61684   1.38889   0.00000  Uiso   1.00
C4     C     0.53329   0.57899   1.38889   0.00000  Uiso   1.00
O5     O     0.53179   0.71633   1.38889   0.00000  Uiso   1.00
H6     H     0.57062   0.64994   1.38889   0.00000  Uiso   1.00
C7     C     0.31761   0.48132   1.38889   0.00000  Uiso   1.00
C8     C     0.35053   0.54052   1.38889   0.00000  Uiso   1.00
C9     C     0.38321   0.51999   1.38889   0.00000  Uiso   1.00
C10    C     0.42153   0.53302   1.38889   0.00000  Uiso   1.00
O11    O     0.28389   0.53121   1.38889   0.00000  Uiso   1.00
H12    H     0.35061   0.57005   1.38889   0.00000  Uiso   1.00
N13    N     0.56744   0.56940   1.38889   0.00000  Uiso   1.00
C14    C     0.51802   0.31801   1.38889   0.00000  Uiso   1.00
C15    C     0.45893   0.35026   1.38889   0.00000  Uiso   1.00
C16    C     0.47949   0.38315   1.38889   0.00000  Uiso   1.00
C17    C     0.46671   0.42103   1.38889   0.00000  Uiso   1.00
O18    O     0.46821   0.28366   1.38889   0.00000  Uiso   1.00
H19    H     0.42939   0.35006   1.38889   0.00000  Uiso   1.00
C20    C     0.68239   0.51868   1.38889   0.00000  Uiso   1.00
C21    C     0.64947   0.45948   1.38889   0.00000  Uiso   1.00
C22    C     0.61679   0.48004   1.38889   0.00000  Uiso   1.00
C23    C     0.57847   0.46698   1.38889   0.00000  Uiso   1.00
O24    O     0.71611   0.46881   1.38889   0.00000  Uiso   1.00
H25    H     0.64939   0.42995   1.38889   0.00000  Uiso   1.00
N26    N     0.43256   0.43059   1.38889   0.00000  Uiso   1.00
C27    C     0.52035   0.68231   1.38889   0.00000  Uiso   1.00
C28    C     0.46141   0.64906   1.38889   0.00000  Uiso   1.00
C29    C     0.48217   0.61652   1.38889   0.00000  Uiso   1.00
C30    C     0.46961   0.57843   1.38889   0.00000  Uiso   1.00
O31    O     0.47034   0.71579   1.38889   0.00000  Uiso   1.00
H32    H     0.43187   0.64877   1.38889   0.00000  Uiso   1.00
C33    C     0.68225   0.48026   1.38889   0.00000  Uiso   1.00
C34    C     0.64975   0.53932   1.38889   0.00000  Uiso   1.00
C35    C     0.61694   0.51862   1.38889   0.00000  Uiso   1.00
C36    C     0.57872   0.53150   1.38889   0.00000  Uiso   1.00
O37    O     0.71634   0.53029   1.38889   0.00000  Uiso   1.00
H38    H     0.64985   0.56885   1.38889   0.00000  Uiso   1.00
N39    N     0.43180   0.56721   1.38889   0.00000  Uiso   1.00
C40    C     0.47966   0.31769   1.38889   0.00000  Uiso   1.00
C41    C     0.53859   0.35093   1.38889   0.00000  Uiso   1.00
C42    C     0.51783   0.38348   1.38889   0.00000  Uiso   1.00
C43    C     0.53039   0.42157   1.38889   0.00000  Uiso   1.00
O44    O     0.52967   0.28420   1.38889   0.00000  Uiso   1.00
H45    H     0.56813   0.35122   1.38889   0.00000  Uiso   1.00
C46    C     0.31775   0.51973   1.38889   0.00000  Uiso   1.00
C47    C     0.35026   0.46068   1.38889   0.00000  Uiso   1.00
C48    C     0.38307   0.48138   1.38889   0.00000  Uiso   1.00
C49    C     0.42128   0.46850   1.38889   0.00000  Uiso   1.00
O50    O     0.28367   0.46973   1.38889   0.00000  Uiso   1.00
H51    H     0.35012   0.43115   1.38889   0.00000  Uiso   1.00
N52    N     0.56820   0.43279   1.38889   0.00000  Uiso   1.00
B53    B     0.50098   0.73753   1.38889   0.00000  Uiso   1.00
N54    N     0.50156   0.55297   1.38889   0.00000  Uiso   1.00
B55    B     0.49902   0.26247   1.38889   0.00000  Uiso   1.00
N56    N     0.49844   0.44703   1.38889   0.00000  Uiso   1.00
B57    B     0.26234   0.50041   1.38889   0.00000  Uiso   1.00
N58    N     0.44438   0.50080   1.38889   0.00000  Uiso   1.00
B59    B     0.73766   0.49958   1.38889   0.00000  Uiso   1.00
N60    N     0.55562   0.49922   1.38889   0.00000  Uiso   1.00
C61    C     0.01976   0.50003   1.38889   0.00000  Uiso   1.00
C62    C     0.02003   0.56656   1.38889   0.00000  Uiso   1.00
C63    C     0.01949   0.43349   1.38889   0.00000  Uiso   1.00
C64    C     0.03960   0.53333   1.38889   0.00000  Uiso   1.00
C65    C     0.07885   0.53339   1.38889   0.00000  Uiso   1.00
C66    C     0.03933   0.46679   1.38889   0.00000  Uiso   1.00
C67    C     0.07858   0.46686   1.38889   0.00000  Uiso   1.00
C68    C     0.14004   0.50022   1.38889   0.00000  Uiso   1.00
C69    C     0.16122   0.53352   1.38889   0.00000  Uiso   1.00
C70    C     0.20026   0.53358   1.38889   0.00000  Uiso   1.00
C71    C     0.16095   0.46699   1.38889   0.00000  Uiso   1.00
C72    C     0.20000   0.46705   1.38889   0.00000  Uiso   1.00
C73    C     0.22034   0.50034   1.38889   0.00000  Uiso   1.00
O74    O     0.09551   0.56408   1.38889   0.00000  Uiso   1.00
O75    O     0.09500   0.43621   1.38889   0.00000  Uiso   1.00
N76    N     0.09869   0.50015   1.38889   0.00000  Uiso   1.00
H77    H     0.03527   0.59281   1.38889   0.00000  Uiso   1.00
H78    H     0.14728   0.56031   1.38889   0.00000  Uiso   1.00
H79    H     0.21550   0.55983   1.38889   0.00000  Uiso   1.00
H80    H     0.03452   0.40729   1.38889   0.00000  Uiso   1.00
H81    H     0.14679   0.44014   1.38889   0.00000  Uiso   1.00
H82    H     0.21502   0.44084   1.38889   0.00000  Uiso   1.00
C83    C     0.98024   0.49997   1.38889   0.00000  Uiso   1.00
C84    C     0.97997   0.43343   1.38889   0.00000  Uiso   1.00
C85    C     0.98051   0.56650   1.38889   0.00000  Uiso   1.00
C86    C     0.96041   0.46667   1.38889   0.00000  Uiso   1.00
C87    C     0.92115   0.46661   1.38889   0.00000  Uiso   1.00
C88    C     0.96067   0.53320   1.38889   0.00000  Uiso   1.00
C89    C     0.92142   0.53314   1.38889   0.00000  Uiso   1.00
C90    C     0.85996   0.49978   1.38889   0.00000  Uiso   1.00
C91    C     0.83878   0.46648   1.38889   0.00000  Uiso   1.00
C92    C     0.79974   0.46642   1.38889   0.00000  Uiso   1.00
C93    C     0.83905   0.53301   1.38889   0.00000  Uiso   1.00
C94    C     0.80001   0.53295   1.38889   0.00000  Uiso   1.00
C95    C     0.77967   0.49965   1.38889   0.00000  Uiso   1.00
O96    O     0.90449   0.43591   1.38889   0.00000  Uiso   1.00
O97    O     0.90501   0.56378   1.38889   0.00000  Uiso   1.00
N98    N     0.90132   0.49984   1.38889   0.00000  Uiso   1.00
H99    H     0.96473   0.40718   1.38889   0.00000  Uiso   1.00
H100   H     0.85272   0.43968   1.38889   0.00000  Uiso   1.00
H101   H     0.78450   0.44017   1.38889   0.00000  Uiso   1.00
H102   H     0.96548   0.59270   1.38889   0.00000  Uiso   1.00
H103   H     0.85321   0.55985   1.38889   0.00000  Uiso   1.00
H104   H     0.78498   0.55915   1.38889   0.00000  Uiso   1.00
C105   C     0.49993   0.01977   1.38889   0.00000  Uiso   1.00
C106   C     0.43343   0.01914   1.38889   0.00000  Uiso   1.00
C107   C     0.56643   0.02039   1.38889   0.00000  Uiso   1.00
C108   C     0.46660   0.03917   1.38889   0.00000  Uiso   1.00
C109   C     0.46646   0.07844   1.38889   0.00000  Uiso   1.00
C110   C     0.53310   0.03979   1.38889   0.00000  Uiso   1.00
C111   C     0.53295   0.07906   1.38889   0.00000  Uiso   1.00
C112   C     0.49948   0.14011   1.38889   0.00000  Uiso   1.00
C113   C     0.46615   0.16085   1.38889   0.00000  Uiso   1.00
C114   C     0.46601   0.19991   1.38889   0.00000  Uiso   1.00
C115   C     0.53265   0.16148   1.38889   0.00000  Uiso   1.00
C116   C     0.53250   0.20054   1.38889   0.00000  Uiso   1.00
C117   C     0.49918   0.22044   1.38889   0.00000  Uiso   1.00
O118   O     0.43574   0.09470   1.38889   0.00000  Uiso   1.00
O119   O     0.56355   0.09590   1.38889   0.00000  Uiso   1.00
N120   N     0.49963   0.09873   1.38889   0.00000  Uiso   1.00
H121   H     0.40716   0.03404   1.38889   0.00000  Uiso   1.00
H122   H     0.43940   0.14654   1.38889   0.00000  Uiso   1.00
H123   H     0.43974   0.21481   1.38889   0.00000  Uiso   1.00
H124   H     0.59258   0.03578   1.38889   0.00000  Uiso   1.00
H125   H     0.55950   0.14767   1.38889   0.00000  Uiso   1.00
H126   H     0.55865   0.21592   1.38889   0.00000  Uiso   1.00
C127   C     0.50008   0.98023   1.38889   0.00000  Uiso   1.00
C128   C     0.56658   0.98085   1.38889   0.00000  Uiso   1.00
C129   C     0.43358   0.97961   1.38889   0.00000  Uiso   1.00
C130   C     0.53340   0.96083   1.38889   0.00000  Uiso   1.00
C131   C     0.53354   0.92156   1.38889   0.00000  Uiso   1.00
C132   C     0.46690   0.96021   1.38889   0.00000  Uiso   1.00
C133   C     0.46705   0.92093   1.38889   0.00000  Uiso   1.00
C134   C     0.50052   0.85989   1.38889   0.00000  Uiso   1.00
C135   C     0.53385   0.83914   1.38889   0.00000  Uiso   1.00
C136   C     0.53400   0.80008   1.38889   0.00000  Uiso   1.00
C137   C     0.46735   0.83852   1.38889   0.00000  Uiso   1.00
C138   C     0.46750   0.79946   1.38889   0.00000  Uiso   1.00
C139   C     0.50082   0.77955   1.38889   0.00000  Uiso   1.00
O140   O     0.56426   0.90529   1.38889   0.00000  Uiso   1.00
O141   O     0.43646   0.90410   1.38889   0.00000  Uiso   1.00
N142   N     0.50037   0.90126   1.38889   0.00000  Uiso   1.00
H143   H     0.59284   0.96596   1.38889   0.00000  Uiso   1.00
H144   H     0.56060   0.85345   1.38889   0.00000  Uiso   1.00
H145   H     0.56026   0.78518   1.38889   0.00000  Uiso   1.00
H146   H     0.40742   0.96422   1.38889   0.00000  Uiso   1.00
H147   H     0.44050   0.85233   1.38889   0.00000  Uiso   1.00
H148   H     0.44135   0.78407   1.38889   0.00000  Uiso   1.00
Ni149  Ni    0.50000   0.50000   0.39000   0.00000  Uiso   1.00
loop_
_geom_bond_atom_site_label_1
_geom_bond_atom_site_label_2
_geom_bond_distance
_geom_bond_site_symmetry_2
_ccdc_geom_bond_type
C1     C27     1.378   .     D
C1     C28     1.390   .     S
C1     O31     1.286   .     S
C2     C3      1.389   .     D
C2     H6      1.061   .     S
C2     C27     1.390   .     S
C3     C4      1.437   .     S
C3     C29     1.377   .     S
C4     N13     1.276   .     D
C4     N54     1.470   .     S
O5     C27     1.286   .     S
O5     B53     1.346   .     S
C7     C46     1.379   .     S
C7     C47     1.391   .     D
C7     O50     1.286   .     S
C8     C9      1.389   .     S
C8     H12     1.060   .     S
C8     C46     1.390   .     D
C9     C10     1.451   .     S
C9     C48     1.386   .     D
C10    N39     1.280   .     D
C10    N58     1.422   .     S
O11    C46     1.286   .     S
O11    B57     1.346   .     S
N13    C36     1.422   .     S
C14    C40     1.378   .     S
C14    C41     1.390   .     D
C14    O44     1.286   .     S
C15    C16     1.389   .     S
C15    H19     1.061   .     S
C15    C40     1.390   .     D
C16    C17     1.438   .     S
C16    C42     1.377   .     D
C17    N26     1.275   .     D
C17    N56     1.469   .     S
O18    C40     1.286   .     S
O18    B55     1.346   .     S
C20    C33     1.379   .     S
C20    C34     1.391   .     D
C20    O37     1.286   .     S
C21    C22     1.390   .     S
C21    H25     1.060   .     S
C21    C33     1.390   .     D
C22    C23     1.452   .     S
C22    C35     1.385   .     D
C23    N52     1.280   .     D
C23    N60     1.423   .     S
O24    C33     1.286   .     S
O24    B59     1.345   .     S
N26    C49     1.422   .     S
C28    C29     1.389   .     D
C28    H32     1.061   .     S
C29    C30     1.437   .     S
C30    N39     1.414   .     S
C30    N54     1.471   .     D
O31    B53     1.346   .     S
C34    C35     1.390   .     S
C34    H38     1.060   .     S
C35    C36     1.451   .     S
C36    N60     1.421   .     D
O37    B59     1.346   .     S
C41    C42     1.389   .     S
C41    H45     1.061   .     S
C42    C43     1.437   .     S
C43    N52     1.414   .     S
C43    N56     1.471   .     D
O44    B55     1.346   .     S
C47    C48     1.390   .     S
C47    H51     1.060   .     S
C48    C49     1.451   .     S
C49    N58     1.422   .     D
O50    B57     1.345   .     S
B53    C139    1.509   .     S
N54    Ni149   1.902   1_556 S
B55    C117    1.509   .     S
N56    Ni149   1.902   1_556 S
B57    C73     1.509   .     S
N58    Ni149   1.998   1_556 S
B59    C95     1.509   .     S
N60    Ni149   1.998   1_556 S
C61    C64     1.388   .     D
C61    C66     1.388   .     S
C61    C83     1.419   1_455 S
C62    C64     1.388   .     S
C62    H77     1.087   .     S
C62    C85     1.419   1_455 D
C63    C66     1.388   .     D
C63    H80     1.087   .     S
C63    C84     1.419   1_455 S
C64    C65     1.410   .     S
C65    O74     1.251   .     D
C65    N76     1.393   .     S
C66    C67     1.410   .     S
C67    O75     1.251   .     D
C67    N76     1.393   .     S
C68    C69     1.413   .     D
C68    C71     1.413   .     S
C68    N76     1.485   .     S
C69    C70     1.402   .     S
C69    H78     1.087   .     S
C70    C73     1.397   .     D
C70    H79     1.087   .     S
C71    C72     1.402   .     D
C71    H81     1.087   .     S
C72    C73     1.397   .     S
C72    H82     1.087   .     S
C83    C61     1.419   1_655 S
C83    C86     1.388   .     S
C83    C88     1.388   .     D
C84    C63     1.419   1_655 S
C84    C86     1.388   .     D
C84    H99     1.087   .     S
C85    C62     1.419   1_655 D
C85    C88     1.388   .     S
C85    H102    1.087   .     S
C86    C87     1.410   .     S
C87    O96     1.251   .     D
C87    N98     1.393   .     S
C88    C89     1.410   .     S
C89    O97     1.251   .     D
C89    N98     1.393   .     S
C90    C91     1.413   .     D
C90    C93     1.413   .     S
C90    N98     1.485   .     S
C91    C92     1.402   .     S
C91    H100    1.087   .     S
C92    C95     1.397   .     D
C92    H101    1.087   .     S
C93    C94     1.402   .     D
C93    H103    1.087   .     S
C94    C95     1.397   .     S
C94    H104    1.087   .     S
C105   C108    1.388   .     S
C105   C110    1.388   .     S
C105   C127    1.419   1_545 D
C106   C108    1.388   .     D
C106   H121    1.087   .     S
C106   C129    1.419   1_545 S
C107   C110    1.388   .     D
C107   H124    1.087   .     S
C107   C128    1.419   1_545 S
C108   C109    1.410   .     S
C109   O118    1.251   .     D
C109   N120    1.393   .     S
C110   C111    1.410   .     S
C111   O119    1.251   .     D
C111   N120    1.393   .     S
C112   C113    1.413   .     S
C112   C115    1.413   .     D
C112   N120    1.485   .     S
C113   C114    1.402   .     D
C113   H122    1.087   .     S
C114   C117    1.397   .     S
C114   H123    1.087   .     S
C115   C116    1.402   .     S
C115   H125    1.087   .     S
C116   C117    1.397   .     D
C116   H126    1.087   .     S
C127   C105    1.419   1_565 D
C127   C130    1.388   .     S
C127   C132    1.388   .     S
C128   C107    1.419   1_565 S
C128   C130    1.388   .     D
C128   H143    1.087   .     S
C129   C106    1.419   1_565 S
C129   C132    1.388   .     D
C129   H146    1.087   .     S
C130   C131    1.410   .     S
C131   O140    1.251   .     D
C131   N142    1.393   .     S
C132   C133    1.410   .     S
C133   O141    1.251   .     D
C133   N142    1.393   .     S
C134   C135    1.413   .     D
C134   C137    1.413   .     S
C134   N142    1.485   .     S
C135   C136    1.402   .     S
C135   H144    1.087   .     S
C136   C139    1.397   .     D
C136   H145    1.087   .     S
C137   C138    1.402   .     D
C137   H147    1.087   .     S
C138   C139    1.397   .     S
C138   H148    1.087   .     S
Ni149  N58     1.998   1_554 S
Ni149  N60     1.998   1_554 S
Ni149  N54     1.902   1_554 S
Ni149  N56     1.902   1_554 S
