data_228
_audit_creation_date              2023-09-08
_audit_creation_method            'Materials Studio'
_symmetry_space_group_name_H-M    'P1'
_symmetry_Int_Tables_number       1
_symmetry_cell_setting            triclinic
loop_
_symmetry_equiv_pos_as_xyz
  x,y,z
_cell_length_a                    40.6130
_cell_length_b                    40.6130
_cell_length_c                    3.5218
_cell_angle_alpha                 90.0000
_cell_angle_beta                  90.0000
_cell_angle_gamma                 90.0000
loop_
_atom_site_label
_atom_site_type_symbol
_atom_site_fract_x
_atom_site_fract_y
_atom_site_fract_z
_atom_site_U_iso_or_equiv
_atom_site_adp_type
_atom_site_occupancy
C1     C     0.48271   0.66087   0.50000   0.00000  Uiso   1.00
C2     C     0.53540   0.63138   0.50000   0.00000  Uiso   1.00
C3     C     0.51721   0.60177   0.50000   0.00000  Uiso   1.00
C4     C     0.52712   0.56897   0.50000   0.00000  Uiso   1.00
C5     C     0.51730   0.33913   0.50000   0.00000  Uiso   1.00
C6     C     0.46460   0.36862   0.50000   0.00000  Uiso   1.00
C7     C     0.48279   0.39824   0.50000   0.00000  Uiso   1.00
C8     C     0.47288   0.43103   0.50000   0.00000  Uiso   1.00
C9     C     0.33913   0.48271   0.50000   0.00000  Uiso   1.00
C10    C     0.36862   0.53540   0.50000   0.00000  Uiso   1.00
C11    C     0.39824   0.51721   0.50000   0.00000  Uiso   1.00
C12    C     0.43103   0.52712   0.50000   0.00000  Uiso   1.00
C13    C     0.66087   0.51730   0.50000   0.00000  Uiso   1.00
C14    C     0.63138   0.46460   0.50000   0.00000  Uiso   1.00
C15    C     0.60177   0.48279   0.50000   0.00000  Uiso   1.00
C16    C     0.56897   0.47288   0.50000   0.00000  Uiso   1.00
C17    C     0.51730   0.66087   0.50000   0.00000  Uiso   1.00
C18    C     0.46460   0.63138   0.50000   0.00000  Uiso   1.00
C19    C     0.48279   0.60177   0.50000   0.00000  Uiso   1.00
C20    C     0.47288   0.56897   0.50000   0.00000  Uiso   1.00
C21    C     0.48271   0.33913   0.50000   0.00000  Uiso   1.00
C22    C     0.53540   0.36862   0.50000   0.00000  Uiso   1.00
C23    C     0.51721   0.39824   0.50000   0.00000  Uiso   1.00
C24    C     0.52712   0.43103   0.50000   0.00000  Uiso   1.00
C25    C     0.66087   0.48271   0.50000   0.00000  Uiso   1.00
C26    C     0.63138   0.53540   0.50000   0.00000  Uiso   1.00
C27    C     0.60177   0.51721   0.50000   0.00000  Uiso   1.00
C28    C     0.56897   0.52712   0.50000   0.00000  Uiso   1.00
C29    C     0.33913   0.51730   0.50000   0.00000  Uiso   1.00
C30    C     0.36862   0.46460   0.50000   0.00000  Uiso   1.00
C31    C     0.39824   0.48279   0.50000   0.00000  Uiso   1.00
C32    C     0.43103   0.47288   0.50000   0.00000  Uiso   1.00
O33    O     0.52910   0.69185   0.50000   0.00000  Uiso   1.00
O34    O     0.47089   0.30815   0.50000   0.00000  Uiso   1.00
O35    O     0.30815   0.52910   0.50000   0.00000  Uiso   1.00
O36    O     0.69185   0.47089   0.50000   0.00000  Uiso   1.00
O37    O     0.47089   0.69185   0.50000   0.00000  Uiso   1.00
O38    O     0.52910   0.30815   0.50000   0.00000  Uiso   1.00
O39    O     0.69185   0.52910   0.50000   0.00000  Uiso   1.00
O40    O     0.30815   0.47089   0.50000   0.00000  Uiso   1.00
H41    H     0.56053   0.63174   0.50000   0.00000  Uiso   1.00
H42    H     0.43947   0.36826   0.50000   0.00000  Uiso   1.00
H43    H     0.36826   0.56053   0.50000   0.00000  Uiso   1.00
H44    H     0.63174   0.43947   0.50000   0.00000  Uiso   1.00
H45    H     0.43947   0.63174   0.50000   0.00000  Uiso   1.00
H46    H     0.56053   0.36826   0.50000   0.00000  Uiso   1.00
H47    H     0.63174   0.56053   0.50000   0.00000  Uiso   1.00
H48    H     0.36826   0.43947   0.50000   0.00000  Uiso   1.00
N49    N     0.55867   0.55867   0.50000   0.00000  Uiso   1.00
N50    N     0.44133   0.44133   0.50000   0.00000  Uiso   1.00
N51    N     0.44133   0.55867   0.50000   0.00000  Uiso   1.00
N52    N     0.55867   0.44133   0.50000   0.00000  Uiso   1.00
B53    B     0.50000   0.71219   0.50000   0.00000  Uiso   1.00
B54    B     0.50000   0.28781   0.50000   0.00000  Uiso   1.00
B55    B     0.28781   0.50000   0.50000   0.00000  Uiso   1.00
B56    B     0.71219   0.50000   0.50000   0.00000  Uiso   1.00
C57    C     0.98240   0.46959   0.50000   0.00000  Uiso   1.00
C58    C     0.03649   0.55979   0.50000   0.00000  Uiso   1.00
C59    C     0.07089   0.55942   0.50000   0.00000  Uiso   1.00
C60    C     0.08880   0.52959   0.50000   0.00000  Uiso   1.00
C61    C     0.12392   0.47157   0.50000   0.00000  Uiso   1.00
H62    H     0.02604   0.58252   0.50000   0.00000  Uiso   1.00
H63    H     0.08298   0.58157   0.50000   0.00000  Uiso   1.00
O64    O     0.13630   0.44343   0.50000   0.00000  Uiso   1.00
C65    C     0.80158   0.52901   0.50000   0.00000  Uiso   1.00
C66    C     0.76685   0.52948   0.50000   0.00000  Uiso   1.00
H67    H     0.81099   0.55193   0.50000   0.00000  Uiso   1.00
H68    H     0.75461   0.55164   0.50000   0.00000  Uiso   1.00
C69    C     0.01760   0.53041   0.50000   0.00000  Uiso   1.00
C70    C     0.96351   0.44021   0.50000   0.00000  Uiso   1.00
C71    C     0.92911   0.44058   0.50000   0.00000  Uiso   1.00
C72    C     0.91120   0.47041   0.50000   0.00000  Uiso   1.00
C73    C     0.87608   0.52843   0.50000   0.00000  Uiso   1.00
H74    H     0.97396   0.41748   0.50000   0.00000  Uiso   1.00
H75    H     0.91702   0.41843   0.50000   0.00000  Uiso   1.00
O76    O     0.86371   0.55657   0.50000   0.00000  Uiso   1.00
C77    C     0.19842   0.47099   0.50000   0.00000  Uiso   1.00
C78    C     0.23316   0.47052   0.50000   0.00000  Uiso   1.00
H79    H     0.18901   0.44807   0.50000   0.00000  Uiso   1.00
H80    H     0.24539   0.44836   0.50000   0.00000  Uiso   1.00
C81    C     0.53041   0.98240   0.50000   0.00000  Uiso   1.00
C82    C     0.44021   0.03649   0.50000   0.00000  Uiso   1.00
C83    C     0.44058   0.07089   0.50000   0.00000  Uiso   1.00
C84    C     0.47041   0.08880   0.50000   0.00000  Uiso   1.00
C85    C     0.52843   0.12392   0.50000   0.00000  Uiso   1.00
H86    H     0.41748   0.02604   0.50000   0.00000  Uiso   1.00
H87    H     0.41843   0.08298   0.50000   0.00000  Uiso   1.00
O88    O     0.55657   0.13630   0.50000   0.00000  Uiso   1.00
C89    C     0.47099   0.80158   0.50000   0.00000  Uiso   1.00
C90    C     0.47052   0.76685   0.50000   0.00000  Uiso   1.00
H91    H     0.44807   0.81099   0.50000   0.00000  Uiso   1.00
H92    H     0.44836   0.75461   0.50000   0.00000  Uiso   1.00
C93    C     0.46959   0.01760   0.50000   0.00000  Uiso   1.00
C94    C     0.55979   0.96351   0.50000   0.00000  Uiso   1.00
C95    C     0.55942   0.92911   0.50000   0.00000  Uiso   1.00
C96    C     0.52959   0.91120   0.50000   0.00000  Uiso   1.00
C97    C     0.47157   0.87608   0.50000   0.00000  Uiso   1.00
H98    H     0.58252   0.97396   0.50000   0.00000  Uiso   1.00
H99    H     0.58157   0.91702   0.50000   0.00000  Uiso   1.00
O100   O     0.44343   0.86371   0.50000   0.00000  Uiso   1.00
C101   C     0.52901   0.19842   0.50000   0.00000  Uiso   1.00
C102   C     0.52948   0.23316   0.50000   0.00000  Uiso   1.00
H103   H     0.55193   0.18901   0.50000   0.00000  Uiso   1.00
H104   H     0.55164   0.24539   0.50000   0.00000  Uiso   1.00
C105   C     0.01760   0.46959   0.50000   0.00000  Uiso   1.00
C106   C     0.96351   0.55979   0.50000   0.00000  Uiso   1.00
C107   C     0.92911   0.55942   0.50000   0.00000  Uiso   1.00
C108   C     0.91120   0.52959   0.50000   0.00000  Uiso   1.00
C109   C     0.87608   0.47157   0.50000   0.00000  Uiso   1.00
H110   H     0.97396   0.58252   0.50000   0.00000  Uiso   1.00
H111   H     0.91702   0.58157   0.50000   0.00000  Uiso   1.00
O112   O     0.86371   0.44343   0.50000   0.00000  Uiso   1.00
C113   C     0.19842   0.52901   0.50000   0.00000  Uiso   1.00
C114   C     0.23316   0.52948   0.50000   0.00000  Uiso   1.00
H115   H     0.18901   0.55193   0.50000   0.00000  Uiso   1.00
H116   H     0.24539   0.55164   0.50000   0.00000  Uiso   1.00
C117   C     0.98240   0.53041   0.50000   0.00000  Uiso   1.00
C118   C     0.03649   0.44021   0.50000   0.00000  Uiso   1.00
C119   C     0.07089   0.44058   0.50000   0.00000  Uiso   1.00
C120   C     0.08880   0.47041   0.50000   0.00000  Uiso   1.00
C121   C     0.12392   0.52843   0.50000   0.00000  Uiso   1.00
H122   H     0.02604   0.41748   0.50000   0.00000  Uiso   1.00
H123   H     0.08298   0.41843   0.50000   0.00000  Uiso   1.00
O124   O     0.13630   0.55657   0.50000   0.00000  Uiso   1.00
C125   C     0.80158   0.47099   0.50000   0.00000  Uiso   1.00
C126   C     0.76685   0.47052   0.50000   0.00000  Uiso   1.00
H127   H     0.81099   0.44807   0.50000   0.00000  Uiso   1.00
H128   H     0.75461   0.44836   0.50000   0.00000  Uiso   1.00
C129   C     0.46959   0.98240   0.50000   0.00000  Uiso   1.00
C130   C     0.55979   0.03649   0.50000   0.00000  Uiso   1.00
C131   C     0.55942   0.07089   0.50000   0.00000  Uiso   1.00
C132   C     0.52959   0.08880   0.50000   0.00000  Uiso   1.00
C133   C     0.47157   0.12392   0.50000   0.00000  Uiso   1.00
H134   H     0.58252   0.02604   0.50000   0.00000  Uiso   1.00
H135   H     0.58157   0.08298   0.50000   0.00000  Uiso   1.00
O136   O     0.44343   0.13630   0.50000   0.00000  Uiso   1.00
C137   C     0.52901   0.80158   0.50000   0.00000  Uiso   1.00
C138   C     0.52948   0.76685   0.50000   0.00000  Uiso   1.00
H139   H     0.55193   0.81099   0.50000   0.00000  Uiso   1.00
H140   H     0.55164   0.75461   0.50000   0.00000  Uiso   1.00
C141   C     0.53041   0.01760   0.50000   0.00000  Uiso   1.00
C142   C     0.44021   0.96351   0.50000   0.00000  Uiso   1.00
C143   C     0.44058   0.92911   0.50000   0.00000  Uiso   1.00
C144   C     0.47041   0.91120   0.50000   0.00000  Uiso   1.00
C145   C     0.52843   0.87608   0.50000   0.00000  Uiso   1.00
H146   H     0.41748   0.97396   0.50000   0.00000  Uiso   1.00
H147   H     0.41843   0.91702   0.50000   0.00000  Uiso   1.00
O148   O     0.55657   0.86371   0.50000   0.00000  Uiso   1.00
C149   C     0.47099   0.19842   0.50000   0.00000  Uiso   1.00
C150   C     0.47052   0.23316   0.50000   0.00000  Uiso   1.00
H151   H     0.44807   0.18901   0.50000   0.00000  Uiso   1.00
H152   H     0.44836   0.24539   0.50000   0.00000  Uiso   1.00
C153   C     0.96479   0.50000   0.50000   0.00000  Uiso   1.00
C154   C     0.07061   0.50000   0.50000   0.00000  Uiso   1.00
N155   N     0.14311   0.50000   0.50000   0.00000  Uiso   1.00
C156   C     0.17810   0.50000   0.50000   0.00000  Uiso   1.00
C157   C     0.74890   0.50000   0.50000   0.00000  Uiso   1.00
C158   C     0.03521   0.50000   0.50000   0.00000  Uiso   1.00
C159   C     0.92939   0.50000   0.50000   0.00000  Uiso   1.00
N160   N     0.85689   0.50000   0.50000   0.00000  Uiso   1.00
C161   C     0.82190   0.50000   0.50000   0.00000  Uiso   1.00
C162   C     0.25110   0.50000   0.50000   0.00000  Uiso   1.00
C163   C     0.50000   0.96479   0.50000   0.00000  Uiso   1.00
C164   C     0.50000   0.07061   0.50000   0.00000  Uiso   1.00
N165   N     0.50000   0.14311   0.50000   0.00000  Uiso   1.00
C166   C     0.50000   0.17810   0.50000   0.00000  Uiso   1.00
C167   C     0.50000   0.74890   0.50000   0.00000  Uiso   1.00
C168   C     0.50000   0.03521   0.50000   0.00000  Uiso   1.00
C169   C     0.50000   0.92939   0.50000   0.00000  Uiso   1.00
N170   N     0.50000   0.85689   0.50000   0.00000  Uiso   1.00
C171   C     0.50000   0.82190   0.50000   0.00000  Uiso   1.00
C172   C     0.50000   0.25110   0.50000   0.00000  Uiso   1.00
Ni173  Ni    0.50000   0.50000   0.50000   0.00000  Uiso   1.00
N174   N     0.50000   0.54993   0.50000   0.00000  Uiso   1.00
N175   N     0.50000   0.45007   0.50000   0.00000  Uiso   1.00
N176   N     0.45007   0.50000   0.50000   0.00000  Uiso   1.00
N177   N     0.54993   0.50000   0.50000   0.00000  Uiso   1.00
loop_
_geom_bond_atom_site_label_1
_geom_bond_atom_site_label_2
_geom_bond_distance
_geom_bond_site_symmetry_2
_ccdc_geom_bond_type
C1     C17     1.405   .     D
C1     C18     1.405   .     S
C1     O37     1.347   .     S
C2     C3      1.412   .     D
C2     C17     1.405   .     S
C2     H41     1.021   .     S
C3     C4      1.392   .     S
C3     C19     1.398   .     S
C4     N49     1.348   .     S
C4     N174    1.346   .     D
C5     C21     1.405   .     S
C5     C22     1.405   .     D
C5     O38     1.347   .     S
C6     C7      1.412   .     S
C6     C21     1.405   .     D
C6     H42     1.021   .     S
C7     C8      1.391   .     S
C7     C23     1.398   .     D
C8     N50     1.348   .     S
C8     N175    1.346   .     D
C9     C29     1.405   .     D
C9     C30     1.405   .     S
C9     O40     1.347   .     S
C10    C11     1.412   .     D
C10    C29     1.405   .     S
C10    H43     1.021   .     S
C11    C12     1.391   .     S
C11    C31     1.398   .     S
C12    N51     1.348   .     S
C12    N176    1.346   .     D
C13    C25     1.405   .     S
C13    C26     1.405   .     D
C13    O39     1.347   .     S
C14    C15     1.412   .     S
C14    C25     1.405   .     D
C14    H44     1.021   .     S
C15    C16     1.392   .     S
C15    C27     1.398   .     D
C16    N52     1.348   .     S
C16    N177    1.346   .     D
C17    O33     1.347   .     S
C18    C19     1.412   .     D
C18    H45     1.021   .     S
C19    C20     1.392   .     S
C20    N51     1.348   .     D
C20    N174    1.346   .     S
C21    O34     1.347   .     S
C22    C23     1.412   .     S
C22    H46     1.021   .     S
C23    C24     1.391   .     S
C24    N52     1.348   .     D
C24    N175    1.346   .     S
C25    O36     1.347   .     S
C26    C27     1.412   .     S
C26    H47     1.021   .     S
C27    C28     1.392   .     S
C28    N49     1.348   .     D
C28    N177    1.346   .     S
C29    O35     1.347   .     S
C30    C31     1.412   .     D
C30    H48     1.021   .     S
C31    C32     1.391   .     S
C32    N50     1.348   .     D
C32    N176    1.346   .     S
O33    B53     1.442   .     S
O34    B54     1.442   .     S
O35    B55     1.442   .     S
O36    B56     1.442   .     S
O37    B53     1.442   .     S
O38    B54     1.442   .     S
O39    B56     1.442   .     S
O40    B55     1.442   .     S
B53    C167    1.491   .     S
B54    C172    1.491   .     S
B55    C162    1.491   .     S
B56    C157    1.491   .     S
C57    C70     1.419   .     D
C57    C105    1.429   1_655 S
C57    C153    1.427   .     S
C58    C59     1.397   .     D
C58    H62     1.016   .     S
C58    C69     1.419   .     S
C59    C60     1.413   .     S
C59    H63     1.025   .     S
C60    C121    1.427   .     S
C60    C154    1.411   .     D
C61    O64     1.248   .     D
C61    C120    1.427   .     S
C61    N155    1.393   .     S
C65    C66     1.411   .     S
C65    H67     1.006   .     S
C65    C161    1.438   .     D
C66    H68     1.028   .     S
C66    C157    1.402   .     D
C69    C117    1.429   1_455 S
C69    C158    1.427   .     D
C70    C71     1.397   .     S
C70    H74     1.016   .     S
C71    C72     1.413   .     D
C71    H75     1.025   .     S
C72    C109    1.427   .     S
C72    C159    1.411   .     S
C73    O76     1.248   .     D
C73    C108    1.427   .     S
C73    N160    1.393   .     S
C77    C78     1.411   .     D
C77    H79     1.006   .     S
C77    C156    1.439   .     S
C78    H80     1.028   .     S
C78    C162    1.402   .     S
C81    C94     1.419   .     D
C81    C141    1.429   1_565 S
C81    C163    1.427   .     S
C82    C83     1.397   .     D
C82    H86     1.016   .     S
C82    C93     1.419   .     S
C83    C84     1.413   .     S
C83    H87     1.025   .     S
C84    C133    1.427   .     S
C84    C164    1.411   .     D
C85    O88     1.248   .     D
C85    C132    1.427   .     S
C85    N165    1.393   .     S
C89    C90     1.411   .     D
C89    H91     1.006   .     S
C89    C171    1.438   .     S
C90    H92     1.028   .     S
C90    C167    1.402   .     S
C93    C129    1.429   1_545 S
C93    C168    1.427   .     D
C94    C95     1.397   .     S
C94    H98     1.016   .     S
C95    C96     1.413   .     D
C95    H99     1.025   .     S
C96    C145    1.427   .     S
C96    C169    1.411   .     S
C97    O100    1.248   .     D
C97    C144    1.427   .     S
C97    N170    1.393   .     S
C101   C102    1.411   .     S
C101   H103    1.006   .     S
C101   C166    1.439   .     D
C102   H104    1.028   .     S
C102   C172    1.402   .     D
C105   C57     1.429   1_455 S
C105   C118    1.419   .     D
C105   C158    1.427   .     S
C106   C107    1.397   .     D
C106   H110    1.016   .     S
C106   C117    1.419   .     S
C107   C108    1.413   .     S
C107   H111    1.025   .     S
C108   C159    1.411   .     D
C109   O112    1.248   .     D
C109   N160    1.393   .     S
C113   C114    1.411   .     S
C113   H115    1.006   .     S
C113   C156    1.439   .     D
C114   H116    1.028   .     S
C114   C162    1.402   .     D
C117   C69     1.429   1_655 S
C117   C153    1.427   .     D
C118   C119    1.397   .     S
C118   H122    1.016   .     S
C119   C120    1.413   .     D
C119   H123    1.025   .     S
C120   C154    1.411   .     S
C121   O124    1.248   .     D
C121   N155    1.393   .     S
C125   C126    1.411   .     D
C125   H127    1.006   .     S
C125   C161    1.438   .     S
C126   H128    1.028   .     S
C126   C157    1.402   .     S
C129   C93     1.429   1_565 S
C129   C142    1.419   .     S
C129   C163    1.427   .     D
C130   C131    1.397   .     S
C130   H134    1.016   .     S
C130   C141    1.419   .     D
C131   C132    1.413   .     D
C131   H135    1.025   .     S
C132   C164    1.411   .     S
C133   O136    1.248   .     D
C133   N165    1.393   .     S
C137   C138    1.411   .     S
C137   H139    1.006   .     S
C137   C171    1.438   .     D
C138   H140    1.028   .     S
C138   C167    1.402   .     D
C141   C81     1.429   1_545 S
C141   C168    1.427   .     S
C142   C143    1.397   .     D
C142   H146    1.016   .     S
C143   C144    1.413   .     S
C143   H147    1.025   .     S
C144   C169    1.411   .     D
C145   O148    1.248   .     D
C145   N170    1.393   .     S
C149   C150    1.411   .     D
C149   H151    1.006   .     S
C149   C166    1.439   .     S
C150   H152    1.028   .     S
C150   C172    1.402   .     S
C153   C159    1.438   .     S
C154   C158    1.437   .     S
N155   C156    1.421   .     S
N160   C161    1.421   .     S
C163   C169    1.438   .     S
C164   C168    1.437   .     S
N165   C166    1.421   .     S
N170   C171    1.421   .     S
Ni173  N174    2.028   .     S
Ni173  N175    2.028   .     S
Ni173  N176    2.028   .     S
Ni173  N177    2.028   .     S
