data_23
_audit_creation_date              2023-09-08
_audit_creation_method            'Materials Studio'
_symmetry_space_group_name_H-M    'P1'
_symmetry_Int_Tables_number       1
_symmetry_cell_setting            triclinic
loop_
_symmetry_equiv_pos_as_xyz
  x,y,z
_cell_length_a                    38.6088
_cell_length_b                    38.6088
_cell_length_c                    5.8177
_cell_angle_alpha                 90.0000
_cell_angle_beta                  90.0000
_cell_angle_gamma                 120.0000
loop_
_atom_site_label
_atom_site_type_symbol
_atom_site_fract_x
_atom_site_fract_y
_atom_site_fract_z
_atom_site_U_iso_or_equiv
_atom_site_adp_type
_atom_site_occupancy
C1     C     0.46554   0.04433   0.27276   0.00000  Uiso   1.00
C2     C     0.95567   0.42121   0.27276   0.00000  Uiso   1.00
C3     C     0.57879   0.53446   0.27276   0.00000  Uiso   1.00
C4     C     0.53446   0.95567   0.27276   0.00000  Uiso   1.00
C5     C     0.04433   0.57879   0.27276   0.00000  Uiso   1.00
C6     C     0.42121   0.46554   0.27276   0.00000  Uiso   1.00
C7     C     0.45051   0.07097   0.27604   0.00000  Uiso   1.00
C8     C     0.92903   0.37954   0.27604   0.00000  Uiso   1.00
C9     C     0.62046   0.54949   0.27604   0.00000  Uiso   1.00
C10    C     0.54949   0.92903   0.27604   0.00000  Uiso   1.00
C11    C     0.07097   0.62046   0.27604   0.00000  Uiso   1.00
C12    C     0.37954   0.45051   0.27604   0.00000  Uiso   1.00
C13    C     0.44814   0.38275   0.68982   0.00000  Uiso   1.00
C14    C     0.61725   0.06539   0.68982   0.00000  Uiso   1.00
C15    C     0.93461   0.55186   0.68982   0.00000  Uiso   1.00
C16    C     0.55186   0.61725   0.68982   0.00000  Uiso   1.00
C17    C     0.38275   0.93461   0.68982   0.00000  Uiso   1.00
C18    C     0.06539   0.44814   0.68982   0.00000  Uiso   1.00
C19    C     0.46354   0.42418   0.66102   0.00000  Uiso   1.00
C20    C     0.57582   0.03936   0.66102   0.00000  Uiso   1.00
C21    C     0.96064   0.53646   0.66102   0.00000  Uiso   1.00
C22    C     0.53646   0.57582   0.66102   0.00000  Uiso   1.00
C23    C     0.42418   0.96064   0.66102   0.00000  Uiso   1.00
C24    C     0.03936   0.46354   0.66102   0.00000  Uiso   1.00
C25    C     0.49045   0.51092   0.44685   0.00000  Uiso   1.00
C26    C     0.48908   0.97953   0.44685   0.00000  Uiso   1.00
C27    C     0.02047   0.50955   0.44685   0.00000  Uiso   1.00
C28    C     0.50955   0.48908   0.44685   0.00000  Uiso   1.00
C29    C     0.51092   0.02047   0.44685   0.00000  Uiso   1.00
C30    C     0.97953   0.49045   0.44685   0.00000  Uiso   1.00
C31    C     0.49825   0.92627   0.64704   0.00000  Uiso   1.00
C32    C     0.07373   0.57198   0.64704   0.00000  Uiso   1.00
C33    C     0.42802   0.50175   0.64704   0.00000  Uiso   1.00
C34    C     0.50175   0.07373   0.64704   0.00000  Uiso   1.00
C35    C     0.92627   0.42802   0.64704   0.00000  Uiso   1.00
C36    C     0.57198   0.49825   0.64704   0.00000  Uiso   1.00
C37    C     0.51323   0.89974   0.65108   0.00000  Uiso   1.00
C38    C     0.10026   0.61349   0.65108   0.00000  Uiso   1.00
C39    C     0.38651   0.48677   0.65108   0.00000  Uiso   1.00
C40    C     0.48677   0.10026   0.65108   0.00000  Uiso   1.00
C41    C     0.89974   0.38651   0.65108   0.00000  Uiso   1.00
C42    C     0.61349   0.51323   0.65108   0.00000  Uiso   1.00
C43    C     0.52177   0.61919   0.30559   0.00000  Uiso   1.00
C44    C     0.38081   0.90258   0.30559   0.00000  Uiso   1.00
C45    C     0.09742   0.47823   0.30559   0.00000  Uiso   1.00
C46    C     0.47823   0.38081   0.30559   0.00000  Uiso   1.00
C47    C     0.61919   0.09742   0.30559   0.00000  Uiso   1.00
C48    C     0.90258   0.52177   0.30559   0.00000  Uiso   1.00
C49    C     0.50604   0.57771   0.27844   0.00000  Uiso   1.00
C50    C     0.42229   0.92833   0.27844   0.00000  Uiso   1.00
C51    C     0.07167   0.49396   0.27844   0.00000  Uiso   1.00
C52    C     0.49396   0.42229   0.27844   0.00000  Uiso   1.00
C53    C     0.57771   0.07167   0.27844   0.00000  Uiso   1.00
C54    C     0.92833   0.50604   0.27844   0.00000  Uiso   1.00
C55    C     0.49156   0.04575   0.45728   0.00000  Uiso   1.00
C56    C     0.95425   0.44581   0.45728   0.00000  Uiso   1.00
C57    C     0.55419   0.50844   0.45728   0.00000  Uiso   1.00
C58    C     0.50844   0.95425   0.45728   0.00000  Uiso   1.00
C59    C     0.04575   0.55419   0.45728   0.00000  Uiso   1.00
C60    C     0.44581   0.49156   0.45728   0.00000  Uiso   1.00
N61    N     0.44820   0.12868   0.44756   0.00000  Uiso   1.00
N62    N     0.87132   0.31952   0.44756   0.00000  Uiso   1.00
N63    N     0.68048   0.55180   0.44756   0.00000  Uiso   1.00
N64    N     0.55180   0.87132   0.44756   0.00000  Uiso   1.00
N65    N     0.12868   0.68048   0.44756   0.00000  Uiso   1.00
N66    N     0.31952   0.44820   0.44756   0.00000  Uiso   1.00
C67    C     0.44908   0.15176   0.62438   0.00000  Uiso   1.00
C68    C     0.84824   0.29732   0.62438   0.00000  Uiso   1.00
C69    C     0.70268   0.55092   0.62438   0.00000  Uiso   1.00
C70    C     0.55092   0.84824   0.62438   0.00000  Uiso   1.00
C71    C     0.15176   0.70268   0.62438   0.00000  Uiso   1.00
C72    C     0.29732   0.44908   0.62438   0.00000  Uiso   1.00
C73    C     0.44130   0.18519   0.57807   0.00000  Uiso   1.00
C74    C     0.81481   0.25611   0.57807   0.00000  Uiso   1.00
C75    C     0.74389   0.55870   0.57807   0.00000  Uiso   1.00
C76    C     0.55870   0.81481   0.57807   0.00000  Uiso   1.00
C77    C     0.18519   0.74389   0.57807   0.00000  Uiso   1.00
C78    C     0.25611   0.44130   0.57807   0.00000  Uiso   1.00
C79    C     0.45536   0.21691   0.74643   0.00000  Uiso   1.00
C80    C     0.78309   0.23845   0.74643   0.00000  Uiso   1.00
C81    C     0.76155   0.54464   0.74643   0.00000  Uiso   1.00
C82    C     0.54464   0.78309   0.74643   0.00000  Uiso   1.00
C83    C     0.21691   0.76155   0.74643   0.00000  Uiso   1.00
C84    C     0.23845   0.45536   0.74643   0.00000  Uiso   1.00
C85    C     0.45233   0.25106   0.69701   0.00000  Uiso   1.00
C86    C     0.74894   0.20127   0.69701   0.00000  Uiso   1.00
C87    C     0.79873   0.54767   0.69701   0.00000  Uiso   1.00
C88    C     0.54767   0.74894   0.69701   0.00000  Uiso   1.00
C89    C     0.25106   0.79873   0.69701   0.00000  Uiso   1.00
C90    C     0.20127   0.45233   0.69701   0.00000  Uiso   1.00
C91    C     0.43520   0.25413   0.47720   0.00000  Uiso   1.00
C92    C     0.74587   0.18107   0.47720   0.00000  Uiso   1.00
C93    C     0.81893   0.56480   0.47720   0.00000  Uiso   1.00
C94    C     0.56480   0.74587   0.47720   0.00000  Uiso   1.00
C95    C     0.25413   0.81893   0.47720   0.00000  Uiso   1.00
C96    C     0.18107   0.43520   0.47720   0.00000  Uiso   1.00
C97    C     0.41952   0.22166   0.31329   0.00000  Uiso   1.00
C98    C     0.77834   0.19786   0.31329   0.00000  Uiso   1.00
C99    C     0.80214   0.58048   0.31329   0.00000  Uiso   1.00
C100   C     0.58048   0.77834   0.31329   0.00000  Uiso   1.00
C101   C     0.22166   0.80214   0.31329   0.00000  Uiso   1.00
C102   C     0.19786   0.41952   0.31329   0.00000  Uiso   1.00
C103   C     0.42261   0.18743   0.36271   0.00000  Uiso   1.00
C104   C     0.81257   0.23518   0.36271   0.00000  Uiso   1.00
C105   C     0.76482   0.57739   0.36271   0.00000  Uiso   1.00
C106   C     0.57739   0.81257   0.36271   0.00000  Uiso   1.00
C107   C     0.18743   0.76482   0.36271   0.00000  Uiso   1.00
C108   C     0.23518   0.42261   0.36271   0.00000  Uiso   1.00
C109   C     0.43728   0.29233   0.40715   0.00000  Uiso   1.00
C110   C     0.70767   0.14495   0.40715   0.00000  Uiso   1.00
C111   C     0.85505   0.56272   0.40715   0.00000  Uiso   1.00
C112   C     0.56272   0.70767   0.40715   0.00000  Uiso   1.00
C113   C     0.29233   0.85505   0.40715   0.00000  Uiso   1.00
C114   C     0.14495   0.43728   0.40715   0.00000  Uiso   1.00
N115   N     0.44580   0.32027   0.56879   0.00000  Uiso   1.00
N116   N     0.67973   0.12553   0.56879   0.00000  Uiso   1.00
N117   N     0.87447   0.55420   0.56879   0.00000  Uiso   1.00
N118   N     0.55420   0.67973   0.56879   0.00000  Uiso   1.00
N119   N     0.32027   0.87447   0.56879   0.00000  Uiso   1.00
N120   N     0.12553   0.44580   0.56879   0.00000  Uiso   1.00
C121   C     0.45572   0.36084   0.51420   0.00000  Uiso   1.00
C122   C     0.63916   0.09488   0.51420   0.00000  Uiso   1.00
C123   C     0.90512   0.54428   0.51420   0.00000  Uiso   1.00
C124   C     0.54428   0.63916   0.51420   0.00000  Uiso   1.00
C125   C     0.36084   0.90512   0.51420   0.00000  Uiso   1.00
C126   C     0.09488   0.45572   0.51420   0.00000  Uiso   1.00
C127   C     0.48711   0.44437   0.45718   0.00000  Uiso   1.00
C128   C     0.55563   0.04274   0.45718   0.00000  Uiso   1.00
C129   C     0.95726   0.51289   0.45718   0.00000  Uiso   1.00
C130   C     0.51289   0.55563   0.45718   0.00000  Uiso   1.00
C131   C     0.44437   0.95726   0.45718   0.00000  Uiso   1.00
C132   C     0.04274   0.48711   0.45718   0.00000  Uiso   1.00
C133   C     0.46099   0.09924   0.46437   0.00000  Uiso   1.00
C134   C     0.90076   0.36175   0.46437   0.00000  Uiso   1.00
C135   C     0.63825   0.53901   0.46437   0.00000  Uiso   1.00
C136   C     0.53901   0.90076   0.46437   0.00000  Uiso   1.00
C137   C     0.09924   0.63825   0.46437   0.00000  Uiso   1.00
C138   C     0.36175   0.46099   0.46437   0.00000  Uiso   1.00
H139   H     0.45791   0.02351   0.12312   0.00000  Uiso   1.00
H140   H     0.97649   0.43440   0.12312   0.00000  Uiso   1.00
H141   H     0.56560   0.54209   0.12312   0.00000  Uiso   1.00
H142   H     0.54209   0.97649   0.12312   0.00000  Uiso   1.00
H143   H     0.02351   0.56560   0.12312   0.00000  Uiso   1.00
H144   H     0.43440   0.45791   0.12312   0.00000  Uiso   1.00
H145   H     0.43136   0.07022   0.12843   0.00000  Uiso   1.00
H146   H     0.92978   0.36114   0.12843   0.00000  Uiso   1.00
H147   H     0.63886   0.56864   0.12843   0.00000  Uiso   1.00
H148   H     0.56864   0.92978   0.12843   0.00000  Uiso   1.00
H149   H     0.07022   0.63886   0.12843   0.00000  Uiso   1.00
H150   H     0.36114   0.43136   0.12843   0.00000  Uiso   1.00
H151   H     0.43149   0.36792   0.85345   0.00000  Uiso   1.00
H152   H     0.63208   0.06357   0.85345   0.00000  Uiso   1.00
H153   H     0.93643   0.56851   0.85345   0.00000  Uiso   1.00
H154   H     0.56851   0.63208   0.85345   0.00000  Uiso   1.00
H155   H     0.36792   0.93643   0.85345   0.00000  Uiso   1.00
H156   H     0.06357   0.43149   0.85345   0.00000  Uiso   1.00
H157   H     0.45906   0.44094   0.80354   0.00000  Uiso   1.00
H158   H     0.55906   0.01812   0.80354   0.00000  Uiso   1.00
H159   H     0.98188   0.54094   0.80354   0.00000  Uiso   1.00
H160   H     0.54094   0.55906   0.80354   0.00000  Uiso   1.00
H161   H     0.44094   0.98188   0.80354   0.00000  Uiso   1.00
H162   H     0.01812   0.45906   0.80354   0.00000  Uiso   1.00
H163   H     0.47797   0.92444   0.79022   0.00000  Uiso   1.00
H164   H     0.07556   0.55353   0.79022   0.00000  Uiso   1.00
H165   H     0.44647   0.52203   0.79022   0.00000  Uiso   1.00
H166   H     0.52203   0.07556   0.79022   0.00000  Uiso   1.00
H167   H     0.92444   0.44647   0.79022   0.00000  Uiso   1.00
H168   H     0.55353   0.47797   0.79022   0.00000  Uiso   1.00
H169   H     0.50313   0.87768   0.79581   0.00000  Uiso   1.00
H170   H     0.12232   0.62545   0.79581   0.00000  Uiso   1.00
H171   H     0.37455   0.49687   0.79581   0.00000  Uiso   1.00
H172   H     0.49687   0.12232   0.79581   0.00000  Uiso   1.00
H173   H     0.87768   0.37455   0.79581   0.00000  Uiso   1.00
H174   H     0.62545   0.50313   0.79581   0.00000  Uiso   1.00
H175   H     0.51426   0.63504   0.17092   0.00000  Uiso   1.00
H176   H     0.36496   0.87922   0.17092   0.00000  Uiso   1.00
H177   H     0.12078   0.48574   0.17092   0.00000  Uiso   1.00
H178   H     0.48574   0.36496   0.17092   0.00000  Uiso   1.00
H179   H     0.63504   0.12078   0.17092   0.00000  Uiso   1.00
H180   H     0.87922   0.51426   0.17092   0.00000  Uiso   1.00
H181   H     0.48716   0.56250   0.12274   0.00000  Uiso   1.00
H182   H     0.43750   0.92466   0.12274   0.00000  Uiso   1.00
H183   H     0.07534   0.51284   0.12274   0.00000  Uiso   1.00
H184   H     0.51284   0.43750   0.12274   0.00000  Uiso   1.00
H185   H     0.56250   0.07534   0.12274   0.00000  Uiso   1.00
H186   H     0.92466   0.48716   0.12274   0.00000  Uiso   1.00
H187   H     0.45844   0.14890   0.80583   0.00000  Uiso   1.00
H188   H     0.85110   0.30954   0.80583   0.00000  Uiso   1.00
H189   H     0.69046   0.54156   0.80583   0.00000  Uiso   1.00
H190   H     0.54156   0.85110   0.80583   0.00000  Uiso   1.00
H191   H     0.14890   0.69046   0.80583   0.00000  Uiso   1.00
H192   H     0.30954   0.45844   0.80583   0.00000  Uiso   1.00
H193   H     0.47028   0.21603   0.91217   0.00000  Uiso   1.00
H194   H     0.78397   0.25425   0.91217   0.00000  Uiso   1.00
H195   H     0.74575   0.52972   0.91217   0.00000  Uiso   1.00
H196   H     0.52972   0.78397   0.91217   0.00000  Uiso   1.00
H197   H     0.21603   0.74575   0.91217   0.00000  Uiso   1.00
H198   H     0.25425   0.47028   0.91217   0.00000  Uiso   1.00
H199   H     0.46495   0.27573   0.82645   0.00000  Uiso   1.00
H200   H     0.72427   0.18922   0.82645   0.00000  Uiso   1.00
H201   H     0.81078   0.53505   0.82645   0.00000  Uiso   1.00
H202   H     0.53505   0.72427   0.82645   0.00000  Uiso   1.00
H203   H     0.27573   0.81078   0.82645   0.00000  Uiso   1.00
H204   H     0.18922   0.46495   0.82645   0.00000  Uiso   1.00
H205   H     0.40582   0.22325   0.14410   0.00000  Uiso   1.00
H206   H     0.77675   0.18257   0.14410   0.00000  Uiso   1.00
H207   H     0.81743   0.59418   0.14410   0.00000  Uiso   1.00
H208   H     0.59418   0.77675   0.14410   0.00000  Uiso   1.00
H209   H     0.22325   0.81743   0.14410   0.00000  Uiso   1.00
H210   H     0.18257   0.40582   0.14410   0.00000  Uiso   1.00
H211   H     0.41133   0.16324   0.23009   0.00000  Uiso   1.00
H212   H     0.83676   0.24809   0.23009   0.00000  Uiso   1.00
H213   H     0.75191   0.58867   0.23009   0.00000  Uiso   1.00
H214   H     0.58867   0.83676   0.23009   0.00000  Uiso   1.00
H215   H     0.16324   0.75191   0.23009   0.00000  Uiso   1.00
H216   H     0.24809   0.41133   0.23009   0.00000  Uiso   1.00
H217   H     0.43383   0.29762   0.21676   0.00000  Uiso   1.00
H218   H     0.70238   0.13621   0.21676   0.00000  Uiso   1.00
H219   H     0.86379   0.56617   0.21676   0.00000  Uiso   1.00
H220   H     0.56617   0.70238   0.21676   0.00000  Uiso   1.00
H221   H     0.29762   0.86379   0.21676   0.00000  Uiso   1.00
H222   H     0.13621   0.43383   0.21676   0.00000  Uiso   1.00
loop_
_geom_bond_atom_site_label_1
_geom_bond_atom_site_label_2
_geom_bond_distance
_geom_bond_site_symmetry_2
_ccdc_geom_bond_type
C1     C7      1.411   .     S
C1     C55     1.452   .     D
C1     H139    1.120   .     S
C2     C8      1.411   .     D
C2     C56     1.452   .     S
C2     H140    1.120   .     S
C3     C9      1.411   .     D
C3     C57     1.452   .     S
C3     H141    1.120   .     S
C4     C10     1.411   .     S
C4     C58     1.452   .     D
C4     H142    1.120   .     S
C5     C11     1.411   .     S
C5     C59     1.452   .     D
C5     H143    1.120   .     S
C6     C12     1.411   .     D
C6     C60     1.452   .     S
C6     H144    1.120   .     S
C7     C133    1.454   .     D
C7     H145    1.124   .     S
C8     C134    1.454   .     S
C8     H146    1.124   .     S
C9     C135    1.454   .     S
C9     H147    1.124   .     S
C10    C136    1.454   .     D
C10    H148    1.124   .     S
C11    C137    1.454   .     D
C11    H149    1.124   .     S
C12    C138    1.454   .     S
C12    H150    1.124   .     S
C13    C19     1.410   .     D
C13    C121    1.447   .     S
C13    H151    1.131   .     S
C14    C20     1.410   .     D
C14    C122    1.447   .     S
C14    H152    1.131   .     S
C15    C21     1.410   .     D
C15    C123    1.447   .     S
C15    H153    1.131   .     S
C16    C22     1.410   .     D
C16    C124    1.447   .     S
C16    H154    1.131   .     S
C17    C23     1.410   .     D
C17    C125    1.447   .     S
C17    H155    1.131   .     S
C18    C24     1.410   .     D
C18    C126    1.447   .     S
C18    H156    1.131   .     S
C19    C127    1.460   .     S
C19    H157    1.117   .     S
C20    C128    1.460   .     S
C20    H158    1.117   .     S
C21    C129    1.460   .     S
C21    H159    1.117   .     S
C22    C130    1.460   .     S
C22    H160    1.117   .     S
C23    C131    1.460   .     S
C23    H161    1.117   .     S
C24    C132    1.460   .     S
C24    H162    1.117   .     S
C25    C28     1.370   .     S
C25    C60     1.498   .     D
C25    C130    1.496   .     S
C26    C29     1.370   1_565 D
C26    C58     1.498   .     S
C26    C131    1.496   .     S
C27    C30     1.370   1_455 S
C27    C59     1.498   .     S
C27    C132    1.496   .     D
C28    C57     1.498   .     D
C28    C127    1.496   .     S
C29    C26     1.370   1_545 D
C29    C55     1.498   .     S
C29    C128    1.496   .     S
C30    C27     1.370   1_655 S
C30    C56     1.498   .     S
C30    C129    1.496   .     D
C31    C37     1.406   .     D
C31    C58     1.454   .     S
C31    H163    1.121   .     S
C32    C38     1.406   .     D
C32    C59     1.454   .     S
C32    H164    1.121   .     S
C33    C39     1.406   .     D
C33    C60     1.454   .     S
C33    H165    1.121   .     S
C34    C40     1.406   .     D
C34    C55     1.454   .     S
C34    H166    1.121   .     S
C35    C41     1.406   .     S
C35    C56     1.454   .     D
C35    H167    1.121   .     S
C36    C42     1.406   .     D
C36    C57     1.454   .     S
C36    H168    1.121   .     S
C37    C136    1.460   .     S
C37    H169    1.120   .     S
C38    C137    1.460   .     S
C38    H170    1.120   .     S
C39    C138    1.460   .     S
C39    H171    1.120   .     S
C40    C133    1.460   .     S
C40    H172    1.120   .     S
C41    C134    1.460   .     D
C41    H173    1.120   .     S
C42    C135    1.460   .     S
C42    H174    1.120   .     S
C43    C49     1.409   .     S
C43    C124    1.467   .     D
C43    H175    1.118   .     S
C44    C50     1.409   .     S
C44    C125    1.467   .     D
C44    H176    1.118   .     S
C45    C51     1.409   .     D
C45    C126    1.467   .     S
C45    H177    1.118   .     S
C46    C52     1.409   .     S
C46    C121    1.467   .     D
C46    H178    1.118   .     S
C47    C53     1.409   .     S
C47    C122    1.467   .     D
C47    H179    1.118   .     S
C48    C54     1.409   .     D
C48    C123    1.467   .     S
C48    H180    1.118   .     S
C49    C130    1.450   .     D
C49    H181    1.126   .     S
C50    C131    1.450   .     D
C50    H182    1.126   .     S
C51    C132    1.450   .     S
C51    H183    1.126   .     S
C52    C127    1.450   .     D
C52    H184    1.126   .     S
C53    C128    1.450   .     D
C53    H185    1.126   .     S
C54    C129    1.450   .     S
C54    H186    1.126   .     S
N61    C67     1.350   .     D
N61    C133    1.451   .     S
N62    C68     1.350   .     D
N62    C134    1.451   .     S
N63    C69     1.350   .     S
N63    C135    1.451   .     D
N64    C70     1.350   .     D
N64    C136    1.451   .     S
N65    C71     1.350   .     D
N65    C137    1.451   .     S
N66    C72     1.350   .     S
N66    C138    1.451   .     D
C67    C73     1.489   .     S
C67    H187    1.139   .     S
C68    C74     1.489   .     S
C68    H188    1.139   .     S
C69    C75     1.489   .     D
C69    H189    1.139   .     S
C70    C76     1.489   .     S
C70    H190    1.139   .     S
C71    C77     1.489   .     S
C71    H191    1.139   .     S
C72    C78     1.489   .     D
C72    H192    1.139   .     S
C73    C79     1.445   .     D
C73    C103    1.470   .     S
C74    C80     1.445   .     S
C74    C104    1.470   .     D
C75    C81     1.445   .     S
C75    C105    1.470   .     S
C76    C82     1.445   .     D
C76    C106    1.470   .     S
C77    C83     1.445   .     D
C77    C107    1.470   .     S
C78    C84     1.445   .     S
C78    C108    1.470   .     S
C79    C85     1.410   .     S
C79    H193    1.132   .     S
C80    C86     1.410   .     D
C80    H194    1.132   .     S
C81    C87     1.410   .     D
C81    H195    1.132   .     S
C82    C88     1.410   .     S
C82    H196    1.132   .     S
C83    C89     1.410   .     S
C83    H197    1.132   .     S
C84    C90     1.410   .     D
C84    H198    1.132   .     S
C85    C91     1.471   .     D
C85    H199    1.117   .     S
C86    C92     1.471   .     S
C86    H200    1.117   .     S
C87    C93     1.471   .     S
C87    H201    1.117   .     S
C88    C94     1.471   .     D
C88    H202    1.117   .     S
C89    C95     1.471   .     D
C89    H203    1.117   .     S
C90    C96     1.471   .     S
C90    H204    1.117   .     S
C91    C97     1.445   .     S
C91    C109    1.493   .     S
C92    C98     1.445   .     D
C92    C110    1.493   .     S
C93    C99     1.445   .     S
C93    C111    1.493   .     D
C94    C100    1.445   .     S
C94    C112    1.493   .     S
C95    C101    1.445   .     S
C95    C113    1.493   .     S
C96    C102    1.445   .     S
C96    C114    1.493   .     D
C97    C103    1.415   .     D
C97    H205    1.134   .     S
C98    C104    1.415   .     S
C98    H206    1.134   .     S
C99    C105    1.415   .     D
C99    H207    1.134   .     S
C100   C106    1.415   .     D
C100   H208    1.134   .     S
C101   C107    1.415   .     D
C101   H209    1.134   .     S
C102   C108    1.415   .     D
C102   H210    1.134   .     S
C103   H211    1.118   .     S
C104   H212    1.118   .     S
C105   H213    1.118   .     S
C106   H214    1.118   .     S
C107   H215    1.118   .     S
C108   H216    1.118   .     S
C109   N115    1.342   .     D
C109   H217    1.146   .     S
C110   N116    1.342   .     D
C110   H218    1.146   .     S
C111   N117    1.342   .     S
C111   H219    1.146   .     S
C112   N118    1.342   .     D
C112   H220    1.146   .     S
C113   N119    1.342   .     D
C113   H221    1.146   .     S
C114   N120    1.342   .     S
C114   H222    1.146   .     S
N115   C121    1.450   .     S
N116   C122    1.450   .     S
N117   C123    1.450   .     D
N118   C124    1.450   .     S
N119   C125    1.450   .     S
N120   C126    1.450   .     D
