data_230
_audit_creation_date              2023-09-08
_audit_creation_method            'Materials Studio'
_symmetry_space_group_name_H-M    'P1'
_symmetry_Int_Tables_number       1
_symmetry_cell_setting            triclinic
loop_
_symmetry_equiv_pos_as_xyz
  x,y,z
_cell_length_a                    55.4800
_cell_length_b                    55.4800
_cell_length_c                    4.5500
_cell_angle_alpha                 90.0000
_cell_angle_beta                  90.0000
_cell_angle_gamma                 120.0000
loop_
_atom_site_label
_atom_site_type_symbol
_atom_site_fract_x
_atom_site_fract_y
_atom_site_fract_z
_atom_site_U_iso_or_equiv
_atom_site_adp_type
_atom_site_occupancy
C1     C     0.03038   0.53867   1.05629   0.00000  Uiso   1.00
C2     C     0.05494   0.54905   0.88864   0.00000  Uiso   1.00
C3     C     0.07862   0.57432   0.95219   0.00000  Uiso   1.00
C4     C     0.07835   0.59144   1.17468   0.00000  Uiso   1.00
C5     C     0.05447   0.58149   1.34736   0.00000  Uiso   1.00
C6     C     0.03179   0.55490   1.29953   0.00000  Uiso   1.00
C7     C     0.10238   0.61993   1.21317   0.00000  Uiso   1.00
C8     C     0.12962   0.62528   1.17009   0.00000  Uiso   1.00
C9     C     0.15196   0.65243   1.17182   0.00000  Uiso   1.00
C10    C     0.14757   0.67487   1.21815   0.00000  Uiso   1.00
C11    C     0.12056   0.66952   1.27376   0.00000  Uiso   1.00
C12    C     0.09818   0.64236   1.27131   0.00000  Uiso   1.00
C13    C     0.17055   0.70387   1.19704   0.00000  Uiso   1.00
N14    N     0.19561   0.70946   1.13494   0.00000  Uiso   1.00
C15    C     0.21918   0.73666   1.09130   0.00000  Uiso   1.00
C16    C     0.24572   0.74016   1.12387   0.00000  Uiso   1.00
C17    C     0.26961   0.76613   1.08128   0.00000  Uiso   1.00
C18    C     0.26670   0.78890   0.98832   0.00000  Uiso   1.00
C19    C     0.24007   0.78527   0.95790   0.00000  Uiso   1.00
C20    C     0.21652   0.75947   1.00678   0.00000  Uiso   1.00
N21    N     0.28988   0.81607   0.93196   0.00000  Uiso   1.00
C22    C     0.31153   0.82113   0.77740   0.00000  Uiso   1.00
C23    C     0.33525   0.84960   0.74868   0.00000  Uiso   1.00
C24    C     0.36084   0.85363   0.65018   0.00000  Uiso   1.00
C25    C     0.38423   0.88016   0.64664   0.00000  Uiso   1.00
C26    C     0.38244   0.90341   0.73644   0.00000  Uiso   1.00
C27    C     0.35628   0.89937   0.81898   0.00000  Uiso   1.00
C28    C     0.33333   0.87276   0.82827   0.00000  Uiso   1.00
C29    C     0.40800   0.93117   0.76595   0.00000  Uiso   1.00
C30    C     0.43122   0.93906   0.58604   0.00000  Uiso   1.00
C31    C     0.45590   0.96398   0.63714   0.00000  Uiso   1.00
C32    C     0.45978   0.97942   0.89253   0.00000  Uiso   1.00
C33    C     0.43532   0.97370   1.04431   0.00000  Uiso   1.00
C34    C     0.41000   0.94985   0.98434   0.00000  Uiso   1.00
C35    C     0.48882   0.00244   0.97137   0.00000  Uiso   1.00
C36    C     0.29717   0.76856   1.15065   0.00000  Uiso   1.00
H37    H     0.05636   0.54024   0.68816   0.00000  Uiso   1.00
H38    H     0.09635   0.58156   0.80747   0.00000  Uiso   1.00
H39    H     0.05372   0.59370   1.52855   0.00000  Uiso   1.00
H40    H     0.01540   0.54707   1.45834   0.00000  Uiso   1.00
H41    H     0.13365   0.60845   1.13034   0.00000  Uiso   1.00
H42    H     0.17258   0.65584   1.13092   0.00000  Uiso   1.00
H43    H     0.11665   0.68647   1.31097   0.00000  Uiso   1.00
H44    H     0.07748   0.63904   1.30275   0.00000  Uiso   1.00
H45    H     0.16600   0.72041   1.23197   0.00000  Uiso   1.00
H46    H     0.24773   0.72257   1.19052   0.00000  Uiso   1.00
H47    H     0.23757   0.80253   0.89031   0.00000  Uiso   1.00
H48    H     0.19639   0.75740   0.97131   0.00000  Uiso   1.00
H49    H     0.31293   0.80422   0.67829   0.00000  Uiso   1.00
H50    H     0.36300   0.83606   0.58664   0.00000  Uiso   1.00
H51    H     0.40391   0.88217   0.58506   0.00000  Uiso   1.00
H52    H     0.35369   0.91667   0.88054   0.00000  Uiso   1.00
H53    H     0.31344   0.87032   0.90054   0.00000  Uiso   1.00
H54    H     0.43029   0.92639   0.40127   0.00000  Uiso   1.00
H55    H     0.47275   0.97064   0.48290   0.00000  Uiso   1.00
H56    H     0.43479   0.98587   1.22253   0.00000  Uiso   1.00
H57    H     0.39262   0.94525   1.12590   0.00000  Uiso   1.00
H58    H     0.30314   0.75919   0.97011   0.00000  Uiso   1.00
H59    H     0.29566   0.75738   1.35823   0.00000  Uiso   1.00
H60    H     0.31380   0.79027   1.18452   0.00000  Uiso   1.00
C61    C     0.46133   0.49171   1.05629   0.00000  Uiso   1.00
C62    C     0.45095   0.50589   0.88864   0.00000  Uiso   1.00
C63    C     0.42568   0.50430   0.95219   0.00000  Uiso   1.00
C64    C     0.40856   0.48691   1.17468   0.00000  Uiso   1.00
C65    C     0.41851   0.47298   1.34736   0.00000  Uiso   1.00
C66    C     0.44510   0.47689   1.29953   0.00000  Uiso   1.00
C67    C     0.38007   0.48245   1.21317   0.00000  Uiso   1.00
C68    C     0.37472   0.50434   1.17009   0.00000  Uiso   1.00
C69    C     0.34757   0.49953   1.17182   0.00000  Uiso   1.00
C70    C     0.32513   0.47270   1.21815   0.00000  Uiso   1.00
C71    C     0.33048   0.45104   1.27376   0.00000  Uiso   1.00
C72    C     0.35764   0.45582   1.27131   0.00000  Uiso   1.00
C73    C     0.29613   0.46668   1.19704   0.00000  Uiso   1.00
N74    N     0.29054   0.48615   1.13494   0.00000  Uiso   1.00
C75    C     0.26334   0.48252   1.09130   0.00000  Uiso   1.00
C76    C     0.25984   0.50556   1.12387   0.00000  Uiso   1.00
C77    C     0.23387   0.50348   1.08128   0.00000  Uiso   1.00
C78    C     0.21110   0.47780   0.98832   0.00000  Uiso   1.00
C79    C     0.21473   0.45480   0.95790   0.00000  Uiso   1.00
C80    C     0.24053   0.45705   1.00678   0.00000  Uiso   1.00
N81    N     0.18393   0.47381   0.93196   0.00000  Uiso   1.00
C82    C     0.17887   0.49040   0.77740   0.00000  Uiso   1.00
C83    C     0.15040   0.48565   0.74868   0.00000  Uiso   1.00
C84    C     0.14637   0.50721   0.65018   0.00000  Uiso   1.00
C85    C     0.11984   0.50407   0.64664   0.00000  Uiso   1.00
C86    C     0.09659   0.47903   0.73644   0.00000  Uiso   1.00
C87    C     0.10063   0.45691   0.81898   0.00000  Uiso   1.00
C88    C     0.12724   0.46057   0.82827   0.00000  Uiso   1.00
C89    C     0.06883   0.47683   0.76595   0.00000  Uiso   1.00
C90    C     0.06094   0.49216   0.58604   0.00000  Uiso   1.00
C91    C     0.03602   0.49192   0.63714   0.00000  Uiso   1.00
C92    C     0.02058   0.48036   0.89253   0.00000  Uiso   1.00
C93    C     0.02630   0.46162   1.04431   0.00000  Uiso   1.00
C94    C     0.05015   0.46015   0.98434   0.00000  Uiso   1.00
C95    C     0.99756   0.48638   0.97137   0.00000  Uiso   1.00
C96    C     0.23144   0.52861   1.15065   0.00000  Uiso   1.00
H97    H     0.45976   0.51612   0.68816   0.00000  Uiso   1.00
H98    H     0.41844   0.51479   0.80747   0.00000  Uiso   1.00
H99    H     0.40630   0.46002   1.52855   0.00000  Uiso   1.00
H100   H     0.45293   0.46833   1.45834   0.00000  Uiso   1.00
H101   H     0.39155   0.52520   1.13034   0.00000  Uiso   1.00
H102   H     0.34416   0.51674   1.13092   0.00000  Uiso   1.00
H103   H     0.31353   0.43018   1.31097   0.00000  Uiso   1.00
H104   H     0.36096   0.43844   1.30275   0.00000  Uiso   1.00
H105   H     0.27959   0.44559   1.23197   0.00000  Uiso   1.00
H106   H     0.27743   0.52516   1.19052   0.00000  Uiso   1.00
H107   H     0.19747   0.43504   0.89031   0.00000  Uiso   1.00
H108   H     0.24260   0.43899   0.97131   0.00000  Uiso   1.00
H109   H     0.19578   0.50871   0.67829   0.00000  Uiso   1.00
H110   H     0.16394   0.52694   0.58664   0.00000  Uiso   1.00
H111   H     0.11783   0.52174   0.58506   0.00000  Uiso   1.00
H112   H     0.08333   0.43702   0.88054   0.00000  Uiso   1.00
H113   H     0.12968   0.44312   0.90054   0.00000  Uiso   1.00
H114   H     0.07361   0.50390   0.40127   0.00000  Uiso   1.00
H115   H     0.02936   0.50211   0.48290   0.00000  Uiso   1.00
H116   H     0.01413   0.44892   1.22253   0.00000  Uiso   1.00
H117   H     0.05475   0.44737   1.12590   0.00000  Uiso   1.00
H118   H     0.24081   0.54395   0.97011   0.00000  Uiso   1.00
H119   H     0.24262   0.53828   1.35823   0.00000  Uiso   1.00
H120   H     0.20973   0.52353   1.18452   0.00000  Uiso   1.00
C121   C     0.50829   0.96962   1.05629   0.00000  Uiso   1.00
C122   C     0.49411   0.94506   0.88864   0.00000  Uiso   1.00
C123   C     0.49570   0.92138   0.95219   0.00000  Uiso   1.00
C124   C     0.51309   0.92165   1.17468   0.00000  Uiso   1.00
C125   C     0.52702   0.94553   1.34736   0.00000  Uiso   1.00
C126   C     0.52311   0.96821   1.29953   0.00000  Uiso   1.00
C127   C     0.51755   0.89762   1.21317   0.00000  Uiso   1.00
C128   C     0.49566   0.87038   1.17009   0.00000  Uiso   1.00
C129   C     0.50047   0.84804   1.17182   0.00000  Uiso   1.00
C130   C     0.52730   0.85243   1.21815   0.00000  Uiso   1.00
C131   C     0.54896   0.87944   1.27376   0.00000  Uiso   1.00
C132   C     0.54418   0.90182   1.27131   0.00000  Uiso   1.00
C133   C     0.53332   0.82945   1.19704   0.00000  Uiso   1.00
N134   N     0.51385   0.80439   1.13494   0.00000  Uiso   1.00
C135   C     0.51748   0.78082   1.09130   0.00000  Uiso   1.00
C136   C     0.49444   0.75428   1.12387   0.00000  Uiso   1.00
C137   C     0.49652   0.73039   1.08128   0.00000  Uiso   1.00
C138   C     0.52220   0.73330   0.98832   0.00000  Uiso   1.00
C139   C     0.54520   0.75993   0.95790   0.00000  Uiso   1.00
C140   C     0.54295   0.78348   1.00678   0.00000  Uiso   1.00
N141   N     0.52619   0.71012   0.93196   0.00000  Uiso   1.00
C142   C     0.50960   0.68847   0.77740   0.00000  Uiso   1.00
C143   C     0.51435   0.66475   0.74868   0.00000  Uiso   1.00
C144   C     0.49279   0.63916   0.65018   0.00000  Uiso   1.00
C145   C     0.49593   0.61577   0.64664   0.00000  Uiso   1.00
C146   C     0.52097   0.61756   0.73644   0.00000  Uiso   1.00
C147   C     0.54309   0.64372   0.81898   0.00000  Uiso   1.00
C148   C     0.53943   0.66667   0.82827   0.00000  Uiso   1.00
C149   C     0.52317   0.59200   0.76595   0.00000  Uiso   1.00
C150   C     0.50784   0.56878   0.58604   0.00000  Uiso   1.00
C151   C     0.50808   0.54410   0.63714   0.00000  Uiso   1.00
C152   C     0.51964   0.54022   0.89253   0.00000  Uiso   1.00
C153   C     0.53838   0.56468   1.04431   0.00000  Uiso   1.00
C154   C     0.53985   0.59000   0.98434   0.00000  Uiso   1.00
C155   C     0.51362   0.51118   0.97137   0.00000  Uiso   1.00
C156   C     0.47139   0.70283   1.15065   0.00000  Uiso   1.00
H157   H     0.48388   0.94364   0.68816   0.00000  Uiso   1.00
H158   H     0.48521   0.90365   0.80747   0.00000  Uiso   1.00
H159   H     0.53998   0.94628   1.52855   0.00000  Uiso   1.00
H160   H     0.53167   0.98460   1.45834   0.00000  Uiso   1.00
H161   H     0.47480   0.86635   1.13034   0.00000  Uiso   1.00
H162   H     0.48326   0.82742   1.13092   0.00000  Uiso   1.00
H163   H     0.56982   0.88335   1.31097   0.00000  Uiso   1.00
H164   H     0.56156   0.92252   1.30275   0.00000  Uiso   1.00
H165   H     0.55441   0.83400   1.23197   0.00000  Uiso   1.00
H166   H     0.47484   0.75227   1.19052   0.00000  Uiso   1.00
H167   H     0.56496   0.76243   0.89031   0.00000  Uiso   1.00
H168   H     0.56101   0.80361   0.97131   0.00000  Uiso   1.00
H169   H     0.49129   0.68707   0.67829   0.00000  Uiso   1.00
H170   H     0.47306   0.63700   0.58664   0.00000  Uiso   1.00
H171   H     0.47826   0.59609   0.58506   0.00000  Uiso   1.00
H172   H     0.56298   0.64631   0.88054   0.00000  Uiso   1.00
H173   H     0.55688   0.68656   0.90054   0.00000  Uiso   1.00
H174   H     0.49610   0.56971   0.40127   0.00000  Uiso   1.00
H175   H     0.49789   0.52725   0.48290   0.00000  Uiso   1.00
H176   H     0.55108   0.56521   1.22253   0.00000  Uiso   1.00
H177   H     0.55263   0.60738   1.12590   0.00000  Uiso   1.00
H178   H     0.45605   0.69686   0.97011   0.00000  Uiso   1.00
H179   H     0.46172   0.70434   1.35823   0.00000  Uiso   1.00
H180   H     0.47647   0.68620   1.18452   0.00000  Uiso   1.00
C181   C     0.96962   0.46133   1.05629   0.00000  Uiso   1.00
C182   C     0.94506   0.45095   0.88864   0.00000  Uiso   1.00
C183   C     0.92138   0.42568   0.95219   0.00000  Uiso   1.00
C184   C     0.92165   0.40856   1.17468   0.00000  Uiso   1.00
C185   C     0.94553   0.41851   1.34736   0.00000  Uiso   1.00
C186   C     0.96821   0.44510   1.29953   0.00000  Uiso   1.00
C187   C     0.89762   0.38007   1.21317   0.00000  Uiso   1.00
C188   C     0.87038   0.37472   1.17009   0.00000  Uiso   1.00
C189   C     0.84804   0.34757   1.17182   0.00000  Uiso   1.00
C190   C     0.85243   0.32513   1.21815   0.00000  Uiso   1.00
C191   C     0.87944   0.33048   1.27376   0.00000  Uiso   1.00
C192   C     0.90182   0.35764   1.27131   0.00000  Uiso   1.00
C193   C     0.82945   0.29613   1.19704   0.00000  Uiso   1.00
N194   N     0.80439   0.29054   1.13494   0.00000  Uiso   1.00
C195   C     0.78082   0.26334   1.09130   0.00000  Uiso   1.00
C196   C     0.75428   0.25984   1.12387   0.00000  Uiso   1.00
C197   C     0.73039   0.23387   1.08128   0.00000  Uiso   1.00
C198   C     0.73330   0.21110   0.98832   0.00000  Uiso   1.00
C199   C     0.75993   0.21473   0.95790   0.00000  Uiso   1.00
C200   C     0.78348   0.24053   1.00678   0.00000  Uiso   1.00
N201   N     0.71012   0.18393   0.93196   0.00000  Uiso   1.00
C202   C     0.68847   0.17887   0.77740   0.00000  Uiso   1.00
C203   C     0.66475   0.15040   0.74868   0.00000  Uiso   1.00
C204   C     0.63916   0.14637   0.65018   0.00000  Uiso   1.00
C205   C     0.61577   0.11984   0.64664   0.00000  Uiso   1.00
C206   C     0.61756   0.09659   0.73644   0.00000  Uiso   1.00
C207   C     0.64372   0.10063   0.81898   0.00000  Uiso   1.00
C208   C     0.66667   0.12724   0.82827   0.00000  Uiso   1.00
C209   C     0.59200   0.06883   0.76595   0.00000  Uiso   1.00
C210   C     0.56878   0.06094   0.58604   0.00000  Uiso   1.00
C211   C     0.54410   0.03602   0.63714   0.00000  Uiso   1.00
C212   C     0.54022   0.02058   0.89253   0.00000  Uiso   1.00
C213   C     0.56468   0.02630   1.04431   0.00000  Uiso   1.00
C214   C     0.59000   0.05015   0.98434   0.00000  Uiso   1.00
C215   C     0.51118   0.99756   0.97137   0.00000  Uiso   1.00
C216   C     0.70283   0.23144   1.15065   0.00000  Uiso   1.00
H217   H     0.94364   0.45976   0.68816   0.00000  Uiso   1.00
H218   H     0.90365   0.41844   0.80747   0.00000  Uiso   1.00
H219   H     0.94628   0.40630   1.52855   0.00000  Uiso   1.00
H220   H     0.98460   0.45293   1.45834   0.00000  Uiso   1.00
H221   H     0.86635   0.39155   1.13034   0.00000  Uiso   1.00
H222   H     0.82742   0.34416   1.13092   0.00000  Uiso   1.00
H223   H     0.88335   0.31353   1.31097   0.00000  Uiso   1.00
H224   H     0.92252   0.36096   1.30275   0.00000  Uiso   1.00
H225   H     0.83400   0.27959   1.23197   0.00000  Uiso   1.00
H226   H     0.75227   0.27743   1.19052   0.00000  Uiso   1.00
H227   H     0.76243   0.19747   0.89031   0.00000  Uiso   1.00
H228   H     0.80361   0.24260   0.97131   0.00000  Uiso   1.00
H229   H     0.68707   0.19578   0.67829   0.00000  Uiso   1.00
H230   H     0.63700   0.16394   0.58664   0.00000  Uiso   1.00
H231   H     0.59609   0.11783   0.58506   0.00000  Uiso   1.00
H232   H     0.64631   0.08333   0.88054   0.00000  Uiso   1.00
H233   H     0.68656   0.12968   0.90054   0.00000  Uiso   1.00
H234   H     0.56971   0.07361   0.40127   0.00000  Uiso   1.00
H235   H     0.52725   0.02936   0.48290   0.00000  Uiso   1.00
H236   H     0.56521   0.01413   1.22253   0.00000  Uiso   1.00
H237   H     0.60738   0.05475   1.12590   0.00000  Uiso   1.00
H238   H     0.69686   0.24081   0.97011   0.00000  Uiso   1.00
H239   H     0.70434   0.24262   1.35823   0.00000  Uiso   1.00
H240   H     0.68620   0.20973   1.18452   0.00000  Uiso   1.00
C241   C     0.53867   0.50829   1.05629   0.00000  Uiso   1.00
C242   C     0.54905   0.49411   0.88864   0.00000  Uiso   1.00
C243   C     0.57432   0.49570   0.95219   0.00000  Uiso   1.00
C244   C     0.59144   0.51309   1.17468   0.00000  Uiso   1.00
C245   C     0.58149   0.52702   1.34736   0.00000  Uiso   1.00
C246   C     0.55490   0.52311   1.29953   0.00000  Uiso   1.00
C247   C     0.61993   0.51755   1.21317   0.00000  Uiso   1.00
C248   C     0.62528   0.49566   1.17009   0.00000  Uiso   1.00
C249   C     0.65243   0.50047   1.17182   0.00000  Uiso   1.00
C250   C     0.67487   0.52730   1.21815   0.00000  Uiso   1.00
C251   C     0.66952   0.54896   1.27376   0.00000  Uiso   1.00
C252   C     0.64236   0.54418   1.27131   0.00000  Uiso   1.00
C253   C     0.70387   0.53332   1.19704   0.00000  Uiso   1.00
N254   N     0.70946   0.51385   1.13494   0.00000  Uiso   1.00
C255   C     0.73666   0.51748   1.09130   0.00000  Uiso   1.00
C256   C     0.74016   0.49444   1.12387   0.00000  Uiso   1.00
C257   C     0.76613   0.49652   1.08128   0.00000  Uiso   1.00
C258   C     0.78890   0.52220   0.98832   0.00000  Uiso   1.00
C259   C     0.78527   0.54520   0.95790   0.00000  Uiso   1.00
C260   C     0.75947   0.54295   1.00678   0.00000  Uiso   1.00
N261   N     0.81607   0.52619   0.93196   0.00000  Uiso   1.00
C262   C     0.82113   0.50960   0.77740   0.00000  Uiso   1.00
C263   C     0.84960   0.51435   0.74868   0.00000  Uiso   1.00
C264   C     0.85363   0.49279   0.65018   0.00000  Uiso   1.00
C265   C     0.88016   0.49593   0.64664   0.00000  Uiso   1.00
C266   C     0.90341   0.52097   0.73644   0.00000  Uiso   1.00
C267   C     0.89937   0.54309   0.81898   0.00000  Uiso   1.00
C268   C     0.87276   0.53943   0.82827   0.00000  Uiso   1.00
C269   C     0.93117   0.52317   0.76595   0.00000  Uiso   1.00
C270   C     0.93906   0.50784   0.58604   0.00000  Uiso   1.00
C271   C     0.96398   0.50808   0.63714   0.00000  Uiso   1.00
C272   C     0.97942   0.51964   0.89253   0.00000  Uiso   1.00
C273   C     0.97370   0.53838   1.04431   0.00000  Uiso   1.00
C274   C     0.94985   0.53985   0.98434   0.00000  Uiso   1.00
C275   C     0.00244   0.51362   0.97137   0.00000  Uiso   1.00
C276   C     0.76856   0.47139   1.15065   0.00000  Uiso   1.00
H277   H     0.54024   0.48388   0.68816   0.00000  Uiso   1.00
H278   H     0.58156   0.48521   0.80747   0.00000  Uiso   1.00
H279   H     0.59370   0.53998   1.52855   0.00000  Uiso   1.00
H280   H     0.54707   0.53167   1.45834   0.00000  Uiso   1.00
H281   H     0.60845   0.47480   1.13034   0.00000  Uiso   1.00
H282   H     0.65584   0.48326   1.13092   0.00000  Uiso   1.00
H283   H     0.68647   0.56982   1.31097   0.00000  Uiso   1.00
H284   H     0.63904   0.56156   1.30275   0.00000  Uiso   1.00
H285   H     0.72041   0.55441   1.23197   0.00000  Uiso   1.00
H286   H     0.72257   0.47484   1.19052   0.00000  Uiso   1.00
H287   H     0.80253   0.56496   0.89031   0.00000  Uiso   1.00
H288   H     0.75740   0.56101   0.97131   0.00000  Uiso   1.00
H289   H     0.80422   0.49129   0.67829   0.00000  Uiso   1.00
H290   H     0.83606   0.47306   0.58664   0.00000  Uiso   1.00
H291   H     0.88217   0.47826   0.58506   0.00000  Uiso   1.00
H292   H     0.91667   0.56298   0.88054   0.00000  Uiso   1.00
H293   H     0.87032   0.55688   0.90054   0.00000  Uiso   1.00
H294   H     0.92639   0.49610   0.40127   0.00000  Uiso   1.00
H295   H     0.97064   0.49789   0.48290   0.00000  Uiso   1.00
H296   H     0.98587   0.55108   1.22253   0.00000  Uiso   1.00
H297   H     0.94525   0.55263   1.12590   0.00000  Uiso   1.00
H298   H     0.75919   0.45605   0.97011   0.00000  Uiso   1.00
H299   H     0.75738   0.46172   1.35823   0.00000  Uiso   1.00
H300   H     0.79027   0.47647   1.18452   0.00000  Uiso   1.00
C301   C     0.49171   0.03038   1.05629   0.00000  Uiso   1.00
C302   C     0.50589   0.05494   0.88864   0.00000  Uiso   1.00
C303   C     0.50430   0.07862   0.95219   0.00000  Uiso   1.00
C304   C     0.48691   0.07835   1.17468   0.00000  Uiso   1.00
C305   C     0.47298   0.05447   1.34736   0.00000  Uiso   1.00
C306   C     0.47689   0.03179   1.29953   0.00000  Uiso   1.00
C307   C     0.48245   0.10238   1.21317   0.00000  Uiso   1.00
C308   C     0.50434   0.12962   1.17009   0.00000  Uiso   1.00
C309   C     0.49953   0.15196   1.17182   0.00000  Uiso   1.00
C310   C     0.47270   0.14757   1.21815   0.00000  Uiso   1.00
C311   C     0.45104   0.12056   1.27376   0.00000  Uiso   1.00
C312   C     0.45582   0.09818   1.27131   0.00000  Uiso   1.00
C313   C     0.46668   0.17055   1.19704   0.00000  Uiso   1.00
N314   N     0.48615   0.19561   1.13494   0.00000  Uiso   1.00
C315   C     0.48252   0.21918   1.09130   0.00000  Uiso   1.00
C316   C     0.50556   0.24572   1.12387   0.00000  Uiso   1.00
C317   C     0.50348   0.26961   1.08128   0.00000  Uiso   1.00
C318   C     0.47780   0.26670   0.98832   0.00000  Uiso   1.00
C319   C     0.45480   0.24007   0.95790   0.00000  Uiso   1.00
C320   C     0.45705   0.21652   1.00678   0.00000  Uiso   1.00
N321   N     0.47381   0.28988   0.93196   0.00000  Uiso   1.00
C322   C     0.49040   0.31153   0.77740   0.00000  Uiso   1.00
C323   C     0.48565   0.33525   0.74868   0.00000  Uiso   1.00
C324   C     0.50721   0.36084   0.65018   0.00000  Uiso   1.00
C325   C     0.50407   0.38423   0.64664   0.00000  Uiso   1.00
C326   C     0.47903   0.38244   0.73644   0.00000  Uiso   1.00
C327   C     0.45691   0.35628   0.81898   0.00000  Uiso   1.00
C328   C     0.46057   0.33333   0.82827   0.00000  Uiso   1.00
C329   C     0.47683   0.40800   0.76595   0.00000  Uiso   1.00
C330   C     0.49216   0.43122   0.58604   0.00000  Uiso   1.00
C331   C     0.49192   0.45590   0.63714   0.00000  Uiso   1.00
C332   C     0.48036   0.45978   0.89253   0.00000  Uiso   1.00
C333   C     0.46162   0.43532   1.04431   0.00000  Uiso   1.00
C334   C     0.46015   0.41000   0.98434   0.00000  Uiso   1.00
C335   C     0.48638   0.48882   0.97137   0.00000  Uiso   1.00
C336   C     0.52861   0.29717   1.15065   0.00000  Uiso   1.00
H337   H     0.51612   0.05636   0.68816   0.00000  Uiso   1.00
H338   H     0.51479   0.09635   0.80747   0.00000  Uiso   1.00
H339   H     0.46002   0.05372   1.52855   0.00000  Uiso   1.00
H340   H     0.46833   0.01540   1.45834   0.00000  Uiso   1.00
H341   H     0.52520   0.13365   1.13034   0.00000  Uiso   1.00
H342   H     0.51674   0.17258   1.13092   0.00000  Uiso   1.00
H343   H     0.43018   0.11665   1.31097   0.00000  Uiso   1.00
H344   H     0.43844   0.07748   1.30275   0.00000  Uiso   1.00
H345   H     0.44559   0.16600   1.23197   0.00000  Uiso   1.00
H346   H     0.52516   0.24773   1.19052   0.00000  Uiso   1.00
H347   H     0.43504   0.23757   0.89031   0.00000  Uiso   1.00
H348   H     0.43899   0.19639   0.97131   0.00000  Uiso   1.00
H349   H     0.50871   0.31293   0.67829   0.00000  Uiso   1.00
H350   H     0.52694   0.36300   0.58664   0.00000  Uiso   1.00
H351   H     0.52174   0.40391   0.58506   0.00000  Uiso   1.00
H352   H     0.43702   0.35369   0.88054   0.00000  Uiso   1.00
H353   H     0.44312   0.31344   0.90054   0.00000  Uiso   1.00
H354   H     0.50390   0.43029   0.40127   0.00000  Uiso   1.00
H355   H     0.50211   0.47275   0.48290   0.00000  Uiso   1.00
H356   H     0.44892   0.43479   1.22253   0.00000  Uiso   1.00
H357   H     0.44737   0.39262   1.12590   0.00000  Uiso   1.00
H358   H     0.54395   0.30314   0.97011   0.00000  Uiso   1.00
H359   H     0.53828   0.29566   1.35823   0.00000  Uiso   1.00
H360   H     0.52353   0.31380   1.18452   0.00000  Uiso   1.00
loop_
_geom_bond_atom_site_label_1
_geom_bond_atom_site_label_2
_geom_bond_distance
_geom_bond_site_symmetry_2
_ccdc_geom_bond_type
C1     C2      1.409   .     S
C1     C6      1.404   .     D
C1     C275    1.526   .     S
C2     C3      1.390   .     D
C2     H37     1.056   .     S
C3     C4      1.393   .     S
C3     H38     1.080   .     S
C4     C5      1.395   .     D
C4     C7      1.483   .     S
C5     C6      1.397   .     S
C5     H39     1.081   .     S
C6     H40     1.069   .     S
C7     C8      1.401   .     D
C7     C12     1.401   .     S
C8     C9      1.392   .     S
C8     H41     1.079   .     S
C9     C10     1.399   .     D
C9     H42     1.078   .     S
C10    C11     1.397   .     S
C10    C13     1.474   .     S
C11    C12     1.393   .     D
C11    H43     1.079   .     S
C12    H44     1.078   .     S
C13    N14     1.295   .     D
C13    H45     1.078   .     S
N14    C15     1.433   .     S
C15    C16     1.393   .     D
C15    C20     1.399   .     S
C16    C17     1.400   .     S
C16    H46     1.080   .     S
C17    C18     1.416   .     D
C17    C36     1.500   .     S
C18    C19     1.395   .     S
C18    N21     1.433   .     S
C19    C20     1.391   .     D
C19    H47     1.079   .     S
C20    H48     1.076   .     S
N21    C22     1.296   .     D
C22    C23     1.471   .     S
C22    H49     1.078   .     S
C23    C24     1.396   .     D
C23    C28     1.389   .     S
C24    C25     1.393   .     S
C24    H50     1.079   .     S
C25    C26     1.403   .     D
C25    H51     1.078   .     S
C26    C27     1.404   .     S
C26    C29     1.489   .     S
C27    C28     1.387   .     D
C27    H52     1.076   .     S
C28    H53     1.093   .     S
C29    C30     1.399   .     D
C29    C34     1.400   .     S
C30    C31     1.395   .     S
C30    H54     1.080   .     S
C31    C32     1.395   .     D
C31    H55     1.076   .     S
C32    C33     1.410   .     S
C32    C35     1.516   1_565 S
C33    C34     1.393   .     D
C33    H56     1.065   .     S
C34    H57     1.079   .     S
C35    C32     1.516   1_545 S
C35    C215    1.396   1_545 D
C35    C301    1.526   .     S
C36    H58     1.108   .     S
C36    H59     1.110   .     S
C36    H60     1.102   .     S
C61    C62     1.409   .     S
C61    C66     1.404   .     S
C61    C335    1.526   .     D
C62    C63     1.390   .     D
C62    H97     1.056   .     S
C63    C64     1.393   .     S
C63    H98     1.080   .     S
C64    C65     1.395   .     S
C64    C67     1.483   .     D
C65    C66     1.397   .     D
C65    H99     1.081   .     S
C66    H100    1.069   .     S
C67    C68     1.401   .     S
C67    C72     1.401   .     S
C68    C69     1.392   .     D
C68    H101    1.079   .     S
C69    C70     1.399   .     S
C69    H102    1.078   .     S
C70    C71     1.397   .     S
C70    C73     1.474   .     D
C71    C72     1.393   .     D
C71    H103    1.079   .     S
C72    H104    1.078   .     S
C73    N74     1.295   .     S
C73    H105    1.078   .     S
N74    C75     1.433   .     D
C75    C76     1.393   .     S
C75    C80     1.399   .     S
C76    C77     1.400   .     D
C76    H106    1.080   .     S
C77    C78     1.416   .     S
C77    C96     1.500   .     S
C78    C79     1.395   .     S
C78    N81     1.433   .     D
C79    C80     1.391   .     D
C79    H107    1.079   .     S
C80    H108    1.076   .     S
N81    C82     1.296   .     S
C82    C83     1.471   .     D
C82    H109    1.078   .     S
C83    C84     1.396   .     S
C83    C88     1.389   .     S
C84    C85     1.393   .     D
C84    H110    1.079   .     S
C85    C86     1.403   .     S
C85    H111    1.078   .     S
C86    C87     1.404   .     S
C86    C89     1.489   .     D
C87    C88     1.387   .     D
C87    H112    1.076   .     S
C88    H113    1.093   .     S
C89    C90     1.399   .     S
C89    C94     1.400   .     S
C90    C91     1.395   .     D
C90    H114    1.080   .     S
C91    C92     1.395   .     S
C91    H115    1.076   .     S
C92    C93     1.410   .     S
C92    C95     1.516   1_455 D
C93    C94     1.393   .     D
C93    H116    1.065   .     S
C94    H117    1.079   .     S
C95    C92     1.516   1_655 D
C95    C181    1.526   .     S
C95    C275    1.396   1_655 S
C96    H118    1.108   .     S
C96    H119    1.110   .     S
C96    H120    1.102   .     S
C121   C122    1.409   .     D
C121   C126    1.404   .     S
C121   C215    1.526   .     S
C122   C123    1.390   .     S
C122   H157    1.056   .     S
C123   C124    1.393   .     D
C123   H158    1.080   .     S
C124   C125    1.395   .     S
C124   C127    1.483   .     S
C125   C126    1.397   .     D
C125   H159    1.081   .     S
C126   H160    1.069   .     S
C127   C128    1.401   .     D
C127   C132    1.401   .     S
C128   C129    1.392   .     S
C128   H161    1.079   .     S
C129   C130    1.399   .     D
C129   H162    1.078   .     S
C130   C131    1.397   .     S
C130   C133    1.474   .     S
C131   C132    1.393   .     D
C131   H163    1.079   .     S
C132   H164    1.078   .     S
C133   N134    1.295   .     D
C133   H165    1.078   .     S
N134   C135    1.433   .     S
C135   C136    1.393   .     D
C135   C140    1.399   .     S
C136   C137    1.400   .     S
C136   H166    1.080   .     S
C137   C138    1.416   .     D
C137   C156    1.500   .     S
C138   C139    1.395   .     S
C138   N141    1.433   .     S
C139   C140    1.391   .     D
C139   H167    1.079   .     S
C140   H168    1.076   .     S
N141   C142    1.296   .     D
C142   C143    1.471   .     S
C142   H169    1.078   .     S
C143   C144    1.396   .     D
C143   C148    1.389   .     S
C144   C145    1.393   .     S
C144   H170    1.079   .     S
C145   C146    1.403   .     D
C145   H171    1.078   .     S
C146   C147    1.404   .     S
C146   C149    1.489   .     S
C147   C148    1.387   .     D
C147   H172    1.076   .     S
C148   H173    1.093   .     S
C149   C150    1.399   .     D
C149   C154    1.400   .     S
C150   C151    1.395   .     S
C150   H174    1.080   .     S
C151   C152    1.395   .     D
C151   H175    1.076   .     S
C152   C153    1.410   .     S
C152   C155    1.516   .     S
C153   C154    1.393   .     D
C153   H176    1.065   .     S
C154   H177    1.079   .     S
C155   C241    1.526   .     D
C155   C335    1.396   .     S
C156   H178    1.108   .     S
C156   H179    1.110   .     S
C156   H180    1.102   .     S
C181   C182    1.409   .     D
C181   C186    1.404   .     S
C182   C183    1.390   .     S
C182   H217    1.056   .     S
C183   C184    1.393   .     D
C183   H218    1.080   .     S
C184   C185    1.395   .     S
C184   C187    1.483   .     S
C185   C186    1.397   .     D
C185   H219    1.081   .     S
C186   H220    1.069   .     S
C187   C188    1.401   .     D
C187   C192    1.401   .     S
C188   C189    1.392   .     S
C188   H221    1.079   .     S
C189   C190    1.399   .     D
C189   H222    1.078   .     S
C190   C191    1.397   .     S
C190   C193    1.474   .     S
C191   C192    1.393   .     D
C191   H223    1.079   .     S
C192   H224    1.078   .     S
C193   N194    1.295   .     D
C193   H225    1.078   .     S
N194   C195    1.433   .     S
C195   C196    1.393   .     D
C195   C200    1.399   .     S
C196   C197    1.400   .     S
C196   H226    1.080   .     S
C197   C198    1.416   .     D
C197   C216    1.500   .     S
C198   C199    1.395   .     S
C198   N201    1.433   .     S
C199   C200    1.391   .     D
C199   H227    1.079   .     S
C200   H228    1.076   .     S
N201   C202    1.296   .     D
C202   C203    1.471   .     S
C202   H229    1.078   .     S
C203   C204    1.396   .     D
C203   C208    1.389   .     S
C204   C205    1.393   .     S
C204   H230    1.079   .     S
C205   C206    1.403   .     D
C205   H231    1.078   .     S
C206   C207    1.404   .     S
C206   C209    1.489   .     S
C207   C208    1.387   .     D
C207   H232    1.076   .     S
C208   H233    1.093   .     S
C209   C210    1.399   .     D
C209   C214    1.400   .     S
C210   C211    1.395   .     S
C210   H234    1.080   .     S
C211   C212    1.395   .     D
C211   H235    1.076   .     S
C212   C213    1.410   .     S
C212   C215    1.516   1_545 S
C213   C214    1.393   .     D
C213   H236    1.065   .     S
C214   H237    1.079   .     S
C215   C35     1.396   1_565 D
C215   C212    1.516   1_565 S
C216   H238    1.108   .     S
C216   H239    1.110   .     S
C216   H240    1.102   .     S
C241   C242    1.409   .     S
C241   C246    1.404   .     S
C242   C243    1.390   .     D
C242   H277    1.056   .     S
C243   C244    1.393   .     S
C243   H278    1.080   .     S
C244   C245    1.395   .     S
C244   C247    1.483   .     D
C245   C246    1.397   .     D
C245   H279    1.081   .     S
C246   H280    1.069   .     S
C247   C248    1.401   .     S
C247   C252    1.401   .     S
C248   C249    1.392   .     D
C248   H281    1.079   .     S
C249   C250    1.399   .     S
C249   H282    1.078   .     S
C250   C251    1.397   .     S
C250   C253    1.474   .     D
C251   C252    1.393   .     D
C251   H283    1.079   .     S
C252   H284    1.078   .     S
C253   N254    1.295   .     S
C253   H285    1.078   .     S
N254   C255    1.433   .     D
C255   C256    1.393   .     S
C255   C260    1.399   .     S
C256   C257    1.400   .     D
C256   H286    1.080   .     S
C257   C258    1.416   .     S
C257   C276    1.500   .     S
C258   C259    1.395   .     S
C258   N261    1.433   .     D
C259   C260    1.391   .     D
C259   H287    1.079   .     S
C260   H288    1.076   .     S
N261   C262    1.296   .     S
C262   C263    1.471   .     D
C262   H289    1.078   .     S
C263   C264    1.396   .     S
C263   C268    1.389   .     S
C264   C265    1.393   .     D
C264   H290    1.079   .     S
C265   C266    1.403   .     S
C265   H291    1.078   .     S
C266   C267    1.404   .     S
C266   C269    1.489   .     D
C267   C268    1.387   .     D
C267   H292    1.076   .     S
C268   H293    1.093   .     S
C269   C270    1.399   .     S
C269   C274    1.400   .     S
C270   C271    1.395   .     D
C270   H294    1.080   .     S
C271   C272    1.395   .     S
C271   H295    1.076   .     S
C272   C273    1.410   .     S
C272   C275    1.516   1_655 D
C273   C274    1.393   .     D
C273   H296    1.065   .     S
C274   H297    1.079   .     S
C275   C272    1.516   1_455 D
C275   C95     1.396   1_455 S
C276   H298    1.108   .     S
C276   H299    1.110   .     S
C276   H300    1.102   .     S
C301   C302    1.409   .     D
C301   C306    1.404   .     S
C302   C303    1.390   .     S
C302   H337    1.056   .     S
C303   C304    1.393   .     D
C303   H338    1.080   .     S
C304   C305    1.395   .     S
C304   C307    1.483   .     S
C305   C306    1.397   .     D
C305   H339    1.081   .     S
C306   H340    1.069   .     S
C307   C308    1.401   .     D
C307   C312    1.401   .     S
C308   C309    1.392   .     S
C308   H341    1.079   .     S
C309   C310    1.399   .     D
C309   H342    1.078   .     S
C310   C311    1.397   .     S
C310   C313    1.474   .     S
C311   C312    1.393   .     D
C311   H343    1.079   .     S
C312   H344    1.078   .     S
C313   N314    1.295   .     D
C313   H345    1.078   .     S
N314   C315    1.433   .     S
C315   C316    1.393   .     D
C315   C320    1.399   .     S
C316   C317    1.400   .     S
C316   H346    1.080   .     S
C317   C318    1.416   .     D
C317   C336    1.500   .     S
C318   C319    1.395   .     S
C318   N321    1.433   .     S
C319   C320    1.391   .     D
C319   H347    1.079   .     S
C320   H348    1.076   .     S
N321   C322    1.296   .     D
C322   C323    1.471   .     S
C322   H349    1.078   .     S
C323   C324    1.396   .     D
C323   C328    1.389   .     S
C324   C325    1.393   .     S
C324   H350    1.079   .     S
C325   C326    1.403   .     D
C325   H351    1.078   .     S
C326   C327    1.404   .     S
C326   C329    1.489   .     S
C327   C328    1.387   .     D
C327   H352    1.076   .     S
C328   H353    1.093   .     S
C329   C330    1.399   .     D
C329   C334    1.400   .     S
C330   C331    1.395   .     S
C330   H354    1.080   .     S
C331   C332    1.395   .     D
C331   H355    1.076   .     S
C332   C333    1.410   .     S
C332   C335    1.516   .     S
C333   C334    1.393   .     D
C333   H356    1.065   .     S
C334   H357    1.079   .     S
C336   H358    1.108   .     S
C336   H359    1.110   .     S
C336   H360    1.102   .     S
