data_232
_audit_creation_date              2023-09-08
_audit_creation_method            'Materials Studio'
_symmetry_space_group_name_H-M    'P1'
_symmetry_Int_Tables_number       1
_symmetry_cell_setting            triclinic
loop_
_symmetry_equiv_pos_as_xyz
  x,y,z
_cell_length_a                    27.0900
_cell_length_b                    27.0800
_cell_length_c                    3.5000
_cell_angle_alpha                 89.4500
_cell_angle_beta                  90.3300
_cell_angle_gamma                 119.1000
loop_
_atom_site_label
_atom_site_type_symbol
_atom_site_fract_x
_atom_site_fract_y
_atom_site_fract_z
_atom_site_U_iso_or_equiv
_atom_site_adp_type
_atom_site_occupancy
O1     O     0.28919   0.55648  -0.02805   0.00000  Uiso   1.00
N2     N     0.38394   0.57491  -0.00123   0.00000  Uiso   1.00
C3     C     0.30957   0.60732  -0.03055   0.00000  Uiso   1.00
C4     C     0.40143   0.62726  -0.01446   0.00000  Uiso   1.00
C5     C     0.41601   0.55235   0.01224   0.00000  Uiso   1.00
C6     C     0.46926   0.58317  -0.03697   0.00000  Uiso   1.00
C7     C     0.49993   0.55810  -0.01625   0.00000  Uiso   1.00
C8     C     0.47651   0.50315   0.04771   0.00000  Uiso   1.00
C9     C     0.42198   0.47301   0.09287   0.00000  Uiso   1.00
C10    C     0.39171   0.49769   0.07974   0.00000  Uiso   1.00
C11    C     0.36536   0.64487  -0.02884   0.00000  Uiso   1.00
H12    H     0.44874   0.65816  -0.01352   0.00000  Uiso   1.00
H13    H     0.48796   0.63038  -0.09594   0.00000  Uiso   1.00
H14    H     0.34413   0.47218   0.12649   0.00000  Uiso   1.00
O15    O     0.43844   0.73225  -0.03443   0.00000  Uiso   1.00
N16    N     0.41853   0.80892  -0.05419   0.00000  Uiso   1.00
C17    C     0.38825   0.70244  -0.03313   0.00000  Uiso   1.00
C18    C     0.36705   0.77537  -0.04844   0.00000  Uiso   1.00
C19    C     0.44153   0.86341  -0.06549   0.00000  Uiso   1.00
C20    C     0.41136   0.88810  -0.03141   0.00000  Uiso   1.00
C21    C     0.43856   0.94360  -0.04641   0.00000  Uiso   1.00
C22    C     0.49359   0.97223  -0.10105   0.00000  Uiso   1.00
C23    C     0.52238   0.94515  -0.13643   0.00000  Uiso   1.00
C24    C     0.49600   0.89053  -0.12094   0.00000  Uiso   1.00
C25    C     0.35057   0.72163  -0.03911   0.00000  Uiso   1.00
H26    H     0.33564   0.79200  -0.05139   0.00000  Uiso   1.00
H27    H     0.36371   0.86184   0.00922   0.00000  Uiso   1.00
H28    H     0.52006   0.86609  -0.15541   0.00000  Uiso   1.00
O29    O     0.26393   0.70906  -0.04087   0.00000  Uiso   1.00
N30    N     0.19002   0.61449  -0.03932   0.00000  Uiso   1.00
C31    C     0.29410   0.68813  -0.03753   0.00000  Uiso   1.00
C32    C     0.22317   0.59520  -0.03307   0.00000  Uiso   1.00
C33    C     0.13635   0.58519  -0.03304   0.00000  Uiso   1.00
C34    C     0.11210   0.53111   0.01496   0.00000  Uiso   1.00
C35    C     0.05717   0.50395   0.01573   0.00000  Uiso   1.00
C36    C     0.02910   0.53152  -0.04325   0.00000  Uiso   1.00
C37    C     0.05559   0.58682  -0.09778   0.00000  Uiso   1.00
C38    C     0.10952   0.61368  -0.09222   0.00000  Uiso   1.00
C39    C     0.27599   0.63127  -0.03304   0.00000  Uiso   1.00
H40    H     0.20614   0.54754  -0.02772   0.00000  Uiso   1.00
H41    H     0.13874   0.50932   0.05418   0.00000  Uiso   1.00
H42    H     0.20660   0.66088  -0.05138   0.00000  Uiso   1.00
H43    H     0.13315   0.66143  -0.13828   0.00000  Uiso   1.00
O44    O     0.70864   0.44153  -0.00160   0.00000  Uiso   1.00
N45    N     0.61267   0.42077   0.01152   0.00000  Uiso   1.00
C46    C     0.68891   0.39079   0.00011   0.00000  Uiso   1.00
C47    C     0.59668   0.36900   0.00839   0.00000  Uiso   1.00
C48    C     0.57789   0.43996   0.02689   0.00000  Uiso   1.00
C49    C     0.52494   0.40616   0.10060   0.00000  Uiso   1.00
C50    C     0.49097   0.42645   0.10944   0.00000  Uiso   1.00
C51    C     0.51076   0.48079   0.04904   0.00000  Uiso   1.00
C52    C     0.56461   0.51398  -0.01994   0.00000  Uiso   1.00
C53    C     0.59922   0.49363  -0.02966   0.00000  Uiso   1.00
C54    C     0.63352   0.35249   0.00066   0.00000  Uiso   1.00
H55    H     0.54964   0.33708   0.01243   0.00000  Uiso   1.00
H56    H     0.50940   0.35934   0.15603   0.00000  Uiso   1.00
H57    H     0.65844   0.45186   0.00077   0.00000  Uiso   1.00
H58    H     0.64607   0.52291  -0.08621   0.00000  Uiso   1.00
O59    O     0.56130   0.26468  -0.00666   0.00000  Uiso   1.00
N60    N     0.58298   0.18831  -0.00346   0.00000  Uiso   1.00
C61    C     0.61137   0.29517  -0.00280   0.00000  Uiso   1.00
C62    C     0.63412   0.22337  -0.00021   0.00000  Uiso   1.00
C63    C     0.56330   0.13408  -0.01610   0.00000  Uiso   1.00
C64    C     0.59600   0.11156  -0.06816   0.00000  Uiso   1.00
C65    C     0.57419   0.05695  -0.07298   0.00000  Uiso   1.00
C66    C     0.51964   0.02473  -0.03367   0.00000  Uiso   1.00
C67    C     0.48766   0.04851   0.00851   0.00000  Uiso   1.00
C68    C     0.50958   0.10387   0.02148   0.00000  Uiso   1.00
C69    C     0.64965   0.27672   0.00136   0.00000  Uiso   1.00
H70    H     0.66686   0.20843   0.00136   0.00000  Uiso   1.00
H71    H     0.64340   0.13989  -0.10899   0.00000  Uiso   1.00
H72    H     0.55109   0.20282   0.00468   0.00000  Uiso   1.00
H73    H     0.48100   0.12332   0.06484   0.00000  Uiso   1.00
O74    O     0.73702   0.29083   0.02302   0.00000  Uiso   1.00
N75    N     0.80962   0.38698  -0.00451   0.00000  Uiso   1.00
C76    C     0.70613   0.31080   0.00997   0.00000  Uiso   1.00
C77    C     0.77499   0.40422  -0.00623   0.00000  Uiso   1.00
C78    C     0.86259   0.42062  -0.00984   0.00000  Uiso   1.00
C79    C     0.88374   0.47595  -0.05724   0.00000  Uiso   1.00
C80    C     0.93742   0.50735  -0.05551   0.00000  Uiso   1.00
C81    C     0.96879   0.48337  -0.00704   0.00000  Uiso   1.00
C82    C     0.94546   0.42747   0.03900   0.00000  Uiso   1.00
C83    C     0.89144   0.39494   0.03124   0.00000  Uiso   1.00
C84    C     0.72281   0.36725   0.00025   0.00000  Uiso   1.00
H85    H     0.79018   0.45156  -0.01339   0.00000  Uiso   1.00
H86    H     0.85420   0.49446  -0.09825   0.00000  Uiso   1.00
H87    H     0.87292   0.34721   0.05996   0.00000  Uiso   1.00
C88    C     0.55581   0.58790   0.96049   0.00000  Uiso   1.00
N89    N     0.58722   0.56737   0.93258   0.00000  Uiso   1.00
N90    N     0.40789   0.96698   0.99080   0.00000  Uiso   1.00
C91    C     0.02837   0.44729   1.04456   0.00000  Uiso   1.00
C92    C     0.43200   0.01451   1.03000   0.00000  Uiso   1.00
H93    H     0.60259   0.03719   0.88857   0.00000  Uiso   1.00
H94    H     0.44417   0.39742   0.16920   0.00000  Uiso   1.00
H95    H     0.57007   0.96976  -0.18023   0.00000  Uiso   1.00
H96    H     0.03032   0.60982  -0.14878   0.00000  Uiso   1.00
N97    N     0.97240   0.40099   1.10061   0.00000  Uiso   1.00
H98    H     0.40178   0.42547   0.14316   0.00000  Uiso   1.00
H99    H     0.95675   0.55501  -0.09564   0.00000  Uiso   1.00
C100   C     0.57937   0.64393  -0.11351   0.00000  Uiso   1.00
C101   C     0.61555   0.66514  -0.33046   0.00000  Uiso   1.00
C102   C     0.63786   0.71791  -0.41170   0.00000  Uiso   1.00
H103   H     0.67929   0.73982  -0.57701   0.00000  Uiso   1.00
H104   H     0.61628   0.74295  -0.31865   0.00000  Uiso   1.00
loop_
_geom_bond_atom_site_label_1
_geom_bond_atom_site_label_2
_geom_bond_distance
_geom_bond_site_symmetry_2
_ccdc_geom_bond_type
O1     C3      1.209   .     D
N2     C4      1.258   .     S
N2     C5      1.283   .     D
C3     C11     1.350   .     S
C3     C39     1.350   .     S
C4     C11     1.279   .     D
C4     H12     1.140   .     S
C5     C6      1.279   .     S
C5     C10     1.314   .     S
C6     C7      1.305   .     D
C6     H13     1.140   .     S
C7     C8      1.321   .     S
C7     C88     1.327   1_554 S
C8     C9      1.304   .     S
C8     C51     1.332   .     D
C9     C10     1.286   .     D
C9     H98     1.140   .     S
C10    H14     1.140   .     S
C11    C17     1.369   .     S
O15    C17     1.197   .     D
N16    C18     1.240   .     S
N16    C19     1.293   .     D
C17    C25     1.352   .     S
C18    C25     1.298   .     D
C18    H26     1.140   .     S
C19    C20     1.290   .     S
C19    C24     1.304   .     S
C20    C21     1.314   .     D
C20    H27     1.140   .     S
C21    C22     1.318   .     S
C21    N90     1.274   1_554 S
C22    C23     1.312   .     S
C22    C66     1.266   1_565 D
C23    C24     1.293   .     D
C23    H95     1.140   .     S
C24    H28     1.140   .     S
C25    C31     1.347   .     S
O29    C31     1.200   .     D
N30    C32     1.239   .     S
N30    C33     1.274   .     S
N30    H42     1.110   .     S
C31    C39     1.370   .     S
C32    C39     1.281   .     D
C32    H40     1.140   .     S
C33    C34     1.290   .     D
C33    C38     1.307   .     S
C34    C35     1.300   .     S
C34    H41     1.140   .     S
C35    C36     1.314   .     S
C35    C91     1.344   1_554 D
C36    C37     1.321   .     S
C36    C81     1.521   1_455 D
C37    C38     1.277   .     D
C37    H96     1.140   .     S
C38    H43     1.140   .     S
O44    C46     1.208   .     D
N45    C47     1.250   .     S
N45    C48     1.280   .     S
N45    H57     1.110   .     S
C46    C54     1.347   .     S
C46    C84     1.349   .     S
C47    C54     1.277   .     D
C47    H55     1.140   .     S
C48    C49     1.298   .     S
C48    C53     1.290   .     D
C49    C50     1.281   .     D
C49    H56     1.140   .     S
C50    C51     1.314   .     S
C50    H94     1.140   .     S
C51    C52     1.311   .     S
C52    C53     1.299   .     S
C52    N89     1.276   1_554 D
C53    H58     1.140   .     S
C54    C61     1.365   .     S
O59    C61     1.197   .     D
N60    C62     1.242   .     S
N60    C63     1.297   .     S
N60    H72     1.110   .     S
C61    C69     1.352   .     S
C62    C69     1.294   .     D
C62    H70     1.140   .     S
C63    C64     1.311   .     S
C63    C68     1.283   .     D
C64    C65     1.299   .     D
C64    H71     1.140   .     S
C65    C66     1.308   .     S
C65    H93     1.140   1_554 S
C66    C22     1.266   1_545 D
C66    C67     1.316   .     S
C67    C68     1.318   .     S
C67    C92     1.333   1_554 D
C68    H73     1.140   .     S
C69    C76     1.349   .     S
O74    C76     1.198   .     D
N75    C77     1.234   .     S
N75    C78     1.272   .     D
C76    C84     1.367   .     S
C77    C84     1.275   .     D
C77    H85     1.140   .     S
C78    C79     1.327   .     S
C78    C83     1.281   .     S
C79    C80     1.279   .     D
C79    H86     1.140   .     S
C80    C81     1.306   .     S
C80    H99     1.140   .     S
C81    C36     1.521   1_655 D
C81    C82     1.335   .     S
C82    C83     1.290   .     D
C82    N97     1.264   1_554 S
C83    H87     1.140   .     S
C88    C7      1.327   1_556 S
C88    N89     1.227   .     S
C88    C100    1.352   1_556 D
N89    C52     1.276   1_556 D
N90    C21     1.274   1_556 S
N90    C92     1.134   1_565 D
C91    C35     1.344   1_556 D
C91    N97     1.435   1_455 D
C92    C67     1.333   1_556 D
C92    N90     1.134   1_545 D
H93    C65     1.140   1_556 S
N97    C82     1.264   1_556 S
N97    C91     1.435   1_655 D
C100   C88     1.352   1_554 D
C100   C101    1.149   .     D
C101   C102    1.282   .     D
C102   H103    1.140   .     S
C102   H104    1.140   .     S
