data_234
_audit_creation_date              2023-09-08
_audit_creation_method            'Materials Studio'
_symmetry_space_group_name_H-M    'P1'
_symmetry_Int_Tables_number       1
_symmetry_cell_setting            triclinic
loop_
_symmetry_equiv_pos_as_xyz
  x,y,z
_cell_length_a                    52.2000
_cell_length_b                    52.2000
_cell_length_c                    6.8000
_cell_angle_alpha                 90.0000
_cell_angle_beta                  90.0000
_cell_angle_gamma                 120.0000
loop_
_atom_site_label
_atom_site_type_symbol
_atom_site_fract_x
_atom_site_fract_y
_atom_site_fract_z
_atom_site_U_iso_or_equiv
_atom_site_adp_type
_atom_site_occupancy
C1     C     0.14261   0.38486  -0.00031   0.00000  Uiso   1.00
C2     C     0.11575   0.35789  -0.00026   0.00000  Uiso   1.00
C3     C     0.11489   0.33091  -0.00021   0.00000  Uiso   1.00
C4     C     0.14226   0.33106  -0.00041   0.00000  Uiso   1.00
C5     C     0.16969   0.35857  -0.00044   0.00000  Uiso   1.00
C6     C     0.16967   0.38588  -0.00029   0.00000  Uiso   1.00
C7     C     0.14230   0.30302  -0.00048   0.00000  Uiso   1.00
C8     C     0.16975   0.30300  -0.00004   0.00000  Uiso   1.00
C9     C     0.19776   0.33106  -0.00004   0.00000  Uiso   1.00
C10    C     0.19776   0.35854  -0.00049   0.00000  Uiso   1.00
C11    C     0.22497   0.33090   0.00027   0.00000  Uiso   1.00
C12    C     0.25102   0.35788  -0.00019   0.00000  Uiso   1.00
C13    C     0.25106   0.38481  -0.00083   0.00000  Uiso   1.00
C14    C     0.22504   0.38584  -0.00090   0.00000  Uiso   1.00
C15    C     0.11498   0.27576  -0.00090   0.00000  Uiso   1.00
C16    C     0.11599   0.24974  -0.00087   0.00000  Uiso   1.00
C17    C     0.14290   0.24973  -0.00024   0.00000  Uiso   1.00
C18    C     0.16990   0.27578   0.00023   0.00000  Uiso   1.00
O19    O     0.28008   0.36370  -0.00007   0.00000  Uiso   1.00
B20    B     0.29746   0.39448  -0.00069   0.00000  Uiso   1.00
O21    O     0.28016   0.40796  -0.00114   0.00000  Uiso   1.00
O22    O     0.13654   0.40796  -0.00019   0.00000  Uiso   1.00
B23    B     0.10575   0.39441  -0.00012   0.00000  Uiso   1.00
O24    O     0.09248   0.36364  -0.00011   0.00000  Uiso   1.00
O25    O     0.09280   0.22070  -0.00120   0.00000  Uiso   1.00
B26    B     0.10620   0.20331  -0.00077   0.00000  Uiso   1.00
O27    O     0.13699   0.22062  -0.00016   0.00000  Uiso   1.00
C28    C     0.08928   0.17021  -0.00085   0.00000  Uiso   1.00
C29    C     0.33056   0.41096  -0.00074   0.00000  Uiso   1.00
C30    C     0.08867   0.41046  -0.00004   0.00000  Uiso   1.00
C31    C     0.05819   0.15501  -0.00148   0.00000  Uiso   1.00
C32    C     0.04173   0.12423  -0.00155   0.00000  Uiso   1.00
C33    C     0.05638   0.10764  -0.00094   0.00000  Uiso   1.00
C34    C     0.08763   0.12264  -0.00025   0.00000  Uiso   1.00
C35    C     0.10362   0.15346  -0.00022   0.00000  Uiso   1.00
C36    C     0.34657   0.39585  -0.00009   0.00000  Uiso   1.00
C37    C     0.37738   0.41104  -0.00009   0.00000  Uiso   1.00
C38    C     0.39315   0.44230  -0.00076   0.00000  Uiso   1.00
C39    C     0.37733   0.45773  -0.00139   0.00000  Uiso   1.00
C40    C     0.34651   0.44205  -0.00135   0.00000  Uiso   1.00
C41    C     0.10288   0.44153  -0.00008   0.00000  Uiso   1.00
C42    C     0.08684   0.45633  -0.00007   0.00000  Uiso   1.00
C43    C     0.05558   0.44005  -0.00002   0.00000  Uiso   1.00
C44    C     0.04102   0.40881   0.00004   0.00000  Uiso   1.00
C45    C     0.05758   0.39455   0.00004   0.00000  Uiso   1.00
N46    N     0.42481   0.45824  -0.00075   0.00000  Uiso   1.00
C47    C     0.44286   0.44507  -0.00031   0.00000  Uiso   1.00
C48    C     0.44289   0.48972  -0.00120   0.00000  Uiso   1.00
O49    O     0.43461   0.41871   0.00001   0.00000  Uiso   1.00
O50    O     0.43442   0.50754  -0.00162   0.00000  Uiso   1.00
C51    C    -0.05611  -0.10742  -0.00116   0.00000  Uiso   1.00
C52    C    -0.08735  -0.12269  -0.00178   0.00000  Uiso   1.00
C53    C    -0.10306  -0.15352  -0.00176   0.00000  Uiso   1.00
C54    C    -0.08851  -0.17006  -0.00116   0.00000  Uiso   1.00
C55    C    -0.05741  -0.15459  -0.00053   0.00000  Uiso   1.00
C56    C    -0.04120  -0.12377  -0.00053   0.00000  Uiso   1.00
B57    B    -0.10545  -0.20317  -0.00122   0.00000  Uiso   1.00
O58    O    -0.13624  -0.22040  -0.00194   0.00000  Uiso   1.00
C59    C    -0.14229  -0.24955  -0.00175   0.00000  Uiso   1.00
C60    C    -0.11544  -0.24966  -0.00092   0.00000  Uiso   1.00
O61    O    -0.09217  -0.22065  -0.00055   0.00000  Uiso   1.00
C62    C    -0.16937  -0.27558  -0.00208   0.00000  Uiso   1.00
C63    C    -0.16940  -0.30290  -0.00170   0.00000  Uiso   1.00
C64    C    -0.14195  -0.30295  -0.00100   0.00000  Uiso   1.00
C65    C    -0.11457  -0.27577  -0.00048   0.00000  Uiso   1.00
C66    C    -0.19747  -0.33099  -0.00172   0.00000  Uiso   1.00
C67    C    -0.19748  -0.35847  -0.00104   0.00000  Uiso   1.00
C68    C    -0.16943  -0.35849  -0.00088   0.00000  Uiso   1.00
C69    C    -0.14199  -0.33102  -0.00087   0.00000  Uiso   1.00
C70    C    -0.16953  -0.38583  -0.00082   0.00000  Uiso   1.00
C71    C    -0.14249  -0.38481  -0.00097   0.00000  Uiso   1.00
C72    C    -0.11562  -0.35788  -0.00098   0.00000  Uiso   1.00
C73    C    -0.11464  -0.33087  -0.00082   0.00000  Uiso   1.00
C74    C    -0.22475  -0.33096  -0.00215   0.00000  Uiso   1.00
C75    C    -0.25081  -0.35800  -0.00186   0.00000  Uiso   1.00
C76    C    -0.25078  -0.38490  -0.00102   0.00000  Uiso   1.00
C77    C    -0.22470  -0.38582  -0.00056   0.00000  Uiso   1.00
O78    O    -0.13654  -0.40797  -0.00106   0.00000  Uiso   1.00
B79    B    -0.10575  -0.39444  -0.00116   0.00000  Uiso   1.00
O80    O    -0.09238  -0.36366  -0.00108   0.00000  Uiso   1.00
O81    O    -0.27989  -0.36393  -0.00207   0.00000  Uiso   1.00
B82    B    -0.29722  -0.39471  -0.00137   0.00000  Uiso   1.00
O83    O    -0.27985  -0.40811  -0.00068   0.00000  Uiso   1.00
C84    C    -0.08876  -0.41053  -0.00128   0.00000  Uiso   1.00
C85    C    -0.10308  -0.44161  -0.00127   0.00000  Uiso   1.00
C86    C    -0.08704  -0.45638  -0.00137   0.00000  Uiso   1.00
C87    C    -0.05580  -0.44007  -0.00148   0.00000  Uiso   1.00
C88    C    -0.04118  -0.40883  -0.00150   0.00000  Uiso   1.00
C89    C    -0.05767  -0.39456  -0.00138   0.00000  Uiso   1.00
N90    N    -0.03909  -0.45497  -0.00153   0.00000  Uiso   1.00
C91    C    -0.33033  -0.41122  -0.00133   0.00000  Uiso   1.00
C92    C    -0.34612  -0.39591  -0.00194   0.00000  Uiso   1.00
C93    C    -0.37693  -0.41083  -0.00198   0.00000  Uiso   1.00
C94    C    -0.39296  -0.44207  -0.00138   0.00000  Uiso   1.00
C95    C    -0.37736  -0.45774  -0.00074   0.00000  Uiso   1.00
C96    C    -0.34652  -0.44231  -0.00071   0.00000  Uiso   1.00
C97    C     0.47437   0.46962  -0.00039   0.00000  Uiso   1.00
C98    C     0.47444   0.49662  -0.00099   0.00000  Uiso   1.00
C99    C     0.50061   0.46837   0.00000   0.00000  Uiso   1.00
N100   N     0.03965   0.07601  -0.00096   0.00000  Uiso   1.00
C101   C     0.00812   0.05872  -0.00144   0.00000  Uiso   1.00
C102   C     0.05198   0.05721  -0.00053   0.00000  Uiso   1.00
O103   O    -0.00911   0.06793  -0.00187   0.00000  Uiso   1.00
O104   O     0.07815   0.06469  -0.00018   0.00000  Uiso   1.00
C105   C    -0.05250  -0.05702  -0.00156   0.00000  Uiso   1.00
N106   N    -0.03975  -0.07572  -0.00112   0.00000  Uiso   1.00
C107   C    -0.00847  -0.05822  -0.00064   0.00000  Uiso   1.00
O108   O     0.00910  -0.06717  -0.00031   0.00000  Uiso   1.00
O109   O    -0.07864  -0.06489  -0.00199   0.00000  Uiso   1.00
C110   C     0.00024   0.02689  -0.00126   0.00000  Uiso   1.00
C111   C     0.02676   0.02602  -0.00065   0.00000  Uiso   1.00
C112   C    -0.02758   0.00103  -0.00155   0.00000  Uiso   1.00
C113   C    -0.02734  -0.02574  -0.00133   0.00000  Uiso   1.00
C114   C    -0.00077  -0.02654  -0.00071   0.00000  Uiso   1.00
C115   C     0.02705  -0.00073  -0.00028   0.00000  Uiso   1.00
C116   C    -0.00766  -0.44068  -0.00163   0.00000  Uiso   1.00
C117   C    -0.05146  -0.48621  -0.00152   0.00000  Uiso   1.00
O118   O    -0.07756  -0.50480  -0.00150   0.00000  Uiso   1.00
O119   O     0.00960  -0.41421  -0.00171   0.00000  Uiso   1.00
C120   C     0.02828  -0.46231  -0.00156   0.00000  Uiso   1.00
C121   C     0.00035  -0.46454  -0.00159   0.00000  Uiso   1.00
C122   C    -0.02608  -0.49202  -0.00154   0.00000  Uiso   1.00
H123   H     0.09338   0.31045   0.00016   0.00000  Uiso   1.00
H124   H     0.19009   0.40743  -0.00001   0.00000  Uiso   1.00
H125   H     0.22603   0.31044   0.00093   0.00000  Uiso   1.00
H126   H     0.22615   0.40739  -0.00121   0.00000  Uiso   1.00
H127   H     0.09343   0.27464  -0.00120   0.00000  Uiso   1.00
H128   H     0.19034   0.27468   0.00087   0.00000  Uiso   1.00
H129   H     0.04688   0.16801  -0.00188   0.00000  Uiso   1.00
H130   H     0.01749   0.11319  -0.00205   0.00000  Uiso   1.00
H131   H     0.09962   0.11035   0.00024   0.00000  Uiso   1.00
H132   H     0.12795   0.16509   0.00035   0.00000  Uiso   1.00
H133   H     0.33424   0.37152   0.00046   0.00000  Uiso   1.00
H134   H     0.38906   0.39844   0.00042   0.00000  Uiso   1.00
H135   H     0.38901   0.48200  -0.00188   0.00000  Uiso   1.00
H136   H     0.33412   0.45399  -0.00177   0.00000  Uiso   1.00
H137   H     0.12720   0.45430  -0.00005   0.00000  Uiso   1.00
H138   H     0.09876   0.48061  -0.00010   0.00000  Uiso   1.00
H139   H     0.01678   0.39551   0.00011   0.00000  Uiso   1.00
H140   H     0.04626   0.37024   0.00016   0.00000  Uiso   1.00
H141   H    -0.09949  -0.11056  -0.00226   0.00000  Uiso   1.00
H142   H    -0.12739  -0.16538  -0.00217   0.00000  Uiso   1.00
H143   H    -0.04582  -0.16732  -0.00001   0.00000  Uiso   1.00
H144   H    -0.01695  -0.11260  -0.00003   0.00000  Uiso   1.00
H145   H    -0.18977  -0.27441  -0.00253   0.00000  Uiso   1.00
H146   H    -0.09307  -0.27473   0.00040   0.00000  Uiso   1.00
H147   H    -0.18995  -0.40738  -0.00063   0.00000  Uiso   1.00
H148   H    -0.09311  -0.31044  -0.00064   0.00000  Uiso   1.00
H149   H    -0.22585  -0.31052  -0.00261   0.00000  Uiso   1.00
H150   H    -0.22577  -0.40734   0.00031   0.00000  Uiso   1.00
H151   H    -0.12741  -0.45429  -0.00111   0.00000  Uiso   1.00
H152   H    -0.09894  -0.48066  -0.00134   0.00000  Uiso   1.00
H153   H    -0.01694  -0.39559  -0.00157   0.00000  Uiso   1.00
H154   H    -0.04643  -0.37025  -0.00132   0.00000  Uiso   1.00
H155   H    -0.33358  -0.37158  -0.00235   0.00000  Uiso   1.00
H156   H    -0.38846  -0.39809  -0.00248   0.00000  Uiso   1.00
H157   H    -0.38917  -0.48202  -0.00024   0.00000  Uiso   1.00
H158   H    -0.33439  -0.45451  -0.00018   0.00000  Uiso   1.00
H159   H     0.50052   0.44726   0.00065   0.00000  Uiso   1.00
H160   H    -0.04828   0.00172  -0.00189   0.00000  Uiso   1.00
H161   H     0.04777  -0.00140   0.00038   0.00000  Uiso   1.00
H162   H     0.04887  -0.44082  -0.00142   0.00000  Uiso   1.00
N163   N     0.03883   0.45501   0.00002   0.00000  Uiso   1.00
C164   C     0.00736   0.44080   0.00006   0.00000  Uiso   1.00
C165   C     0.05114   0.48631  -0.00003   0.00000  Uiso   1.00
O166   O    -0.00986   0.41430   0.00002   0.00000  Uiso   1.00
O167   O     0.07726   0.50484  -0.00016   0.00000  Uiso   1.00
C168   C    -0.00063   0.46461   0.00013   0.00000  Uiso   1.00
C169   C     0.02580   0.49209   0.00008   0.00000  Uiso   1.00
C170   C    -0.02857   0.46239   0.00026   0.00000  Uiso   1.00
H171   H    -0.04920   0.44093   0.00049   0.00000  Uiso   1.00
N172   N    -0.42466  -0.45763  -0.00136   0.00000  Uiso   1.00
C173   C    -0.44293  -0.48882  -0.00092   0.00000  Uiso   1.00
C174   C    -0.44259  -0.44403  -0.00180   0.00000  Uiso   1.00
O175   O    -0.43474  -0.50700  -0.00062   0.00000  Uiso   1.00
O176   O    -0.43397  -0.41771  -0.00220   0.00000  Uiso   1.00
C177   C    -0.47433  -0.49556  -0.00100   0.00000  Uiso   1.00
C178   C    -0.47419  -0.46851  -0.00162   0.00000  Uiso   1.00
C179   C    -0.50046  -0.46731  -0.00185   0.00000  Uiso   1.00
H180   H    -0.50038  -0.44622  -0.00218   0.00000  Uiso   1.00
C181   C     0.15667   0.36874   0.50013   0.00000  Uiso   1.00
C182   C     0.12982   0.34179   0.50014   0.00000  Uiso   1.00
C183   C     0.12887   0.31480   0.49998   0.00000  Uiso   1.00
C184   C     0.15624   0.31499   0.50003   0.00000  Uiso   1.00
C185   C     0.18366   0.34248   0.50004   0.00000  Uiso   1.00
C186   C     0.18373   0.36980   0.49998   0.00000  Uiso   1.00
C187   C     0.15624   0.28695   0.50016   0.00000  Uiso   1.00
C188   C     0.18368   0.28690   0.50086   0.00000  Uiso   1.00
C189   C     0.21175   0.31501   0.50088   0.00000  Uiso   1.00
C190   C     0.21172   0.34248   0.50020   0.00000  Uiso   1.00
C191   C     0.23905   0.31503   0.50131   0.00000  Uiso   1.00
C192   C     0.26509   0.34210   0.50102   0.00000  Uiso   1.00
C193   C     0.26502   0.36897   0.50018   0.00000  Uiso   1.00
C194   C     0.23892   0.36985   0.49972   0.00000  Uiso   1.00
C195   C     0.12886   0.25977   0.49964   0.00000  Uiso   1.00
C196   C     0.12973   0.23367   0.50008   0.00000  Uiso   1.00
C197   C     0.15657   0.23354   0.50092   0.00000  Uiso   1.00
C198   C     0.18365   0.25958   0.50124   0.00000  Uiso   1.00
O199   O     0.29420   0.34808   0.50123   0.00000  Uiso   1.00
B200   B     0.31148   0.37887   0.50053   0.00000  Uiso   1.00
O201   O     0.29406   0.39222   0.49985   0.00000  Uiso   1.00
O202   O     0.15068   0.39188   0.50022   0.00000  Uiso   1.00
B203   B     0.11989   0.37831   0.50032   0.00000  Uiso   1.00
O204   O     0.10656   0.34754   0.50024   0.00000  Uiso   1.00
O205   O     0.10644   0.20467   0.49972   0.00000  Uiso   1.00
B206   B     0.11970   0.18717   0.50039   0.00000  Uiso   1.00
O207   O     0.15049   0.20438   0.50110   0.00000  Uiso   1.00
C208   C     0.10268   0.15406   0.50033   0.00000  Uiso   1.00
C209   C     0.34459   0.39545   0.50049   0.00000  Uiso   1.00
C210   C     0.10285   0.39436   0.50044   0.00000  Uiso   1.00
C211   C     0.07158   0.13868   0.49969   0.00000  Uiso   1.00
C212   C     0.05528   0.10786   0.49970   0.00000  Uiso   1.00
C213   C     0.07010   0.09142   0.50033   0.00000  Uiso   1.00
C214   C     0.10134   0.10661   0.50094   0.00000  Uiso   1.00
C215   C     0.11714   0.13744   0.50093   0.00000  Uiso   1.00
C216   C     0.36045   0.38021   0.50111   0.00000  Uiso   1.00
C217   C     0.39126   0.39520   0.50115   0.00000  Uiso   1.00
C218   C     0.40723   0.42645   0.50054   0.00000  Uiso   1.00
C219   C     0.39156   0.44205   0.49990   0.00000  Uiso   1.00
C220   C     0.36072   0.42655   0.49987   0.00000  Uiso   1.00
C221   C     0.11713   0.42543   0.50043   0.00000  Uiso   1.00
C222   C     0.10106   0.44016   0.50053   0.00000  Uiso   1.00
C223   C     0.06981   0.42381   0.50065   0.00000  Uiso   1.00
C224   C     0.05522   0.39257   0.50066   0.00000  Uiso   1.00
C225   C     0.07175   0.37834   0.50055   0.00000  Uiso   1.00
N226   N     0.43893   0.44205   0.50052   0.00000  Uiso   1.00
C227   C     0.45688   0.42848   0.50096   0.00000  Uiso   1.00
C228   C     0.45718   0.47326   0.50008   0.00000  Uiso   1.00
O229   O     0.44830   0.40218   0.50136   0.00000  Uiso   1.00
O230   O     0.44895   0.49140   0.49978   0.00000  Uiso   1.00
C231   C    -0.04239  -0.12364   0.50010   0.00000  Uiso   1.00
C232   C    -0.07365  -0.13872   0.49941   0.00000  Uiso   1.00
C233   C    -0.08954  -0.16955   0.49939   0.00000  Uiso   1.00
C234   C    -0.07511  -0.18621   0.50001   0.00000  Uiso   1.00
C235   C    -0.04402  -0.17092   0.50064   0.00000  Uiso   1.00
C236   C    -0.02766  -0.14014   0.50071   0.00000  Uiso   1.00
B237   B    -0.09195  -0.21931   0.49993   0.00000  Uiso   1.00
O238   O    -0.12273  -0.23664   0.49932   0.00000  Uiso   1.00
C239   C    -0.12862  -0.26573   0.49940   0.00000  Uiso   1.00
C240   C    -0.10171  -0.26574   0.50003   0.00000  Uiso   1.00
O241   O    -0.07853  -0.23668   0.50036   0.00000  Uiso   1.00
C242   C    -0.15562  -0.29178   0.49893   0.00000  Uiso   1.00
C243   C    -0.15547  -0.31900   0.49921   0.00000  Uiso   1.00
C244   C    -0.12802  -0.31902   0.49964   0.00000  Uiso   1.00
C245   C    -0.10070  -0.29177   0.50006   0.00000  Uiso   1.00
C246   C    -0.18349  -0.34704   0.49920   0.00000  Uiso   1.00
C247   C    -0.18352  -0.37453   0.49965   0.00000  Uiso   1.00
C248   C    -0.15546  -0.37458   0.49960   0.00000  Uiso   1.00
C249   C    -0.12801  -0.34709   0.49957   0.00000  Uiso   1.00
C250   C    -0.15547  -0.40190   0.49946   0.00000  Uiso   1.00
C251   C    -0.12843  -0.40092   0.49947   0.00000  Uiso   1.00
C252   C    -0.10155  -0.37397   0.49942   0.00000  Uiso   1.00
C253   C    -0.10066  -0.34698   0.49937   0.00000  Uiso   1.00
C254   C    -0.21066  -0.34683   0.49889   0.00000  Uiso   1.00
C255   C    -0.23674  -0.37379   0.49935   0.00000  Uiso   1.00
C256   C    -0.23683  -0.40075   0.49999   0.00000  Uiso   1.00
C257   C    -0.21082  -0.40182   0.50006   0.00000  Uiso   1.00
O258   O    -0.12240  -0.42406   0.49935   0.00000  Uiso   1.00
B259   B    -0.09161  -0.41054   0.49928   0.00000  Uiso   1.00
O260   O    -0.07831  -0.37977   0.49927   0.00000  Uiso   1.00
O261   O    -0.26577  -0.37955   0.49924   0.00000  Uiso   1.00
B262   B    -0.28320  -0.41032   0.49985   0.00000  Uiso   1.00
O263   O    -0.26594  -0.42386   0.50030   0.00000  Uiso   1.00
C264   C    -0.07459  -0.42664   0.49920   0.00000  Uiso   1.00
C265   C    -0.08883  -0.45771   0.49924   0.00000  Uiso   1.00
C266   C    -0.07283  -0.47255   0.49924   0.00000  Uiso   1.00
C267   C    -0.04157  -0.45631   0.49918   0.00000  Uiso   1.00
C268   C    -0.02697  -0.42507   0.49913   0.00000  Uiso   1.00
C269   C    -0.04349  -0.41077   0.49913   0.00000  Uiso   1.00
N270   N    -0.02484  -0.47130   0.49915   0.00000  Uiso   1.00
C271   C    -0.31630  -0.42672   0.49990   0.00000  Uiso   1.00
C272   C    -0.33223  -0.41155   0.49926   0.00000  Uiso   1.00
C273   C    -0.36305  -0.42667   0.49925   0.00000  Uiso   1.00
C274   C    -0.37888  -0.45793   0.49992   0.00000  Uiso   1.00
C275   C    -0.36312  -0.47342   0.50055   0.00000  Uiso   1.00
C276   C    -0.33231  -0.45781   0.50051   0.00000  Uiso   1.00
C277   C     0.48847   0.45298   0.50078   0.00000  Uiso   1.00
C278   C     0.48860   0.48003   0.50017   0.00000  Uiso   1.00
C279   C     0.51473   0.45178   0.50101   0.00000  Uiso   1.00
N280   N     0.05368   0.05973   0.50028   0.00000  Uiso   1.00
C281   C     0.02239   0.04226   0.49980   0.00000  Uiso   1.00
C282   C     0.06638   0.04100   0.50072   0.00000  Uiso   1.00
O283   O     0.00485   0.05126   0.49947   0.00000  Uiso   1.00
O284   O     0.09251   0.04882   0.50115   0.00000  Uiso   1.00
C285   C    -0.03810  -0.07323   0.49969   0.00000  Uiso   1.00
N286   N    -0.02573  -0.09200   0.50012   0.00000  Uiso   1.00
C287   C     0.00580  -0.07468   0.50061   0.00000  Uiso   1.00
O288   O     0.02307  -0.08384   0.50104   0.00000  Uiso   1.00
O289   O    -0.06428  -0.08077   0.49933   0.00000  Uiso   1.00
C290   C     0.01464   0.01055   0.49987   0.00000  Uiso   1.00
C291   C     0.04120   0.00974   0.50050   0.00000  Uiso   1.00
C292   C    -0.01318  -0.01527   0.49944   0.00000  Uiso   1.00
C293   C    -0.01290  -0.04202   0.49982   0.00000  Uiso   1.00
C294   C     0.01363  -0.04287   0.50042   0.00000  Uiso   1.00
C295   C     0.04144  -0.01702   0.50071   0.00000  Uiso   1.00
C296   C     0.00662  -0.45711   0.49910   0.00000  Uiso   1.00
C297   C    -0.03717  -0.50260   0.49919   0.00000  Uiso   1.00
O298   O    -0.06330  -0.52112   0.49932   0.00000  Uiso   1.00
O299   O     0.02386  -0.43061   0.49914   0.00000  Uiso   1.00
C300   C     0.04253  -0.47871   0.49890   0.00000  Uiso   1.00
C301   C     0.01459  -0.48093   0.49903   0.00000  Uiso   1.00
C302   C    -0.01184  -0.50841   0.49908   0.00000  Uiso   1.00
H303   H     0.10735   0.29436   0.49980   0.00000  Uiso   1.00
H304   H     0.20413   0.39137   0.49980   0.00000  Uiso   1.00
H305   H     0.24018   0.29460   0.50177   0.00000  Uiso   1.00
H306   H     0.23995   0.39135   0.49885   0.00000  Uiso   1.00
H307   H     0.10735   0.25872   0.49876   0.00000  Uiso   1.00
H308   H     0.20406   0.25842   0.50169   0.00000  Uiso   1.00
H309   H     0.06007   0.15148   0.49917   0.00000  Uiso   1.00
H310   H     0.03103   0.09676   0.49919   0.00000  Uiso   1.00
H311   H     0.11341   0.09441   0.50143   0.00000  Uiso   1.00
H312   H     0.14147   0.14922   0.50134   0.00000  Uiso   1.00
H313   H     0.34797   0.35588   0.50152   0.00000  Uiso   1.00
H314   H     0.40284   0.38252   0.50165   0.00000  Uiso   1.00
H315   H     0.40332   0.46633   0.49940   0.00000  Uiso   1.00
H316   H     0.34854   0.43869   0.49934   0.00000  Uiso   1.00
H317   H     0.14145   0.43814   0.50027   0.00000  Uiso   1.00
H318   H     0.11292   0.46443   0.50050   0.00000  Uiso   1.00
H319   H     0.03099   0.37930   0.50073   0.00000  Uiso   1.00
H320   H     0.06055   0.35403   0.50049   0.00000  Uiso   1.00
H321   H    -0.08570  -0.12650   0.49892   0.00000  Uiso   1.00
H322   H    -0.11387  -0.18126   0.49882   0.00000  Uiso   1.00
H323   H    -0.03264  -0.18385   0.50104   0.00000  Uiso   1.00
H324   H    -0.00341  -0.12903   0.50121   0.00000  Uiso   1.00
H325   H    -0.17605  -0.29067   0.49829   0.00000  Uiso   1.00
H326   H    -0.07915  -0.29064   0.50036   0.00000  Uiso   1.00
H327   H    -0.17591  -0.42345   0.49917   0.00000  Uiso   1.00
H328   H    -0.07914  -0.32652   0.49901   0.00000  Uiso   1.00
H329   H    -0.21170  -0.32636   0.49823   0.00000  Uiso   1.00
H330   H    -0.21197  -0.42338   0.50037   0.00000  Uiso   1.00
H331   H    -0.11315  -0.47046   0.49920   0.00000  Uiso   1.00
H332   H    -0.08478  -0.49683   0.49926   0.00000  Uiso   1.00
H333   H    -0.00273  -0.41179   0.49906   0.00000  Uiso   1.00
H334   H    -0.03214  -0.38646   0.49901   0.00000  Uiso   1.00
H335   H    -0.31986  -0.38722   0.49871   0.00000  Uiso   1.00
H336   H    -0.37467  -0.41402   0.49874   0.00000  Uiso   1.00
H337   H    -0.37486  -0.49769   0.50104   0.00000  Uiso   1.00
H338   H    -0.31998  -0.46981   0.50094   0.00000  Uiso   1.00
H339   H     0.51466   0.43069   0.50135   0.00000  Uiso   1.00
H340   H    -0.03390  -0.01459   0.49878   0.00000  Uiso   1.00
H341   H     0.06214  -0.01772   0.50105   0.00000  Uiso   1.00
H342   H     0.06316  -0.45725   0.49868   0.00000  Uiso   1.00
N343   N     0.05308   0.43868   0.50069   0.00000  Uiso   1.00
C344   C     0.02164   0.42437   0.50079   0.00000  Uiso   1.00
C345   C     0.06542   0.46991   0.50069   0.00000  Uiso   1.00
O346   O     0.00441   0.39790   0.50088   0.00000  Uiso   1.00
O347   O     0.09152   0.48852   0.50066   0.00000  Uiso   1.00
C348   C     0.01361   0.44822   0.50075   0.00000  Uiso   1.00
C349   C     0.04004   0.47571   0.50070   0.00000  Uiso   1.00
C350   C    -0.01432   0.44600   0.50073   0.00000  Uiso   1.00
H351   H    -0.03491   0.42450   0.50058   0.00000  Uiso   1.00
N352   N    -0.41054  -0.47381   0.49991   0.00000  Uiso   1.00
C353   C    -0.42864  -0.50528   0.50036   0.00000  Uiso   1.00
C354   C    -0.42857  -0.46061   0.49947   0.00000  Uiso   1.00
O355   O    -0.42021  -0.52313   0.50078   0.00000  Uiso   1.00
O356   O    -0.42028  -0.43425   0.49915   0.00000  Uiso   1.00
C357   C    -0.46017  -0.51215   0.50015   0.00000  Uiso   1.00
C358   C    -0.46009  -0.48515   0.49956   0.00000  Uiso   1.00
C359   C    -0.48634  -0.48390   0.49916   0.00000  Uiso   1.00
H360   H    -0.48625  -0.46279   0.49851   0.00000  Uiso   1.00
loop_
_geom_bond_atom_site_label_1
_geom_bond_atom_site_label_2
_geom_bond_distance
_geom_bond_site_symmetry_2
_ccdc_geom_bond_type
C1     C2      1.405   .     D
C1     C6      1.387   .     S
C1     O22     1.392   .     S
C2     C3      1.386   .     S
C2     O24     1.389   .     S
C3     C4      1.425   .     D
C3     H123    1.096   .     S
C4     C5      1.434   .     S
C4     C7      1.465   .     S
C5     C6      1.426   .     D
C5     C10     1.466   .     S
C6     H124    1.097   .     S
C7     C8      1.433   .     D
C7     C15     1.424   .     S
C8     C9      1.463   .     S
C8     C18     1.425   .     S
C9     C10     1.434   .     D
C9     C11     1.424   .     S
C10    C14     1.425   .     S
C11    C12     1.385   .     D
C11    H125    1.097   .     S
C12    C13     1.405   .     S
C12    O19     1.390   .     S
C13    C14     1.386   .     D
C13    O21     1.390   .     S
C14    H126    1.097   .     S
C15    C16     1.386   .     D
C15    H127    1.097   .     S
C16    C17     1.405   .     S
C16    O25     1.389   .     S
C17    C18     1.385   .     D
C17    O27     1.391   .     S
C18    H128    1.097   .     S
O19    B20     1.395   .     S
B20    O21     1.395   .     S
B20    C29     1.496   .     S
O22    B23     1.396   .     S
B23    O24     1.395   .     S
B23    C30     1.497   .     S
O25    B26     1.395   .     S
B26    O27     1.395   .     S
B26    C28     1.497   .     S
C28    C31     1.406   .     D
C28    C35     1.407   .     S
C29    C36     1.406   .     S
C29    C40     1.406   .     D
C30    C41     1.406   .     D
C30    C45     1.406   .     S
C31    C32     1.393   .     S
C31    H129    1.100   .     S
C32    C33     1.413   .     D
C32    H130    1.097   .     S
C33    C34     1.413   .     S
C33    N100    1.431   .     S
C34    C35     1.394   .     D
C34    H131    1.097   .     S
C35    H132    1.100   .     S
C36    C37     1.393   .     D
C36    H133    1.100   .     S
C37    C38     1.413   .     S
C37    H134    1.097   .     S
C38    C39     1.413   .     D
C38    N46     1.431   .     S
C39    C40     1.393   .     S
C39    H135    1.097   .     S
C40    H136    1.100   .     S
C41    C42     1.395   .     S
C41    H137    1.100   .     S
C42    C43     1.413   .     D
C42    H138    1.098   .     S
C43    C44     1.413   .     S
C43    N163    1.434   .     S
C44    C45     1.394   .     D
C44    H139    1.098   .     S
C45    H140    1.100   .     S
N46    C47     1.417   .     S
N46    C48     1.428   .     S
C47    O49     1.219   .     D
C47    C97     1.497   .     S
C48    O50     1.213   .     D
C48    C98     1.500   .     S
C51    C52     1.413   .     D
C51    C56     1.414   .     S
C51    N106    1.433   .     S
C52    C53     1.394   .     S
C52    H141    1.097   .     S
C53    C54     1.406   .     D
C53    H142    1.100   .     S
C54    C55     1.406   .     S
C54    B57     1.497   .     S
C55    C56     1.394   .     D
C55    H143    1.100   .     S
C56    H144    1.098   .     S
B57    O58     1.395   .     S
B57    O61     1.395   .     S
O58    C59     1.391   .     S
C59    C60     1.404   .     D
C59    C62     1.387   .     S
C60    O61     1.389   .     S
C60    C65     1.386   .     S
C62    C63     1.425   .     D
C62    H145    1.097   .     S
C63    C64     1.434   .     S
C63    C66     1.466   .     S
C64    C65     1.424   .     D
C64    C69     1.464   .     S
C65    H146    1.096   .     S
C66    C67     1.435   .     D
C66    C74     1.425   .     S
C67    C68     1.464   .     S
C67    C77     1.424   .     S
C68    C69     1.434   .     D
C68    C70     1.424   .     S
C69    C73     1.423   .     S
C70    C71     1.386   .     D
C70    H147    1.097   .     S
C71    C72     1.404   .     S
C71    O78     1.391   .     S
C72    C73     1.385   .     D
C72    O80     1.389   .     S
C73    H148    1.096   .     S
C74    C75     1.387   .     D
C74    H149    1.097   .     S
C75    C76     1.405   .     S
C75    O81     1.390   .     S
C76    C77     1.386   .     D
C76    O83     1.390   .     S
C77    H150    1.097   .     S
O78    B79     1.395   .     S
B79    O80     1.395   .     S
B79    C84     1.496   .     S
O81    B82     1.395   .     S
B82    O83     1.395   .     S
B82    C91     1.497   .     S
C84    C85     1.406   .     D
C84    C89     1.406   .     S
C85    C86     1.393   .     S
C85    H151    1.100   .     S
C86    C87     1.413   .     D
C86    H152    1.097   .     S
C87    C88     1.413   .     S
C87    N90     1.430   .     S
C88    C89     1.392   .     D
C88    H153    1.097   .     S
C89    H154    1.100   .     S
N90    C116    1.423   .     S
N90    C117    1.422   .     S
C91    C92     1.406   .     D
C91    C96     1.406   .     S
C92    C93     1.393   .     S
C92    H155    1.100   .     S
C93    C94     1.413   .     D
C93    H156    1.097   .     S
C94    C95     1.414   .     S
C94    N172    1.433   .     S
C95    C96     1.394   .     D
C95    H157    1.098   .     S
C96    H158    1.100   .     S
C97    C98     1.408   .     D
C97    C99     1.404   .     S
C98    C179    1.672   1_665 S
C99    H159    1.100   .     S
C99    C177    1.671   1_665 D
N100   C101    1.428   .     S
N100   C102    1.417   .     S
C101   O103    1.213   .     D
C101   C110    1.499   .     S
C102   O104    1.218   .     D
C102   C111    1.497   .     S
C105   N106    1.430   .     S
C105   O109    1.213   .     D
C105   C113    1.499   .     S
N106   C107    1.418   .     S
C107   O108    1.220   .     D
C107   C114    1.494   .     S
C110   C111    1.408   .     D
C110   C112    1.404   .     S
C111   C115    1.404   .     S
C112   C113    1.404   .     D
C112   H160    1.099   .     S
C113   C114    1.408   .     S
C114   C115    1.403   .     D
C115   H161    1.100   .     S
C116   O119    1.215   .     D
C116   C121    1.499   .     S
C117   O118    1.215   .     S
C117   C122    1.499   .     D
C120   C121    1.403   .     D
C120   H162    1.099   .     S
C121   C122    1.408   .     S
N163   C164    1.425   .     S
N163   C165    1.426   .     S
C164   O166    1.216   .     D
C164   C168    1.496   .     S
C165   O167    1.215   .     S
C165   C169    1.497   .     D
C168   C169    1.408   .     D
C168   C170    1.404   .     S
C170   H171    1.099   .     S
N172   C173    1.417   .     S
N172   C174    1.430   .     S
C173   O175    1.220   .     D
C173   C177    1.495   .     S
C174   O176    1.213   .     D
C174   C178    1.499   .     S
C177   C99     1.671   1_445 D
C177   C178    1.408   .     S
C178   C179    1.404   .     D
C179   C98     1.672   1_445 S
C179   H180    1.099   .     S
C181   C182    1.404   .     D
C181   C186    1.386   .     S
C181   O202    1.391   .     S
C182   C183    1.385   .     S
C182   O204    1.389   .     S
C183   C184    1.423   .     D
C183   H303    1.096   .     S
C184   C185    1.433   .     S
C184   C187    1.464   .     S
C185   C186    1.424   .     D
C185   C190    1.464   .     S
C186   H304    1.097   .     S
C187   C188    1.434   .     S
C187   C195    1.424   .     D
C188   C189    1.466   .     S
C188   C198    1.425   .     D
C189   C190    1.435   .     D
C189   C191    1.425   .     S
C190   C194    1.424   .     S
C191   C192    1.387   .     D
C191   H305    1.097   .     S
C192   C193    1.405   .     S
C192   O199    1.390   .     S
C193   C194    1.386   .     D
C193   O201    1.390   .     S
C194   H306    1.097   .     S
C195   C196    1.386   .     S
C195   H307    1.096   .     S
C196   C197    1.404   .     D
C196   O205    1.389   .     S
C197   C198    1.387   .     S
C197   O207    1.391   .     S
C198   H308    1.097   .     S
O199   B200    1.395   .     S
B200   O201    1.395   .     S
B200   C209    1.497   .     S
O202   B203    1.395   .     S
B203   O204    1.395   .     S
B203   C210    1.496   .     S
O205   B206    1.395   .     S
B206   O207    1.395   .     S
B206   C208    1.497   .     S
C208   C211    1.406   .     D
C208   C215    1.406   .     S
C209   C216    1.406   .     D
C209   C220    1.406   .     S
C210   C221    1.406   .     D
C210   C225    1.406   .     S
C211   C212    1.394   .     S
C211   H309    1.100   .     S
C212   C213    1.413   .     D
C212   H310    1.098   .     S
C213   C214    1.413   .     S
C213   N280    1.433   .     S
C214   C215    1.394   .     D
C214   H311    1.097   .     S
C215   H312    1.100   .     S
C216   C217    1.393   .     S
C216   H313    1.100   .     S
C217   C218    1.413   .     D
C217   H314    1.097   .     S
C218   C219    1.414   .     S
C218   N226    1.433   .     S
C219   C220    1.394   .     D
C219   H315    1.098   .     S
C220   H316    1.100   .     S
C221   C222    1.393   .     S
C221   H317    1.100   .     S
C222   C223    1.413   .     D
C222   H318    1.097   .     S
C223   C224    1.413   .     S
C223   N343    1.430   .     S
C224   C225    1.392   .     D
C224   H319    1.097   .     S
C225   H320    1.100   .     S
N226   C227    1.430   .     S
N226   C228    1.417   .     S
C227   O229    1.213   .     D
C227   C277    1.498   .     S
C228   O230    1.220   .     D
C228   C278    1.495   .     S
C231   C232    1.413   .     D
C231   C236    1.413   .     S
C231   N286    1.431   .     S
C232   C233    1.394   .     S
C232   H321    1.097   .     S
C233   C234    1.407   .     D
C233   H322    1.100   .     S
C234   C235    1.406   .     S
C234   B237    1.496   .     S
C235   C236    1.393   .     D
C235   H323    1.100   .     S
C236   H324    1.097   .     S
B237   O238    1.395   .     S
B237   O241    1.395   .     S
O238   C239    1.391   .     S
C239   C240    1.405   .     D
C239   C242    1.385   .     S
C240   O241    1.389   .     S
C240   C245    1.386   .     S
C242   C243    1.425   .     D
C242   H325    1.097   .     S
C243   C244    1.433   .     S
C243   C246    1.463   .     S
C244   C245    1.424   .     D
C244   C249    1.465   .     S
C245   H326    1.097   .     S
C246   C247    1.434   .     D
C246   C254    1.424   .     S
C247   C248    1.466   .     S
C247   C257    1.425   .     S
C248   C249    1.434   .     D
C248   C250    1.426   .     S
C249   C253    1.425   .     S
C250   C251    1.387   .     D
C250   H327    1.097   .     S
C251   C252    1.405   .     S
C251   O258    1.392   .     S
C252   C253    1.386   .     D
C252   O260    1.389   .     S
C253   H328    1.096   .     S
C254   C255    1.385   .     D
C254   H329    1.096   .     S
C255   C256    1.405   .     S
C255   O261    1.390   .     S
C256   C257    1.386   .     D
C256   O263    1.390   .     S
C257   H330    1.097   .     S
O258   B259    1.395   .     S
B259   O260    1.395   .     S
B259   C264    1.497   .     S
O261   B262    1.395   .     S
B262   O263    1.395   .     S
B262   C271    1.496   .     S
C264   C265    1.406   .     S
C264   C269    1.406   .     D
C265   C266    1.395   .     D
C265   H331    1.100   .     S
C266   C267    1.413   .     S
C266   H332    1.098   .     S
C267   C268    1.413   .     D
C267   N270    1.434   .     S
C268   C269    1.394   .     S
C268   H333    1.098   .     S
C269   H334    1.100   .     S
N270   C296    1.425   .     S
N270   C297    1.426   .     S
C271   C272    1.406   .     D
C271   C276    1.406   .     S
C272   C273    1.393   .     S
C272   H335    1.100   .     S
C273   C274    1.413   .     D
C273   H336    1.097   .     S
C274   C275    1.413   .     S
C274   N352    1.431   .     S
C275   C276    1.393   .     D
C275   H337    1.097   .     S
C276   H338    1.100   .     S
C277   C278    1.408   .     S
C277   C279    1.403   .     D
C278   C359    1.671   1_665 D
C279   H339    1.099   .     S
C279   C357    1.672   1_665 S
N280   C281    1.418   .     S
N280   C282    1.430   .     S
C281   O283    1.220   .     D
C281   C290    1.495   .     S
C282   O284    1.213   .     D
C282   C291    1.498   .     S
C285   N286    1.418   .     S
C285   O289    1.218   .     D
C285   C293    1.497   .     S
N286   C287    1.428   .     S
C287   O288    1.213   .     D
C287   C294    1.499   .     S
C290   C291    1.408   .     S
C290   C292    1.403   .     D
C291   C295    1.403   .     D
C292   C293    1.404   .     S
C292   H340    1.100   .     S
C293   C294    1.408   .     D
C294   C295    1.404   .     S
C295   H341    1.099   .     S
C296   O299    1.216   .     D
C296   C301    1.496   .     S
C297   O298    1.215   .     S
C297   C302    1.497   .     D
C300   C301    1.404   .     D
C300   H342    1.099   .     S
C301   C302    1.408   .     S
N343   C344    1.423   .     S
N343   C345    1.422   .     S
C344   O346    1.215   .     D
C344   C348    1.499   .     S
C345   O347    1.215   .     S
C345   C349    1.499   .     D
C348   C349    1.408   .     S
C348   C350    1.403   .     D
C350   H351    1.099   .     S
N352   C353    1.428   .     S
N352   C354    1.417   .     S
C353   O355    1.213   .     D
C353   C357    1.499   .     S
C354   O356    1.219   .     D
C354   C358    1.497   .     S
C357   C279    1.672   1_445 S
C357   C358    1.408   .     D
C358   C359    1.404   .     S
C359   C278    1.671   1_445 D
C359   H360    1.100   .     S
