data_237
_audit_creation_date              2023-09-08
_audit_creation_method            'Materials Studio'
_symmetry_space_group_name_H-M    'P1'
_symmetry_Int_Tables_number       1
_symmetry_cell_setting            triclinic
loop_
_symmetry_equiv_pos_as_xyz
  x,y,z
_cell_length_a                    3.6000
_cell_length_b                    29.2140
_cell_length_c                    29.2140
_cell_angle_alpha                 120.0000
_cell_angle_beta                  90.0000
_cell_angle_gamma                 90.0000
loop_
_atom_site_label
_atom_site_type_symbol
_atom_site_fract_x
_atom_site_fract_y
_atom_site_fract_z
_atom_site_U_iso_or_equiv
_atom_site_adp_type
_atom_site_occupancy
N1     N    -0.38889   0.43726  -0.18983   0.00000  Uiso   1.00
N2     N    -0.38889   0.61097   0.18867   0.00000  Uiso   1.00
N3     N    -0.38889   0.37291  -0.43726   0.00000  Uiso   1.00
N4     N    -0.38889   0.57770   0.38903   0.00000  Uiso   1.00
N5     N    -0.38889   0.18983  -0.37290   0.00000  Uiso   1.00
N6     N    -0.38889   0.81133   0.42231   0.00000  Uiso   1.00
C7     C    -0.38889   0.38445  -0.22214   0.00000  Uiso   1.00
C8     C    -0.38889   0.46402  -0.13679   0.00000  Uiso   1.00
C9     C    -0.38889   0.43819  -0.10822   0.00000  Uiso   1.00
C10    C    -0.38889   0.46831  -0.05467   0.00000  Uiso   1.00
C11    C    -0.38889   0.52496  -0.02685   0.00000  Uiso   1.00
C12    C    -0.38889   0.55547  -0.05357   0.00000  Uiso   1.00
C13    C    -0.38889   0.51948  -0.10958   0.00000  Uiso   1.00
C14    C    -0.38889   0.65818   0.23203   0.00000  Uiso   1.00
C15    C    -0.38889   0.59537   0.13772   0.00000  Uiso   1.00
C16    C    -0.38889   0.62614   0.11343   0.00000  Uiso   1.00
C17    C    -0.38889   0.60577   0.05757   0.00000  Uiso   1.00
C18    C    -0.38889   0.54954   0.02835   0.00000  Uiso   1.00
C19    C    -0.38889   0.51905   0.05469   0.00000  Uiso   1.00
C20    C    -0.38889   0.54118   0.10838   0.00000  Uiso   1.00
C21    C    -0.38889   0.39342  -0.38445   0.00000  Uiso   1.00
C22    C    -0.38889   0.39919  -0.46402   0.00000  Uiso   1.00
C23    C    -0.38889   0.45359  -0.43819   0.00000  Uiso   1.00
C24    C    -0.38889   0.47701  -0.46831   0.00000  Uiso   1.00
C25    C    -0.38889   0.44819  -0.52495   0.00000  Uiso   1.00
C26    C    -0.38889   0.39096  -0.55547   0.00000  Uiso   1.00
C27    C    -0.38889   0.37094  -0.51948   0.00000  Uiso   1.00
C28    C    -0.38889   0.57385   0.34183   0.00000  Uiso   1.00
C29    C    -0.38889   0.54235   0.40463   0.00000  Uiso   1.00
C30    C    -0.38889   0.48729   0.37386   0.00000  Uiso   1.00
C31    C    -0.38889   0.45180   0.39424   0.00000  Uiso   1.00
C32    C    -0.38889   0.47881   0.45046   0.00000  Uiso   1.00
C33    C    -0.38889   0.53564   0.48096   0.00000  Uiso   1.00
C34    C    -0.38889   0.56721   0.45883   0.00000  Uiso   1.00
C35    C    -0.38889   0.22214  -0.39341   0.00000  Uiso   1.00
C36    C    -0.38889   0.13679  -0.39919   0.00000  Uiso   1.00
C37    C    -0.38889   0.10822  -0.45359   0.00000  Uiso   1.00
C38    C    -0.38889   0.05468  -0.47701   0.00000  Uiso   1.00
C39    C    -0.38889   0.02685  -0.44819   0.00000  Uiso   1.00
C40    C    -0.38889   0.05357  -0.39096   0.00000  Uiso   1.00
C41    C    -0.38889   0.10958  -0.37094   0.00000  Uiso   1.00
C42    C    -0.38889   0.76797   0.42615   0.00000  Uiso   1.00
C43    C    -0.38889   0.86228   0.45765   0.00000  Uiso   1.00
C44    C    -0.38889   0.88657   0.51271   0.00000  Uiso   1.00
C45    C    -0.38889   0.94243   0.54820   0.00000  Uiso   1.00
C46    C    -0.38889   0.97165   0.52119   0.00000  Uiso   1.00
C47    C    -0.38889   0.94532   0.46436   0.00000  Uiso   1.00
C48    C    -0.38889   0.89162   0.43279   0.00000  Uiso   1.00
H49    H    -0.38889   0.36013  -0.20652   0.00000  Uiso   1.00
H50    H    -0.38889   0.43334  -0.36013   0.00000  Uiso   1.00
H51    H    -0.38889   0.20653  -0.43334   0.00000  Uiso   1.00
H52    H    -0.38889   0.39817  -0.12453   0.00000  Uiso   1.00
H53    H    -0.38889   0.47730  -0.39817   0.00000  Uiso   1.00
H54    H    -0.38889   0.12453  -0.47730   0.00000  Uiso   1.00
H55    H    -0.38889   0.45791  -0.20751   0.00000  Uiso   1.00
H56    H    -0.38889   0.33458  -0.45791   0.00000  Uiso   1.00
H57    H    -0.38889   0.20751  -0.33458   0.00000  Uiso   1.00
H58    H    -0.38889   0.52965  -0.13603   0.00000  Uiso   1.00
H59    H    -0.38889   0.33432  -0.52965   0.00000  Uiso   1.00
H60    H    -0.38889   0.13603  -0.33431   0.00000  Uiso   1.00
H61    H    -0.38889   0.44433  -0.03922   0.00000  Uiso   1.00
H62    H    -0.38889   0.51645  -0.44432   0.00000  Uiso   1.00
H63    H    -0.38889   0.03922  -0.51645   0.00000  Uiso   1.00
C64    C    -0.38889   0.61428  -0.02476   0.00000  Uiso   1.00
C65    C    -0.38889   0.36095  -0.61428   0.00000  Uiso   1.00
C66    C    -0.38889   0.02477  -0.36095   0.00000  Uiso   1.00
C67    C    -0.38889   0.30058  -0.64772   0.00000  Uiso   1.00
C68    C    -0.38889   0.26621  -0.70534   0.00000  Uiso   1.00
C69    C    -0.38889   0.21038  -0.73645   0.00000  Uiso   1.00
C70    C    -0.38889   0.17987  -0.71237   0.00000  Uiso   1.00
C71    C    -0.38889   0.20696  -0.65764   0.00000  Uiso   1.00
C72    C    -0.38889   0.26279  -0.62923   0.00000  Uiso   1.00
H73    H    -0.38889   0.13948  -0.73385   0.00000  Uiso   1.00
H74    H    -0.38889   0.18595  -0.63815   0.00000  Uiso   1.00
H75    H    -0.38889   0.27081  -0.59285   0.00000  Uiso   1.00
H76    H    -0.38889   0.27734   0.26773   0.00000  Uiso   1.00
H77    H    -0.38889   0.19155  -0.77700   0.00000  Uiso   1.00
C78    C    -0.38889   0.05170  -0.30058   0.00000  Uiso   1.00
C79    C    -0.38889   0.02845  -0.26621   0.00000  Uiso   1.00
C80    C    -0.38889   0.05318  -0.21038   0.00000  Uiso   1.00
C81    C    -0.38889   0.10775  -0.17987   0.00000  Uiso   1.00
C82    C    -0.38889   0.13540  -0.20696   0.00000  Uiso   1.00
C83    C    -0.38889   0.10798  -0.26279   0.00000  Uiso   1.00
H84    H    -0.38889   0.12667  -0.13948   0.00000  Uiso   1.00
H85    H    -0.38889   0.17590  -0.18595   0.00000  Uiso   1.00
H86    H    -0.38889   0.13635  -0.27080   0.00000  Uiso   1.00
H87    H    -0.38889   0.99040   0.72267   0.00000  Uiso   1.00
H88    H    -0.38889   0.03145  -0.19155   0.00000  Uiso   1.00
C89    C    -0.38889   0.64772  -0.05170   0.00000  Uiso   1.00
C90    C    -0.38889   0.70534  -0.02845   0.00000  Uiso   1.00
C91    C    -0.38889   0.73645  -0.05317   0.00000  Uiso   1.00
C92    C    -0.38889   0.71237  -0.10775   0.00000  Uiso   1.00
C93    C    -0.38889   0.65764  -0.13540   0.00000  Uiso   1.00
C94    C    -0.38889   0.62923  -0.10798   0.00000  Uiso   1.00
H95    H    -0.38889   0.73385  -0.12667   0.00000  Uiso   1.00
H96    H    -0.38889   0.63815  -0.17590   0.00000  Uiso   1.00
H97    H    -0.38889   0.59285  -0.13635   0.00000  Uiso   1.00
H98    H    -0.38889   0.73227   0.00960   0.00000  Uiso   1.00
H99    H    -0.38889   0.77700  -0.03145   0.00000  Uiso   1.00
H100   H    -0.38889   0.69151   0.22868   0.00000  Uiso   1.00
H101   H    -0.38889   0.66376   0.13983   0.00000  Uiso   1.00
H102   H    -0.38889   0.58227   0.19564   0.00000  Uiso   1.00
H103   H    -0.38889   0.51754   0.12526   0.00000  Uiso   1.00
N104   N    -0.38889   0.63591   0.03217   0.00000  Uiso   1.00
H105   H    -0.38889   0.47941   0.03802   0.00000  Uiso   1.00
H106   H    -0.16121   0.73502   0.14786   0.00000  Uiso   1.00
H107   H    -0.15569   0.70582   0.05449   0.00000  Uiso   1.00
H108   H    -0.61657   0.73502   0.14786   0.00000  Uiso   1.00
H109   H    -0.62209   0.70582   0.05449   0.00000  Uiso   1.00
C110   C    -0.38889   0.73715   0.12618   0.00000  Uiso   1.00
C111   C    -0.38889   0.69374   0.06654   0.00000  Uiso   1.00
H112   H    -0.38889   0.77663   0.13060   0.00000  Uiso   1.00
F113   F    -0.49890   0.85306   0.23498   0.00000  Uiso   1.00
H114   H    -0.38889   0.53718   0.30849   0.00000  Uiso   1.00
H115   H    -0.38889   0.47607   0.33624   0.00000  Uiso   1.00
H116   H    -0.38889   0.61337   0.41773   0.00000  Uiso   1.00
H117   H    -0.38889   0.60772   0.48246   0.00000  Uiso   1.00
N118   N    -0.38889   0.39626   0.36410   0.00000  Uiso   1.00
H119   H    -0.38889   0.55861   0.52059   0.00000  Uiso   1.00
H120   H    -0.16121   0.41284   0.26498   0.00000  Uiso   1.00
H121   H    -0.15569   0.34866   0.29418   0.00000  Uiso   1.00
H122   H    -0.61657   0.41284   0.26498   0.00000  Uiso   1.00
H123   H    -0.62209   0.34866   0.29418   0.00000  Uiso   1.00
C124   C    -0.38889   0.38904   0.26285   0.00000  Uiso   1.00
C125   C    -0.38889   0.37280   0.30626   0.00000  Uiso   1.00
H126   H    -0.38889   0.35398   0.22338   0.00000  Uiso   1.00
F127   F    -0.53585   0.36304   0.13382   0.00000  Uiso   1.00
H128   H    -0.38889   0.77132   0.46283   0.00000  Uiso   1.00
H129   H    -0.38889   0.86017   0.52393   0.00000  Uiso   1.00
H130   H    -0.38889   0.80437   0.38663   0.00000  Uiso   1.00
H131   H    -0.38889   0.87475   0.39228   0.00000  Uiso   1.00
N132   N    -0.38889   0.96784   0.60374   0.00000  Uiso   1.00
H133   H    -0.38889   0.96198   0.44139   0.00000  Uiso   1.00
H134   H    -0.16121   0.85214   0.58717   0.00000  Uiso   1.00
H135   H    -0.15569   0.94552   0.65134   0.00000  Uiso   1.00
H136   H    -0.61657   0.85214   0.58717   0.00000  Uiso   1.00
H137   H    -0.62209   0.94552   0.65134   0.00000  Uiso   1.00
C138   C    -0.38889   0.87382   0.61097   0.00000  Uiso   1.00
C139   C    -0.38889   0.93346   0.62720   0.00000  Uiso   1.00
H140   H    -0.38889   0.86940   0.64602   0.00000  Uiso   1.00
F141   F    -0.59390   0.80221   0.68924   0.00000  Uiso   1.00
C142   C    -0.38889   0.61595   0.28864   0.00000  Uiso   1.00
C143   C    -0.38889   0.66091   0.28178   0.00000  Uiso   1.00
C144   C    -0.38889   0.38880  -0.30439   0.00000  Uiso   1.00
C145   C    -0.38889   0.36008  -0.27737   0.00000  Uiso   1.00
C146   C    -0.38889   0.67268   0.38405   0.00000  Uiso   1.00
C147   C    -0.38889   0.62087   0.33910   0.00000  Uiso   1.00
C148   C    -0.38889   0.30682  -0.38880   0.00000  Uiso   1.00
C149   C    -0.38889   0.36255  -0.36008   0.00000  Uiso   1.00
C150   C    -0.38889   0.71137   0.32732   0.00000  Uiso   1.00
C151   C    -0.38889   0.71822   0.37913   0.00000  Uiso   1.00
C152   C    -0.38889   0.30439  -0.30681   0.00000  Uiso   1.00
C153   C    -0.38889   0.27737  -0.36255   0.00000  Uiso   1.00
O154   O    -0.38889   0.56933   0.25034   0.00000  Uiso   1.00
O155   O    -0.38889   0.43850  -0.27944   0.00000  Uiso   1.00
O156   O    -0.38889   0.68101   0.43067   0.00000  Uiso   1.00
O157   O    -0.38889   0.28206  -0.43850   0.00000  Uiso   1.00
O158   O    -0.38889   0.74966   0.31899   0.00000  Uiso   1.00
O159   O    -0.38889   0.27945  -0.28205   0.00000  Uiso   1.00
loop_
_geom_bond_atom_site_label_1
_geom_bond_atom_site_label_2
_geom_bond_distance
_geom_bond_site_symmetry_2
_ccdc_geom_bond_type
N1     C7      1.347   .     S
N1     C8      1.342   .     S
N1     H55     0.970   .     S
N2     C14     1.326   .     S
N2     C15     1.321   .     S
N2     H102    0.957   .     S
N3     C21     1.347   .     S
N3     C22     1.342   .     S
N3     H56     0.970   .     S
N4     C28     1.326   .     S
N4     C29     1.321   .     S
N4     H116    0.957   .     S
N5     C35     1.347   .     S
N5     C36     1.342   .     S
N5     H57     0.970   .     S
N6     C42     1.326   .     S
N6     C43     1.321   .     S
N6     H130    0.957   .     S
C7     H49     1.018   .     S
C7     C145    1.401   .     D
C8     C9      1.377   .     D
C8     C13     1.403   .     S
C9     C10     1.358   .     S
C9     H52     1.018   .     S
C10    C11     1.433   .     D
C10    H61     1.006   .     S
C11    C12     1.449   .     S
C11    C18     1.399   .     S
C12    C13     1.436   .     D
C12    C64     1.488   .     S
C13    H58     0.957   .     S
C14    H100    1.026   .     S
C14    C143    1.415   .     D
C15    C16     1.396   .     D
C15    C20     1.373   .     S
C16    C17     1.430   .     S
C16    H101    0.977   .     S
C17    C18     1.423   .     D
C17    N104    1.407   .     S
C18    C19     1.439   .     S
C19    C20     1.366   .     D
C19    H105    1.007   .     S
C20    H103    1.030   .     S
C21    H50     1.018   .     S
C21    C149    1.401   .     D
C22    C23     1.377   .     D
C22    C27     1.403   .     S
C23    C24     1.358   .     S
C23    H53     1.018   .     S
C24    C25     1.433   .     D
C24    H62     1.006   .     S
C25    C26     1.449   .     S
C25    C32     1.399   1_554 S
C26    C27     1.436   .     D
C26    C65     1.488   .     S
C27    H59     0.957   .     S
C28    H114    1.026   .     S
C28    C147    1.415   .     D
C29    C30     1.396   .     D
C29    C34     1.373   .     S
C30    C31     1.430   .     S
C30    H115    0.977   .     S
C31    C32     1.423   .     D
C31    N118    1.407   .     S
C32    C25     1.399   1_556 S
C32    C33     1.439   .     S
C33    C34     1.366   .     D
C33    H119    1.007   .     S
C34    H117    1.030   .     S
C35    H51     1.018   .     S
C35    C153    1.401   .     D
C36    C37     1.377   .     D
C36    C41     1.403   .     S
C37    C38     1.358   .     S
C37    H54     1.018   .     S
C38    C39     1.433   .     D
C38    H63     1.006   .     S
C39    C40     1.449   .     S
C39    C46     1.399   1_544 S
C40    C41     1.436   .     D
C40    C66     1.488   .     S
C41    H60     0.957   .     S
C42    H128    1.026   .     S
C42    C151    1.415   .     D
C43    C44     1.396   .     D
C43    C48     1.373   .     S
C44    C45     1.430   .     S
C44    H129    0.977   .     S
C45    C46     1.423   .     D
C45    N132    1.407   .     S
C46    C39     1.399   1_566 S
C46    C47     1.439   .     S
C47    C48     1.366   .     D
C47    H133    1.007   .     S
C48    H131    1.030   .     S
C64    C89     1.530   .     S
C64    N104    1.454   .     D
C65    C67     1.530   .     S
C65    N118    1.454   1_554 D
C66    C78     1.530   .     S
C66    N132    1.454   1_544 D
C67    C68     1.467   .     S
C67    C72     1.452   .     D
C68    C69     1.416   .     D
C68    H76     0.990   1_554 S
C69    C70     1.384   .     S
C69    H77     1.027   .     S
C70    C71     1.385   .     D
C70    H73     1.023   .     S
C71    C72     1.413   .     S
C71    H74     1.025   .     S
C72    H75     0.967   .     S
H76    C68     0.990   1_556 S
C78    C79     1.467   .     S
C78    C83     1.452   .     D
C79    C80     1.416   .     D
C79    H87     0.990   1_544 S
C80    C81     1.384   .     S
C80    H88     1.027   .     S
C81    C82     1.385   .     D
C81    H84     1.023   .     S
C82    C83     1.413   .     S
C82    H85     1.025   .     S
C83    H86     0.967   .     S
H87    C79     0.990   1_566 S
C89    C90     1.467   .     S
C89    C94     1.452   .     D
C90    C91     1.416   .     D
C90    H98     0.990   .     S
C91    C92     1.384   .     S
C91    H99     1.027   .     S
C92    C93     1.385   .     D
C92    H95     1.023   .     S
C93    C94     1.413   .     S
C93    H96     1.025   .     S
C94    H97     0.967   .     S
N104   C111    1.472   .     S
H106   C110    1.056   .     S
H107   C111    1.038   .     S
H108   C110    1.056   .     S
H109   C111    1.038   .     S
C110   C111    1.560   .     S
C110   H112    1.094   .     S
N118   C65     1.454   1_556 D
N118   C125    1.472   .     S
H120   C124    1.056   .     S
H121   C125    1.038   .     S
H122   C124    1.056   .     S
H123   C125    1.038   .     S
C124   C125    1.560   .     S
C124   H126    1.094   .     S
N132   C66     1.454   1_566 D
N132   C139    1.472   .     S
H134   C138    1.056   .     S
H135   C139    1.038   .     S
H136   C138    1.056   .     S
H137   C139    1.038   .     S
C138   C139    1.560   .     S
C138   H140    1.094   .     S
C142   C143    1.424   .     S
C142   C147    1.408   .     S
C142   O154    1.258   .     D
C143   C150    1.408   .     S
C144   C145    1.410   .     S
C144   C149    1.410   .     S
C144   O155    1.257   .     D
C145   C152    1.410   .     S
C146   C147    1.424   .     S
C146   C151    1.408   .     S
C146   O156    1.258   .     D
C148   C149    1.410   .     S
C148   C153    1.410   .     S
C148   O157    1.257   .     D
C150   C151    1.424   .     S
C150   O158    1.258   .     D
C152   C153    1.410   .     S
C152   O159    1.257   .     D
