data_238
_audit_creation_date              2023-09-08
_audit_creation_method            'Materials Studio'
_symmetry_space_group_name_H-M    'P1'
_symmetry_Int_Tables_number       1
_symmetry_cell_setting            triclinic
loop_
_symmetry_equiv_pos_as_xyz
  x,y,z
_cell_length_a                    3.6000
_cell_length_b                    29.2140
_cell_length_c                    29.2140
_cell_angle_alpha                 120.0000
_cell_angle_beta                  90.0000
_cell_angle_gamma                 90.0000
loop_
_atom_site_label
_atom_site_type_symbol
_atom_site_fract_x
_atom_site_fract_y
_atom_site_fract_z
_atom_site_U_iso_or_equiv
_atom_site_adp_type
_atom_site_occupancy
N1     N    -0.37840   0.47814  -0.19950   0.00000  Uiso   1.00
N2     N    -0.37839   0.63762   0.18932   0.00000  Uiso   1.00
N3     N    -0.37839   0.32091  -0.48134   0.00000  Uiso   1.00
N4     N    -0.37839   0.55013   0.35908   0.00000  Uiso   1.00
N5     N    -0.37840   0.19632  -0.32420   0.00000  Uiso   1.00
N6     N    -0.37840   0.80752   0.44623   0.00000  Uiso   1.00
H7     H    -0.37840   0.50172  -0.21975   0.00000  Uiso   1.00
H8     H    -0.37839   0.59636   0.18162   0.00000  Uiso   1.00
H9     H    -0.37839   0.27718  -0.50626   0.00000  Uiso   1.00
H10    H    -0.37839   0.59178   0.39185   0.00000  Uiso   1.00
H11    H    -0.37840   0.21652  -0.28038   0.00000  Uiso   1.00
H12    H    -0.37840   0.81499   0.41252   0.00000  Uiso   1.00
C13    C    -0.37840   0.42331  -0.23081   0.00000  Uiso   1.00
C14    C    -0.37839   0.50338  -0.14486   0.00000  Uiso   1.00
C15    C    -0.37839   0.47446  -0.11670   0.00000  Uiso   1.00
C16    C    -0.37839   0.50084  -0.06052   0.00000  Uiso   1.00
C17    C    -0.37839   0.55869  -0.02993   0.00000  Uiso   1.00
C18    C    -0.37839   0.59142  -0.05497   0.00000  Uiso   1.00
C19    C    -0.37839   0.56055  -0.11323   0.00000  Uiso   1.00
C20    C    -0.37839   0.67864   0.23975   0.00000  Uiso   1.00
C21    C    -0.37839   0.62671   0.13878   0.00000  Uiso   1.00
C22    C    -0.37839   0.66085   0.11614   0.00000  Uiso   1.00
C23    C    -0.37839   0.63988   0.05844   0.00000  Uiso   1.00
C24    C    -0.37839   0.58247   0.02656   0.00000  Uiso   1.00
C25    C    -0.37839   0.54838   0.05033   0.00000  Uiso   1.00
C26    C    -0.37839   0.57070   0.10642   0.00000  Uiso   1.00
C27    C    -0.37840   0.34450  -0.42650   0.00000  Uiso   1.00
C28    C    -0.37839   0.35021  -0.50668   0.00000  Uiso   1.00
C29    C    -0.37839   0.40729  -0.47781   0.00000  Uiso   1.00
C30    C    -0.37839   0.43704  -0.50424   0.00000  Uiso   1.00
C31    C    -0.37839   0.40973  -0.56209   0.00000  Uiso   1.00
C32    C    -0.37839   0.35197  -0.59478   0.00000  Uiso   1.00
C33    C    -0.37839   0.32461  -0.56386   0.00000  Uiso   1.00
C34    C    -0.37839   0.55971   0.31817   0.00000  Uiso   1.00
C35    C    -0.37839   0.51039   0.36983   0.00000  Uiso   1.00
C36    C    -0.37839   0.45360   0.33568   0.00000  Uiso   1.00
C37    C    -0.37839   0.41687   0.35666   0.00000  Uiso   1.00
C38    C    -0.37839   0.44240   0.41408   0.00000  Uiso   1.00
C39    C    -0.37839   0.50025   0.44815   0.00000  Uiso   1.00
C40    C    -0.37839   0.53400   0.42582   0.00000  Uiso   1.00
C41    C    -0.37840   0.22766  -0.34769   0.00000  Uiso   1.00
C42    C    -0.37840   0.14169  -0.35366   0.00000  Uiso   1.00
C43    C    -0.37840   0.11360  -0.41074   0.00000  Uiso   1.00
C44    C    -0.37840   0.05743  -0.44062   0.00000  Uiso   1.00
C45    C    -0.37840   0.02678  -0.41343   0.00000  Uiso   1.00
C46    C    -0.37840   0.05172  -0.35567   0.00000  Uiso   1.00
C47    C    -0.37840   0.10999  -0.32819   0.00000  Uiso   1.00
C48    C    -0.37840   0.75718   0.43710   0.00000  Uiso   1.00
C49    C    -0.37841   0.85812   0.48570   0.00000  Uiso   1.00
C50    C    -0.37841   0.88074   0.54245   0.00000  Uiso   1.00
C51    C    -0.37841   0.93839   0.57926   0.00000  Uiso   1.00
C52    C    -0.37841   0.97030   0.55377   0.00000  Uiso   1.00
C53    C    -0.37841   0.94661   0.49591   0.00000  Uiso   1.00
C54    C    -0.37841   0.89051   0.46208   0.00000  Uiso   1.00
H55    H    -0.37839   0.39767  -0.21154   0.00000  Uiso   1.00
H56    H    -0.37839   0.42940  -0.13953   0.00000  Uiso   1.00
H57    H    -0.37839   0.47695  -0.03938   0.00000  Uiso   1.00
H58    H    -0.37839   0.58543  -0.13333   0.00000  Uiso   1.00
H59    H    -0.37839   0.72101   0.24765   0.00000  Uiso   1.00
H60    H    -0.37839   0.70561   0.14306   0.00000  Uiso   1.00
H61    H    -0.37839   0.50356   0.02391   0.00000  Uiso   1.00
H62    H    -0.37839   0.54477   0.12536   0.00000  Uiso   1.00
H63    H    -0.37840   0.38942  -0.40091   0.00000  Uiso   1.00
H64    H    -0.37839   0.42956  -0.43275   0.00000  Uiso   1.00
H65    H    -0.37839   0.48207  -0.48039   0.00000  Uiso   1.00
H66    H    -0.37839   0.27963  -0.58870   0.00000  Uiso   1.00
H67    H    -0.37839   0.52534   0.27575   0.00000  Uiso   1.00
H68    H    -0.37839   0.43576   0.29092   0.00000  Uiso   1.00
H69    H    -0.37839   0.51867   0.49297   0.00000  Uiso   1.00
H70    H    -0.37839   0.57887   0.45177   0.00000  Uiso   1.00
H71    H    -0.37840   0.20843  -0.39259   0.00000  Uiso   1.00
H72    H    -0.37840   0.13649  -0.43291   0.00000  Uiso   1.00
H73    H    -0.37840   0.03636  -0.48565   0.00000  Uiso   1.00
H74    H    -0.37840   0.13002  -0.28322   0.00000  Uiso   1.00
H75    H    -0.37840   0.74950   0.47171   0.00000  Uiso   1.00
H76    H    -0.37841   0.85381   0.56029   0.00000  Uiso   1.00
H77    H    -0.37841   0.97307   0.47755   0.00000  Uiso   1.00
H78    H    -0.37841   0.87159   0.41721   0.00000  Uiso   1.00
C79    C    -0.37839   0.65015  -0.02315   0.00000  Uiso   1.00
C80    C    -0.37839   0.32504  -0.65352   0.00000  Uiso   1.00
C81    C    -0.37841   0.01981  -0.32884   0.00000  Uiso   1.00
C82    C    -0.37839   0.26516  -0.68668   0.00000  Uiso   1.00
C83    C    -0.37839   0.23379  -0.74517   0.00000  Uiso   1.00
C84    C    -0.37839   0.17598  -0.77929   0.00000  Uiso   1.00
C85    C    -0.37839   0.14520  -0.75220   0.00000  Uiso   1.00
C86    C    -0.37839   0.17094  -0.69432   0.00000  Uiso   1.00
C87    C    -0.37839   0.22914  -0.66491   0.00000  Uiso   1.00
H88    H    -0.37839   0.25467  -0.76932   0.00000  Uiso   1.00
H89    H    -0.37839   0.15761  -0.82410   0.00000  Uiso   1.00
H90    H    -0.37839   0.10017  -0.77616   0.00000  Uiso   1.00
H91    H    -0.37839   0.14596  -0.67432   0.00000  Uiso   1.00
H92    H    -0.37839   0.24594  -0.62030   0.00000  Uiso   1.00
C93    C    -0.37841   0.04640  -0.26898   0.00000  Uiso   1.00
C94    C    -0.37841   0.01917  -0.23773   0.00000  Uiso   1.00
C95    C    -0.37841   0.04277  -0.17993   0.00000  Uiso   1.00
C96    C    -0.37841   0.10062  -0.14902   0.00000  Uiso   1.00
C97    C    -0.37841   0.13287  -0.17466   0.00000  Uiso   1.00
C98    C    -0.37841   0.10418  -0.23286   0.00000  Uiso   1.00
H99    H    -0.37841  -0.02585  -0.25869   0.00000  Uiso   1.00
H100   H    -0.37841   0.01626  -0.16163   0.00000  Uiso   1.00
H101   H    -0.37841   0.12160  -0.10400   0.00000  Uiso   1.00
H102   H    -0.37841   0.17783  -0.14961   0.00000  Uiso   1.00
H103   H    -0.37841   0.13206  -0.24957   0.00000  Uiso   1.00
C104   C    -0.37839   0.68334  -0.04984   0.00000  Uiso   1.00
C105   C    -0.37839   0.74184  -0.02269   0.00000  Uiso   1.00
C106   C    -0.37839   0.77598  -0.04635   0.00000  Uiso   1.00
C107   C    -0.37839   0.74893  -0.10422   0.00000  Uiso   1.00
C108   C    -0.37839   0.69105  -0.13639   0.00000  Uiso   1.00
C109   C    -0.37839   0.66161  -0.10763   0.00000  Uiso   1.00
H110   H    -0.37839   0.76597   0.02233   0.00000  Uiso   1.00
H111   H    -0.37839   0.82080  -0.01989   0.00000  Uiso   1.00
H112   H    -0.37839   0.77291  -0.12527   0.00000  Uiso   1.00
H113   H    -0.37839   0.67107  -0.18136   0.00000  Uiso   1.00
H114   H    -0.37839   0.61701  -0.13546   0.00000  Uiso   1.00
N115   N    -0.37839   0.67133   0.03366   0.00000  Uiso   1.00
C116   C    -0.37839   0.77157   0.13043   0.00000  Uiso   1.00
C117   C    -0.37839   0.73027   0.06822   0.00000  Uiso   1.00
H118   H    -0.52767   0.75348   0.15203   0.00000  Uiso   1.00
H119   H    -0.52767   0.80925   0.13835   0.00000  Uiso   1.00
H120   H    -0.07984   0.78137   0.14519   0.00000  Uiso   1.00
H121   H    -0.61667   0.74397   0.05227   0.00000  Uiso   1.00
H122   H    -0.11984   0.74732   0.05973   0.00000  Uiso   1.00
I123   I    -0.87844   0.82351   0.27609   0.00000  Uiso   1.00
N124   N    -0.37839   0.36064   0.32526   0.00000  Uiso   1.00
C125   C    -0.37839   0.35711   0.22499   0.00000  Uiso   1.00
C126   C    -0.37839   0.33623   0.26632   0.00000  Uiso   1.00
H127   H    -0.52767   0.39680   0.24306   0.00000  Uiso   1.00
H128   H    -0.52767   0.32733   0.18731   0.00000  Uiso   1.00
H129   H    -0.07983   0.36206   0.21519   0.00000  Uiso   1.00
H130   H    -0.61666   0.30658   0.25263   0.00000  Uiso   1.00
H131   H    -0.11983   0.31069   0.24928   0.00000  Uiso   1.00
I132   I    -0.87839   0.45120   0.17346   0.00000  Uiso   1.00
N133   N    -0.37841   0.96301   0.63548   0.00000  Uiso   1.00
C134   C    -0.37841   0.86593   0.63839   0.00000  Uiso   1.00
C135   C    -0.37841   0.92827   0.65971   0.00000  Uiso   1.00
H136   H    -0.22913   0.85776   0.66799   0.00000  Uiso   1.00
H137   H    -0.22913   0.84455   0.59869   0.00000  Uiso   1.00
H138   H    -0.67697   0.85116   0.63334   0.00000  Uiso   1.00
H139   H    -0.61688   0.94408   0.68934   0.00000  Uiso   1.00
H140   H    -0.11985   0.93668   0.68524   0.00000  Uiso   1.00
I141   I    -0.87905   0.89800   0.78010   0.00000  Uiso   1.00
C142   C    -0.37839   0.61906   0.28038   0.00000  Uiso   1.00
C143   C    -0.37839   0.67064   0.28494   0.00000  Uiso   1.00
C144   C    -0.37840   0.38302  -0.33053   0.00000  Uiso   1.00
C145   C    -0.37840   0.37892  -0.28372   0.00000  Uiso   1.00
C146   C    -0.37840   0.65994   0.37791   0.00000  Uiso   1.00
C147   C    -0.37839   0.61293   0.32627   0.00000  Uiso   1.00
C148   C    -0.37840   0.28512  -0.38617   0.00000  Uiso   1.00
C149   C    -0.37840   0.33602  -0.38208   0.00000  Uiso   1.00
C150   C    -0.37840   0.71650   0.33693   0.00000  Uiso   1.00
C151   C    -0.37840   0.71192   0.38395   0.00000  Uiso   1.00
C152   C    -0.37840   0.32737  -0.28827   0.00000  Uiso   1.00
C153   C    -0.37840   0.28057  -0.33918   0.00000  Uiso   1.00
O154   O    -0.37839   0.57719   0.23549   0.00000  Uiso   1.00
O155   O    -0.37840   0.42883  -0.32544   0.00000  Uiso   1.00
O156   O    -0.37840   0.65706   0.41989   0.00000  Uiso   1.00
O157   O    -0.37840   0.24439  -0.43199   0.00000  Uiso   1.00
O158   O    -0.37840   0.76136   0.33988   0.00000  Uiso   1.00
O159   O    -0.37840   0.32227  -0.24755   0.00000  Uiso   1.00
loop_
_geom_bond_atom_site_label_1
_geom_bond_atom_site_label_2
_geom_bond_distance
_geom_bond_site_symmetry_2
_ccdc_geom_bond_type
N1     H7      1.110   .     S
N1     C13     1.392   .     S
N1     C14     1.384   .     S
N2     C20     1.357   .     S
N2     C21     1.346   .     S
N2     H8      1.110   .     S
N3     C27     1.392   .     S
N3     H9      1.110   .     S
N3     C28     1.384   .     S
N4     C34     1.357   .     S
N4     H10     1.110   .     S
N4     C35     1.346   .     S
N5     H11     1.110   .     S
N5     C41     1.392   .     S
N5     C42     1.384   .     S
N6     H12     1.110   .     S
N6     C48     1.357   .     S
N6     C49     1.345   .     S
C13    H55     1.140   .     S
C13    C145    1.438   .     D
C14    C15     1.444   .     S
C14    C19     1.449   .     D
C15    C16     1.422   .     D
C15    H56     1.140   .     S
C16    C17     1.464   .     S
C16    H57     1.140   .     S
C17    C18     1.466   .     D
C17    C24     1.435   .     S
C18    C19     1.475   .     S
C18    C79     1.488   .     S
C19    H58     1.140   .     S
C20    H59     1.140   .     S
C20    C143    1.451   .     D
C21    C22     1.446   .     D
C21    C26     1.423   .     S
C22    C23     1.478   .     S
C22    H60     1.140   .     S
C23    C24     1.455   .     D
C23    N115    1.426   .     S
C24    C25     1.472   .     S
C25    C26     1.429   .     D
C25    H61     1.140   .     S
C26    H62     1.140   .     S
C27    H63     1.140   .     S
C27    C149    1.438   .     D
C28    C33     1.449   .     D
C28    C29     1.444   .     S
C29    H64     1.140   .     S
C29    C30     1.422   .     D
C30    C31     1.464   .     S
C30    H65     1.140   .     S
C31    C32     1.466   .     D
C31    C38     1.435   1_554 S
C32    C33     1.475   .     S
C32    C80     1.488   .     S
C33    H66     1.140   .     S
C34    H67     1.140   .     S
C34    C147    1.451   .     D
C35    C40     1.422   .     D
C35    C36     1.447   .     S
C36    C37     1.478   .     D
C36    H68     1.140   .     S
C37    N124    1.426   .     S
C37    C38     1.456   .     S
C38    C39     1.471   .     D
C38    C31     1.435   1_556 S
C39    C40     1.429   .     S
C39    H69     1.140   .     S
C40    H70     1.140   .     S
C41    C153    1.438   .     D
C41    H71     1.140   .     S
C42    C47     1.449   .     D
C42    C43     1.444   .     S
C43    H72     1.140   .     S
C43    C44     1.422   .     D
C44    C45     1.464   .     S
C44    H73     1.140   .     S
C45    C46     1.466   .     D
C45    C52     1.435   1_544 S
C46    C47     1.475   .     S
C46    C81     1.488   .     S
C47    H74     1.140   .     S
C48    H75     1.140   .     S
C48    C151    1.451   .     D
C49    C50     1.446   .     D
C49    C54     1.423   .     S
C50    H76     1.140   .     S
C50    C51     1.477   .     S
C51    C52     1.455   .     D
C51    N133    1.426   .     S
C52    C53     1.472   .     S
C52    C45     1.435   1_566 S
C53    H77     1.140   .     S
C53    C54     1.429   .     D
C54    H78     1.140   .     S
C79    C104    1.518   .     S
C79    N115    1.453   .     D
C80    C82     1.518   .     S
C80    N124    1.453   1_554 D
C81    C93     1.518   .     S
C81    N133    1.453   1_544 D
C82    C87     1.477   .     D
C82    C83     1.481   .     S
C83    C84     1.471   .     D
C83    H88     1.140   .     S
C84    H89     1.140   .     S
C84    C85     1.465   .     S
C85    H90     1.140   .     S
C85    C86     1.467   .     D
C86    H91     1.140   .     S
C86    C87     1.472   .     S
C87    H92     1.140   .     S
C93    C98     1.477   .     D
C93    C94     1.481   .     S
C94    C95     1.471   .     D
C94    H99     1.140   .     S
C95    C96     1.465   .     S
C95    H100    1.140   .     S
C96    C97     1.468   .     D
C96    H101    1.140   .     S
C97    C98     1.473   .     S
C97    H102    1.140   .     S
C98    H103    1.140   .     S
C104   C109    1.477   .     D
C104   C105    1.481   .     S
C105   C106    1.470   .     D
C105   H110    1.140   .     S
C106   C107    1.465   .     S
C106   H111    1.140   .     S
C107   C108    1.467   .     D
C107   H112    1.140   .     S
C108   H113    1.140   .     S
C108   C109    1.472   .     S
C109   H114    1.140   .     S
N115   C117    1.499   .     S
C116   H118    1.140   .     S
C116   H120    1.140   .     S
C116   H119    1.140   .     S
C116   C117    1.602   .     S
C117   H121    1.140   .     S
C117   H122    1.140   .     S
N124   C126    1.498   .     S
N124   C80     1.453   1_556 D
C125   H128    1.140   .     S
C125   H129    1.140   .     S
C125   H127    1.140   .     S
C125   C126    1.602   .     S
C126   H130    1.140   .     S
C126   H131    1.140   .     S
N133   C135    1.500   .     S
N133   C81     1.453   1_566 D
C134   C135    1.603   .     S
C134   H136    1.140   .     S
C134   H138    1.140   .     S
C134   H137    1.140   .     S
C135   H139    1.140   .     S
C135   H140    1.140   .     S
C142   C147    1.439   .     S
C142   C143    1.445   .     S
C142   O154    1.270   .     D
C143   C150    1.438   .     S
C144   O155    1.270   .     D
C144   C145    1.431   .     S
C144   C149    1.444   .     S
C145   C152    1.444   .     S
C146   C151    1.438   .     S
C146   O156    1.271   .     D
C146   C147    1.446   .     S
C148   O157    1.271   .     D
C148   C149    1.431   .     S
C148   C153    1.444   .     S
C150   O158    1.270   .     D
C150   C151    1.445   .     S
C152   C153    1.431   .     S
C152   O159    1.271   .     D
