data_239
_audit_creation_date              2023-09-08
_audit_creation_method            'Materials Studio'
_symmetry_space_group_name_H-M    'P1'
_symmetry_Int_Tables_number       1
_symmetry_cell_setting            triclinic
loop_
_symmetry_equiv_pos_as_xyz
  x,y,z
_cell_length_a                    34.2890
_cell_length_b                    34.2890
_cell_length_c                    3.9653
_cell_angle_alpha                 90.0000
_cell_angle_beta                  90.0000
_cell_angle_gamma                 120.0000
loop_
_atom_site_label
_atom_site_type_symbol
_atom_site_fract_x
_atom_site_fract_y
_atom_site_fract_z
_atom_site_U_iso_or_equiv
_atom_site_adp_type
_atom_site_occupancy
C1     C     0.68500   0.38017   0.00000   0.00000  Uiso   1.00
C2     C     0.61983   0.30483   0.00000   0.00000  Uiso   1.00
C3     C     0.69517   0.31500   0.00000   0.00000  Uiso   1.00
C4     C     0.31500   0.61983   0.00000   0.00000  Uiso   1.00
C5     C     0.38017   0.69517   0.00000   0.00000  Uiso   1.00
C6     C     0.30483   0.68500   0.00000   0.00000  Uiso   1.00
C7     C     0.63735   0.35215   0.00000   0.00000  Uiso   1.00
C8     C     0.64785   0.28520   0.00000   0.00000  Uiso   1.00
C9     C     0.71480   0.36265   0.00000   0.00000  Uiso   1.00
C10    C     0.36265   0.64785   0.00000   0.00000  Uiso   1.00
C11    C     0.35215   0.71480   0.00000   0.00000  Uiso   1.00
C12    C     0.28520   0.63735   0.00000   0.00000  Uiso   1.00
C13    C     0.60689   0.36904   0.00000   0.00000  Uiso   1.00
C14    C     0.63096   0.23785   0.00000   0.00000  Uiso   1.00
C15    C     0.76215   0.39311   0.00000   0.00000  Uiso   1.00
C16    C     0.39311   0.63096   0.00000   0.00000  Uiso   1.00
C17    C     0.36904   0.76215   0.00000   0.00000  Uiso   1.00
C18    C     0.23785   0.60689   0.00000   0.00000  Uiso   1.00
N19    N     0.61980   0.41344   0.00000   0.00000  Uiso   1.00
N20    N     0.58656   0.20636   0.00000   0.00000  Uiso   1.00
N21    N     0.79364   0.38020   0.00000   0.00000  Uiso   1.00
N22    N     0.38020   0.58656   0.00000   0.00000  Uiso   1.00
N23    N     0.41344   0.79364   0.00000   0.00000  Uiso   1.00
N24    N     0.20636   0.61980   0.00000   0.00000  Uiso   1.00
C25    C     0.59459   0.43381   0.00000   0.00000  Uiso   1.00
C26    C     0.56619   0.16078   0.00000   0.00000  Uiso   1.00
C27    C     0.83922   0.40541   0.00000   0.00000  Uiso   1.00
C28    C     0.40541   0.56619   0.00000   0.00000  Uiso   1.00
C29    C     0.43381   0.83922   0.00000   0.00000  Uiso   1.00
C30    C     0.16078   0.59459   0.00000   0.00000  Uiso   1.00
C31    C     0.54702   0.41145   0.00000   0.00000  Uiso   1.00
C32    C     0.58855   0.13557   0.00000   0.00000  Uiso   1.00
C33    C     0.86443   0.45298   0.00000   0.00000  Uiso   1.00
C34    C     0.45298   0.58855   0.00000   0.00000  Uiso   1.00
C35    C     0.41145   0.86443   0.00000   0.00000  Uiso   1.00
C36    C     0.13557   0.54702   0.00000   0.00000  Uiso   1.00
C37    C     0.52624   0.51200   0.00000   0.00000  Uiso   1.00
C38    C     0.48800   0.01424   0.00000   0.00000  Uiso   1.00
C39    C     0.98576   0.47376   0.00000   0.00000  Uiso   1.00
C40    C     0.47376   0.48800   0.00000   0.00000  Uiso   1.00
C41    C     0.51200   0.98576   0.00000   0.00000  Uiso   1.00
C42    C     0.01424   0.52624   0.00000   0.00000  Uiso   1.00
C43    C     0.54800   0.48363   0.00000   0.00000  Uiso   1.00
C44    C     0.51637   0.06437   0.00000   0.00000  Uiso   1.00
C45    C     0.93563   0.45200   0.00000   0.00000  Uiso   1.00
C46    C     0.45200   0.51637   0.00000   0.00000  Uiso   1.00
C47    C     0.48363   0.93563   0.00000   0.00000  Uiso   1.00
C48    C     0.06437   0.54800   0.00000   0.00000  Uiso   1.00
C49    C     0.59558   0.50578   0.00000   0.00000  Uiso   1.00
C50    C     0.49422   0.08980   0.00000   0.00000  Uiso   1.00
C51    C     0.91020   0.40442   0.00000   0.00000  Uiso   1.00
C52    C     0.40442   0.49422   0.00000   0.00000  Uiso   1.00
C53    C     0.50578   0.91020   0.00000   0.00000  Uiso   1.00
C54    C     0.08980   0.59558   0.00000   0.00000  Uiso   1.00
C55    C     0.52413   0.43597   0.00000   0.00000  Uiso   1.00
C56    C     0.56403   0.08816   0.00000   0.00000  Uiso   1.00
C57    C     0.91185   0.47587   0.00000   0.00000  Uiso   1.00
C58    C     0.47588   0.56403   0.00000   0.00000  Uiso   1.00
C59    C     0.43597   0.91184   0.00000   0.00000  Uiso   1.00
C60    C     0.08815   0.52413   0.00000   0.00000  Uiso   1.00
C61    C     0.61845   0.48126   0.00000   0.00000  Uiso   1.00
C62    C     0.51874   0.13719   0.00000   0.00000  Uiso   1.00
C63    C     0.86281   0.38155   0.00000   0.00000  Uiso   1.00
C64    C     0.38155   0.51874   0.00000   0.00000  Uiso   1.00
C65    C     0.48126   0.86281   0.00000   0.00000  Uiso   1.00
C66    C     0.13719   0.61845   0.00000   0.00000  Uiso   1.00
H67    H     0.61410   0.54021   0.00000   0.00000  Uiso   1.00
H68    H     0.45979   0.07389   0.00000   0.00000  Uiso   1.00
H69    H     0.92611   0.38590   0.00000   0.00000  Uiso   1.00
H70    H     0.38590   0.45979   0.00000   0.00000  Uiso   1.00
H71    H     0.54021   0.92611   0.00000   0.00000  Uiso   1.00
H72    H     0.07389   0.61410   0.00000   0.00000  Uiso   1.00
O73    O     0.70223   0.42227   0.00000   0.00000  Uiso   1.00
O74    O     0.57773   0.27996   0.00000   0.00000  Uiso   1.00
O75    O     0.72004   0.29777   0.00000   0.00000  Uiso   1.00
O76    O     0.29777   0.57773   0.00000   0.00000  Uiso   1.00
O77    O     0.42227   0.72004   0.00000   0.00000  Uiso   1.00
O78    O     0.27996   0.70223   0.00000   0.00000  Uiso   1.00
H79    H     0.42689   0.65380   0.00000   0.00000  Uiso   1.00
H80    H     0.34620   0.77309   0.00000   0.00000  Uiso   1.00
H81    H     0.22691   0.57311   0.00000   0.00000  Uiso   1.00
H82    H     0.57311   0.34620   0.00000   0.00000  Uiso   1.00
H83    H     0.65380   0.22691   0.00000   0.00000  Uiso   1.00
H84    H     0.77309   0.42689   0.00000   0.00000  Uiso   1.00
H85    H     0.47153   0.62282   0.00000   0.00000  Uiso   1.00
H86    H     0.37718   0.84871   0.00000   0.00000  Uiso   1.00
H87    H     0.15129   0.52847   0.00000   0.00000  Uiso   1.00
H88    H     0.52847   0.37718   0.00000   0.00000  Uiso   1.00
H89    H     0.62282   0.15129   0.00000   0.00000  Uiso   1.00
H90    H     0.84871   0.47153   0.00000   0.00000  Uiso   1.00
H91    H     0.51022   0.58164   0.00000   0.00000  Uiso   1.00
H92    H     0.41836   0.92858   0.00000   0.00000  Uiso   1.00
H93    H     0.07142   0.48978   0.00000   0.00000  Uiso   1.00
H94    H     0.48978   0.41836   0.00000   0.00000  Uiso   1.00
H95    H     0.58164   0.07142   0.00000   0.00000  Uiso   1.00
H96    H     0.92858   0.51022   0.00000   0.00000  Uiso   1.00
H97    H     0.34709   0.50162   0.00000   0.00000  Uiso   1.00
H98    H     0.49838   0.84546   0.00000   0.00000  Uiso   1.00
H99    H     0.15453   0.65291   0.00000   0.00000  Uiso   1.00
H100   H     0.65292   0.49838   0.00000   0.00000  Uiso   1.00
H101   H     0.50162   0.15454   0.00000   0.00000  Uiso   1.00
H102   H     0.84547   0.34709   0.00000   0.00000  Uiso   1.00
H103   H     0.65219   0.43334   0.00000   0.00000  Uiso   1.00
H104   H     0.56666   0.21884   0.00000   0.00000  Uiso   1.00
H105   H     0.78116   0.34781   0.00000   0.00000  Uiso   1.00
H106   H     0.34781   0.56666   0.00000   0.00000  Uiso   1.00
H107   H     0.43334   0.78116   0.00000   0.00000  Uiso   1.00
H108   H     0.21884   0.65219   0.00000   0.00000  Uiso   1.00
H109   H     0.46138   0.46615   0.21969   0.00000  Uiso   1.00
H110   H     0.53385   0.99523   0.21969   0.00000  Uiso   1.00
H111   H     0.00477   0.53862   0.21969   0.00000  Uiso   1.00
H112   H     0.53862   0.53385   0.21969   0.00000  Uiso   1.00
H113   H     0.46615   0.00477   0.21969   0.00000  Uiso   1.00
H114   H     0.99523   0.46138   0.21969   0.00000  Uiso   1.00
H115   H     0.53862   0.53385  -0.21969   0.00000  Uiso   1.00
H116   H     0.46615   0.00477  -0.21969   0.00000  Uiso   1.00
H117   H     0.99523   0.46138  -0.21969   0.00000  Uiso   1.00
H118   H     0.46138   0.46615  -0.21969   0.00000  Uiso   1.00
H119   H     0.53385   0.99523  -0.21969   0.00000  Uiso   1.00
H120   H     0.00477   0.53862  -0.21969   0.00000  Uiso   1.00
loop_
_geom_bond_atom_site_label_1
_geom_bond_atom_site_label_2
_geom_bond_distance
_geom_bond_site_symmetry_2
_ccdc_geom_bond_type
C1     C7      1.422   .     S
C1     C9      1.421   .     S
C1     O73     1.257   .     D
C2     C7      1.421   .     S
C2     C8      1.422   .     S
C2     O74     1.257   .     D
C3     C8      1.421   .     S
C3     C9      1.422   .     S
C3     O75     1.257   .     D
C4     C10     1.422   .     S
C4     C12     1.421   .     S
C4     O76     1.257   .     D
C5     C10     1.421   .     S
C5     C11     1.422   .     S
C5     O77     1.257   .     D
C6     C11     1.421   .     S
C6     C12     1.422   .     S
C6     O78     1.257   .     D
C7     C13     1.425   .     D
C8     C14     1.425   .     D
C9     C15     1.425   .     D
C10    C16     1.425   .     D
C11    C17     1.425   .     D
C12    C18     1.425   .     D
C13    N19     1.357   .     S
C13    H82     1.024   .     S
C14    N20     1.357   .     S
C14    H83     1.024   .     S
C15    N21     1.357   .     S
C15    H84     1.024   .     S
C16    N22     1.357   .     S
C16    H79     1.024   .     S
C17    N23     1.357   .     S
C17    H80     1.024   .     S
C18    N24     1.357   .     S
C18    H81     1.024   .     S
N19    C25     1.356   .     S
N19    H103    0.970   .     S
N20    C26     1.356   .     S
N20    H104    0.970   .     S
N21    C27     1.356   .     S
N21    H105    0.970   .     S
N22    C28     1.356   .     S
N22    H106    0.970   .     S
N23    C29     1.356   .     S
N23    H107    0.970   .     S
N24    C30     1.356   .     S
N24    H108    0.970   .     S
C25    C31     1.413   .     D
C25    C61     1.409   .     S
C26    C32     1.413   .     D
C26    C62     1.409   .     S
C27    C33     1.413   .     D
C27    C63     1.409   .     S
C28    C34     1.413   .     D
C28    C64     1.409   .     S
C29    C35     1.413   .     D
C29    C65     1.409   .     S
C30    C36     1.413   .     D
C30    C66     1.409   .     S
C31    C55     1.408   .     S
C31    H88     1.019   .     S
C32    C56     1.408   .     S
C32    H89     1.019   .     S
C33    C57     1.408   .     S
C33    H90     1.019   .     S
C34    C58     1.408   .     S
C34    H85     1.019   .     S
C35    C59     1.408   .     S
C35    H86     1.019   .     S
C36    C60     1.408   .     S
C36    H87     1.019   .     S
C37    C40     1.560   .     S
C37    C43     1.493   .     S
C37    H112    1.087   .     S
C37    H115    1.087   .     S
C38    C41     1.560   1_545 S
C38    C44     1.493   .     S
C38    H113    1.087   .     S
C38    H116    1.087   .     S
C39    C42     1.560   1_655 S
C39    C45     1.493   .     S
C39    H114    1.087   .     S
C39    H117    1.087   .     S
C40    C46     1.493   .     S
C40    H109    1.087   .     S
C40    H118    1.087   .     S
C41    C38     1.560   1_565 S
C41    C47     1.493   .     S
C41    H110    1.087   .     S
C41    H119    1.087   .     S
C42    C39     1.560   1_455 S
C42    C48     1.493   .     S
C42    H111    1.087   .     S
C42    H120    1.087   .     S
C43    C49     1.414   .     S
C43    C55     1.415   .     D
C44    C50     1.414   .     S
C44    C56     1.415   .     D
C45    C51     1.414   .     S
C45    C57     1.415   .     D
C46    C52     1.414   .     S
C46    C58     1.415   .     D
C47    C53     1.414   .     S
C47    C59     1.415   .     D
C48    C54     1.414   .     S
C48    C60     1.415   .     D
C49    C61     1.408   .     D
C49    H67     1.023   .     S
C50    C62     1.408   .     D
C50    H68     1.023   .     S
C51    C63     1.408   .     D
C51    H69     1.023   .     S
C52    C64     1.408   .     D
C52    H70     1.023   .     S
C53    C65     1.408   .     D
C53    H71     1.023   .     S
C54    C66     1.408   .     D
C54    H72     1.023   .     S
C55    H94     1.020   .     S
C56    H95     1.020   .     S
C57    H96     1.020   .     S
C58    H91     1.020   .     S
C59    H92     1.020   .     S
C60    H93     1.020   .     S
C61    H100    1.023   .     S
C62    H101    1.023   .     S
C63    H102    1.023   .     S
C64    H97     1.023   .     S
C65    H98     1.023   .     S
C66    H99     1.023   .     S
