data_24
_audit_creation_date              2023-09-08
_audit_creation_method            'Materials Studio'
_symmetry_space_group_name_H-M    'P1'
_symmetry_Int_Tables_number       1
_symmetry_cell_setting            triclinic
loop_
_symmetry_equiv_pos_as_xyz
  x,y,z
_cell_length_a                    38.9279
_cell_length_b                    38.9279
_cell_length_c                    15.0000
_cell_angle_alpha                 90.0000
_cell_angle_beta                  90.0000
_cell_angle_gamma                 120.0000
loop_
_atom_site_label
_atom_site_type_symbol
_atom_site_fract_x
_atom_site_fract_y
_atom_site_fract_z
_atom_site_U_iso_or_equiv
_atom_site_adp_type
_atom_site_occupancy
C1     C     0.46622   0.04268   0.10362   0.00000  Uiso   1.00
C2     C     0.45082   0.06885   0.09843   0.00000  Uiso   1.00
C3     C     0.44549   0.38246   0.25618   0.00000  Uiso   1.00
C4     C     0.46227   0.42408   0.24754   0.00000  Uiso   1.00
C5     C     0.49026   0.51074   0.17447   0.00000  Uiso   1.00
C6     C     0.50054   0.92606   0.23781   0.00000  Uiso   1.00
C7     C     0.51605   0.90000   0.23297   0.00000  Uiso   1.00
C8     C     0.52098   0.61898   0.12485   0.00000  Uiso   1.00
C9     C     0.50427   0.57734   0.11633   0.00000  Uiso   1.00
C10    C     0.49085   0.04520   0.17296   0.00000  Uiso   1.00
N1     N     0.44685   0.12703   0.15160   0.00000  Uiso   1.00
C11    C     0.43640   0.14382   0.21790   0.00000  Uiso   1.00
C12    C     0.43245   0.17977   0.20277   0.00000  Uiso   1.00
C13    C     0.44863   0.21136   0.26283   0.00000  Uiso   1.00
C14    C     0.44824   0.24700   0.24652   0.00000  Uiso   1.00
C15    C     0.43073   0.25149   0.17045   0.00000  Uiso   1.00
C16    C     0.41344   0.21921   0.11160   0.00000  Uiso   1.00
C17    C     0.41440   0.18378   0.12742   0.00000  Uiso   1.00
C18    C     0.43288   0.29038   0.14896   0.00000  Uiso   1.00
N2     N     0.44017   0.31859   0.21166   0.00000  Uiso   1.00
C19    C     0.45373   0.36046   0.19521   0.00000  Uiso   1.00
C20    C     0.48774   0.44456   0.17801   0.00000  Uiso   1.00
C21    C     0.45941   0.09767   0.16306   0.00000  Uiso   1.00
O1     O     0.30133   0.43110   0.29050   0.00000  Uiso   1.00
O2     O     0.57221   0.70300   0.07437   0.00000  Uiso   1.00
H1     H     0.46009   0.02135   0.05238   0.00000  Uiso   1.00
H2     H     0.43275   0.06718   0.04315   0.00000  Uiso   1.00
H3     H     0.42691   0.36745   0.31188   0.00000  Uiso   1.00
H4     H     0.45669   0.44060   0.29669   0.00000  Uiso   1.00
H5     H     0.48107   0.92325   0.29125   0.00000  Uiso   1.00
H6     H     0.50739   0.87700   0.28194   0.00000  Uiso   1.00
H7     H     0.51249   0.63454   0.07860   0.00000  Uiso   1.00
H8     H     0.48411   0.56197   0.06291   0.00000  Uiso   1.00
H9     H     0.44804   0.13750   0.08889   0.00000  Uiso   1.00
H10    H     0.46310   0.20909   0.32096   0.00000  Uiso   1.00
H11    H     0.46305   0.27134   0.29245   0.00000  Uiso   1.00
H12    H     0.39964   0.22155   0.05251   0.00000  Uiso   1.00
H13    H     0.40112   0.15960   0.08058   0.00000  Uiso   1.00
H14    H     0.43559   0.30953   0.27606   0.00000  Uiso   1.00
C22    C     0.95732   0.42354   0.10362   0.00000  Uiso   1.00
C23    C     0.93115   0.38197   0.09843   0.00000  Uiso   1.00
C24    C     0.61754   0.06303   0.25618   0.00000  Uiso   1.00
C25    C     0.57592   0.03819   0.24754   0.00000  Uiso   1.00
C26    C     0.95480   0.44565   0.17296   0.00000  Uiso   1.00
N3     N     0.87297   0.31982   0.15160   0.00000  Uiso   1.00
C27    C     0.85618   0.29258   0.21790   0.00000  Uiso   1.00
C28    C     0.82023   0.25268   0.20277   0.00000  Uiso   1.00
C29    C     0.78864   0.23727   0.26283   0.00000  Uiso   1.00
C30    C     0.75300   0.20124   0.24652   0.00000  Uiso   1.00
C31    C     0.74851   0.17924   0.17045   0.00000  Uiso   1.00
C32    C     0.78079   0.19423   0.11160   0.00000  Uiso   1.00
C33    C     0.81622   0.23062   0.12742   0.00000  Uiso   1.00
C34    C     0.70962   0.14250   0.14896   0.00000  Uiso   1.00
N4     N     0.68141   0.12158   0.21166   0.00000  Uiso   1.00
C35    C     0.63954   0.09327   0.19521   0.00000  Uiso   1.00
C36    C     0.55544   0.04318   0.17801   0.00000  Uiso   1.00
C37    C     0.90233   0.36174   0.16306   0.00000  Uiso   1.00
H15    H     0.97865   0.43874   0.05238   0.00000  Uiso   1.00
H16    H     0.93282   0.36557   0.04315   0.00000  Uiso   1.00
H17    H     0.63255   0.05946   0.31188   0.00000  Uiso   1.00
H18    H     0.55940   0.01609   0.29669   0.00000  Uiso   1.00
H19    H     0.86250   0.31054   0.08889   0.00000  Uiso   1.00
H20    H     0.79091   0.25401   0.32096   0.00000  Uiso   1.00
H21    H     0.72866   0.19171   0.29245   0.00000  Uiso   1.00
H22    H     0.77845   0.17809   0.05251   0.00000  Uiso   1.00
H23    H     0.84040   0.24152   0.08058   0.00000  Uiso   1.00
H24    H     0.69047   0.12606   0.27606   0.00000  Uiso   1.00
C38    C     0.57646   0.53378   0.10362   0.00000  Uiso   1.00
C39    C     0.61803   0.54918   0.09843   0.00000  Uiso   1.00
C40    C     0.93697   0.55451   0.25618   0.00000  Uiso   1.00
C41    C     0.96181   0.53773   0.24754   0.00000  Uiso   1.00
C42    C     0.55435   0.50915   0.17296   0.00000  Uiso   1.00
N5     N     0.68018   0.55315   0.15160   0.00000  Uiso   1.00
C43    C     0.70742   0.56360   0.21790   0.00000  Uiso   1.00
C44    C     0.74732   0.56755   0.20277   0.00000  Uiso   1.00
C45    C     0.76273   0.55137   0.26283   0.00000  Uiso   1.00
C46    C     0.79876   0.55176   0.24652   0.00000  Uiso   1.00
C47    C     0.82076   0.56927   0.17045   0.00000  Uiso   1.00
C48    C     0.80577   0.58656   0.11160   0.00000  Uiso   1.00
C49    C     0.76938   0.58560   0.12742   0.00000  Uiso   1.00
C50    C     0.85750   0.56712   0.14896   0.00000  Uiso   1.00
N6     N     0.87842   0.55983   0.21166   0.00000  Uiso   1.00
C51    C     0.90673   0.54627   0.19521   0.00000  Uiso   1.00
C52    C     0.95682   0.51226   0.17801   0.00000  Uiso   1.00
C53    C     0.63826   0.54059   0.16306   0.00000  Uiso   1.00
H25    H     0.56126   0.53991   0.05238   0.00000  Uiso   1.00
H26    H     0.63443   0.56725   0.04315   0.00000  Uiso   1.00
H27    H     0.94054   0.57309   0.31188   0.00000  Uiso   1.00
H28    H     0.98391   0.54331   0.29669   0.00000  Uiso   1.00
H29    H     0.68946   0.55196   0.08889   0.00000  Uiso   1.00
H30    H     0.74599   0.53690   0.32096   0.00000  Uiso   1.00
H31    H     0.80829   0.53695   0.29245   0.00000  Uiso   1.00
H32    H     0.82191   0.60036   0.05251   0.00000  Uiso   1.00
H33    H     0.75848   0.59888   0.08058   0.00000  Uiso   1.00
H34    H     0.87394   0.56441   0.27606   0.00000  Uiso   1.00
C54    C     0.53378   0.95732   0.10362   0.00000  Uiso   1.00
C55    C     0.54918   0.93115   0.09843   0.00000  Uiso   1.00
C56    C     0.55451   0.61754   0.25618   0.00000  Uiso   1.00
C57    C     0.53773   0.57592   0.24754   0.00000  Uiso   1.00
C58    C     0.50974   0.48926   0.17447   0.00000  Uiso   1.00
C59    C     0.49946   0.07394   0.23781   0.00000  Uiso   1.00
C60    C     0.48395   0.10000   0.23297   0.00000  Uiso   1.00
C61    C     0.47902   0.38102   0.12485   0.00000  Uiso   1.00
C62    C     0.49573   0.42266   0.11633   0.00000  Uiso   1.00
C63    C     0.50915   0.95480   0.17296   0.00000  Uiso   1.00
N7     N     0.55315   0.87297   0.15160   0.00000  Uiso   1.00
C64    C     0.56360   0.85618   0.21790   0.00000  Uiso   1.00
C65    C     0.56755   0.82023   0.20277   0.00000  Uiso   1.00
C66    C     0.55137   0.78864   0.26283   0.00000  Uiso   1.00
C67    C     0.55176   0.75300   0.24652   0.00000  Uiso   1.00
C68    C     0.56927   0.74851   0.17045   0.00000  Uiso   1.00
C69    C     0.58656   0.78079   0.11160   0.00000  Uiso   1.00
C70    C     0.58560   0.81622   0.12742   0.00000  Uiso   1.00
C71    C     0.56712   0.70962   0.14896   0.00000  Uiso   1.00
N8     N     0.55983   0.68141   0.21166   0.00000  Uiso   1.00
C72    C     0.54627   0.63954   0.19521   0.00000  Uiso   1.00
C73    C     0.51226   0.55544   0.17801   0.00000  Uiso   1.00
C74    C     0.54059   0.90233   0.16306   0.00000  Uiso   1.00
O3     O     0.69867   0.56890   0.29050   0.00000  Uiso   1.00
O4     O     0.42779   0.29700   0.07437   0.00000  Uiso   1.00
H35    H     0.53991   0.97865   0.05238   0.00000  Uiso   1.00
H36    H     0.56725   0.93282   0.04315   0.00000  Uiso   1.00
H37    H     0.57309   0.63255   0.31188   0.00000  Uiso   1.00
H38    H     0.54331   0.55940   0.29669   0.00000  Uiso   1.00
H39    H     0.51893   0.07675   0.29125   0.00000  Uiso   1.00
H40    H     0.49261   0.12300   0.28194   0.00000  Uiso   1.00
H41    H     0.48751   0.36546   0.07860   0.00000  Uiso   1.00
H42    H     0.51589   0.43803   0.06291   0.00000  Uiso   1.00
H43    H     0.55196   0.86250   0.08889   0.00000  Uiso   1.00
H44    H     0.53690   0.79091   0.32096   0.00000  Uiso   1.00
H45    H     0.53695   0.72866   0.29245   0.00000  Uiso   1.00
H46    H     0.60036   0.77845   0.05251   0.00000  Uiso   1.00
H47    H     0.59888   0.84040   0.08058   0.00000  Uiso   1.00
H48    H     0.56441   0.69047   0.27606   0.00000  Uiso   1.00
C75    C     0.04268   0.57646   0.10362   0.00000  Uiso   1.00
C76    C     0.06885   0.61803   0.09843   0.00000  Uiso   1.00
C77    C     0.38246   0.93697   0.25618   0.00000  Uiso   1.00
C78    C     0.42408   0.96181   0.24754   0.00000  Uiso   1.00
C79    C     0.04520   0.55435   0.17296   0.00000  Uiso   1.00
N9     N     0.12703   0.68018   0.15160   0.00000  Uiso   1.00
C80    C     0.14382   0.70742   0.21790   0.00000  Uiso   1.00
C81    C     0.17977   0.74732   0.20277   0.00000  Uiso   1.00
C82    C     0.21136   0.76273   0.26283   0.00000  Uiso   1.00
C83    C     0.24700   0.79876   0.24652   0.00000  Uiso   1.00
C84    C     0.25149   0.82076   0.17045   0.00000  Uiso   1.00
C85    C     0.21921   0.80577   0.11160   0.00000  Uiso   1.00
C86    C     0.18378   0.76938   0.12742   0.00000  Uiso   1.00
C87    C     0.29038   0.85750   0.14896   0.00000  Uiso   1.00
N10    N     0.31859   0.87842   0.21166   0.00000  Uiso   1.00
C88    C     0.36046   0.90673   0.19521   0.00000  Uiso   1.00
C89    C     0.44456   0.95682   0.17801   0.00000  Uiso   1.00
C90    C     0.09767   0.63826   0.16306   0.00000  Uiso   1.00
H49    H     0.02135   0.56126   0.05238   0.00000  Uiso   1.00
H50    H     0.06718   0.63443   0.04315   0.00000  Uiso   1.00
H51    H     0.36745   0.94054   0.31188   0.00000  Uiso   1.00
H52    H     0.44060   0.98391   0.29669   0.00000  Uiso   1.00
H53    H     0.13750   0.68946   0.08889   0.00000  Uiso   1.00
H54    H     0.20909   0.74599   0.32096   0.00000  Uiso   1.00
H55    H     0.27134   0.80829   0.29245   0.00000  Uiso   1.00
H56    H     0.22155   0.82191   0.05251   0.00000  Uiso   1.00
H57    H     0.15960   0.75848   0.08058   0.00000  Uiso   1.00
H58    H     0.30953   0.87394   0.27606   0.00000  Uiso   1.00
C91    C     0.42354   0.46622   0.10362   0.00000  Uiso   1.00
C92    C     0.38197   0.45082   0.09843   0.00000  Uiso   1.00
C93    C     0.06303   0.44549   0.25618   0.00000  Uiso   1.00
C94    C     0.03819   0.46227   0.24754   0.00000  Uiso   1.00
C95    C     0.44565   0.49085   0.17296   0.00000  Uiso   1.00
N11    N     0.31982   0.44685   0.15160   0.00000  Uiso   1.00
C96    C     0.29258   0.43640   0.21790   0.00000  Uiso   1.00
C97    C     0.25268   0.43245   0.20277   0.00000  Uiso   1.00
C98    C     0.23727   0.44863   0.26283   0.00000  Uiso   1.00
C99    C     0.20124   0.44824   0.24652   0.00000  Uiso   1.00
C100   C     0.17924   0.43073   0.17045   0.00000  Uiso   1.00
C101   C     0.19423   0.41344   0.11160   0.00000  Uiso   1.00
C102   C     0.23062   0.41440   0.12742   0.00000  Uiso   1.00
C103   C     0.14250   0.43288   0.14896   0.00000  Uiso   1.00
N12    N     0.12158   0.44017   0.21166   0.00000  Uiso   1.00
C104   C     0.09327   0.45373   0.19521   0.00000  Uiso   1.00
C105   C     0.04318   0.48774   0.17801   0.00000  Uiso   1.00
C106   C     0.36174   0.45941   0.16306   0.00000  Uiso   1.00
H59    H     0.43874   0.46009   0.05238   0.00000  Uiso   1.00
H60    H     0.36557   0.43275   0.04315   0.00000  Uiso   1.00
H61    H     0.05946   0.42691   0.31188   0.00000  Uiso   1.00
H62    H     0.01609   0.45669   0.29669   0.00000  Uiso   1.00
H63    H     0.31054   0.44804   0.08889   0.00000  Uiso   1.00
H64    H     0.25401   0.46310   0.32096   0.00000  Uiso   1.00
H65    H     0.19171   0.46305   0.29245   0.00000  Uiso   1.00
H66    H     0.17809   0.39964   0.05251   0.00000  Uiso   1.00
H67    H     0.24152   0.40112   0.08058   0.00000  Uiso   1.00
H68    H     0.12606   0.43559   0.27606   0.00000  Uiso   1.00
C107   C     0.48926   0.97952   0.17447   0.00000  Uiso   1.00
C108   C     0.07394   0.57448   0.23781   0.00000  Uiso   1.00
C109   C     0.10000   0.61605   0.23297   0.00000  Uiso   1.00
C110   C     0.38102   0.90200   0.12485   0.00000  Uiso   1.00
C111   C     0.42266   0.92693   0.11633   0.00000  Uiso   1.00
O5     O     0.56890   0.87023   0.29050   0.00000  Uiso   1.00
O6     O     0.29700   0.86921   0.07437   0.00000  Uiso   1.00
H69    H     0.07675   0.55782   0.29125   0.00000  Uiso   1.00
H70    H     0.12300   0.63039   0.28194   0.00000  Uiso   1.00
H71    H     0.36546   0.87795   0.07860   0.00000  Uiso   1.00
H72    H     0.43803   0.92214   0.06291   0.00000  Uiso   1.00
C112   C     0.02048   0.50974   0.17447   0.00000  Uiso   1.00
C113   C     0.42552   0.49946   0.23781   0.00000  Uiso   1.00
C114   C     0.38395   0.48395   0.23297   0.00000  Uiso   1.00
C115   C     0.09800   0.47902   0.12485   0.00000  Uiso   1.00
C116   C     0.07307   0.49573   0.11633   0.00000  Uiso   1.00
O7     O     0.12977   0.69867   0.29050   0.00000  Uiso   1.00
O8     O     0.13079   0.42779   0.07437   0.00000  Uiso   1.00
H73    H     0.44218   0.51893   0.29125   0.00000  Uiso   1.00
H74    H     0.36961   0.49261   0.28194   0.00000  Uiso   1.00
H75    H     0.12205   0.48751   0.07860   0.00000  Uiso   1.00
H76    H     0.07786   0.51589   0.06291   0.00000  Uiso   1.00
C117   C     0.51074   0.02048   0.17447   0.00000  Uiso   1.00
C118   C     0.92606   0.42552   0.23781   0.00000  Uiso   1.00
C119   C     0.90000   0.38395   0.23297   0.00000  Uiso   1.00
C120   C     0.61898   0.09800   0.12485   0.00000  Uiso   1.00
C121   C     0.57734   0.07307   0.11633   0.00000  Uiso   1.00
O9     O     0.43110   0.12977   0.29050   0.00000  Uiso   1.00
O10    O     0.70300   0.13079   0.07437   0.00000  Uiso   1.00
H77    H     0.92325   0.44218   0.29125   0.00000  Uiso   1.00
H78    H     0.87700   0.36961   0.28194   0.00000  Uiso   1.00
H79    H     0.63454   0.12205   0.07860   0.00000  Uiso   1.00
H80    H     0.56197   0.07786   0.06291   0.00000  Uiso   1.00
C122   C     0.97952   0.49026   0.17447   0.00000  Uiso   1.00
C123   C     0.57448   0.50054   0.23781   0.00000  Uiso   1.00
C124   C     0.61605   0.51605   0.23297   0.00000  Uiso   1.00
C125   C     0.90200   0.52098   0.12485   0.00000  Uiso   1.00
C126   C     0.92693   0.50427   0.11633   0.00000  Uiso   1.00
O11    O     0.87023   0.30133   0.29050   0.00000  Uiso   1.00
O12    O     0.86921   0.57221   0.07437   0.00000  Uiso   1.00
H81    H     0.55782   0.48107   0.29125   0.00000  Uiso   1.00
H82    H     0.63039   0.50739   0.28194   0.00000  Uiso   1.00
H83    H     0.87795   0.51249   0.07860   0.00000  Uiso   1.00
H84    H     0.92214   0.48411   0.06291   0.00000  Uiso   1.00
loop_
_geom_bond_atom_site_label_1
_geom_bond_atom_site_label_2
_geom_bond_distance
_geom_bond_site_symmetry_2
_ccdc_geom_bond_type
C1     C2      1.419   .     S
C1     C10     1.384   .     D
C1     H1      1.067   .     S
C2     C21     1.391   .     D
C2     H2      1.068   .     S
C3     C4      1.418   .     S
C3     C19     1.396   .     D
C3     H3      1.068   .     S
C4     C20     1.384   .     D
C4     H4      1.070   .     S
C5     C58     1.381   .     D
C5     C73     1.508   .     S
C5     C95     1.507   .     S
C6     C7      1.418   .     D
C6     H5      1.071   .     S
C6     C63     1.391   .     S
C7     H6      1.074   .     S
C7     C74     1.391   .     S
C8     C9      1.419   .     S
C8     H7      1.076   .     S
C8     C72     1.391   .     D
C9     H8      1.071   .     S
C9     C73     1.395   .     D
C10    C59     1.391   .     S
C10    C117    1.507   .     S
N1     C11     1.359   .     S
N1     C21     1.461   .     S
N1     H9      1.017   .     S
C11    C12     1.500   .     S
C11    O9      1.189   .     D
C12    C13     1.395   .     S
C12    C17     1.380   .     D
C13    C14     1.416   .     D
C13    H10     1.065   .     S
C14    C15     1.384   .     S
C14    H11     1.076   .     S
C15    C16     1.402   .     D
C15    C18     1.509   .     S
C16    C17     1.418   .     S
C16    H12     1.064   .     S
C17    H13     1.077   .     S
C18    N2      1.364   .     S
C18    O4      1.187   .     D
N2     C19     1.461   .     S
N2     H14     1.013   .     S
C19    C61     1.391   .     S
C20    C58     1.508   .     S
C20    C62     1.395   .     S
C21    C60     1.391   .     S
O1     C96     1.189   .     D
O2     C71     1.187   .     D
C22    C23     1.419   .     D
C22    C26     1.384   .     S
C22    H15     1.067   .     S
C23    C37     1.391   .     S
C23    H16     1.068   .     S
C24    C25     1.418   .     S
C24    C35     1.396   .     D
C24    H17     1.068   .     S
C25    C36     1.384   .     D
C25    H18     1.070   .     S
C26    C118    1.391   .     D
C26    C122    1.507   .     S
N3     C27     1.359   .     S
N3     C37     1.461   .     S
N3     H19     1.017   .     S
C27    C28     1.500   .     S
C27    O11     1.189   .     D
C28    C29     1.395   .     S
C28    C33     1.380   .     D
C29    C30     1.416   .     D
C29    H20     1.065   .     S
C30    C31     1.384   .     S
C30    H21     1.076   .     S
C31    C32     1.402   .     D
C31    C34     1.509   .     S
C32    C33     1.418   .     S
C32    H22     1.064   .     S
C33    H23     1.077   .     S
C34    N4      1.364   .     S
C34    O10     1.187   .     D
N4     C35     1.461   .     S
N4     H24     1.013   .     S
C35    C120    1.391   .     S
C36    C117    1.508   .     S
C36    C121    1.395   .     S
C37    C119    1.391   .     D
C38    C39     1.419   .     S
C38    C42     1.384   .     D
C38    H25     1.067   .     S
C39    C53     1.391   .     D
C39    H26     1.068   .     S
C40    C41     1.418   .     S
C40    C51     1.396   .     D
C40    H27     1.068   .     S
C41    C52     1.384   .     D
C41    H28     1.070   .     S
C42    C58     1.507   .     S
C42    C123    1.391   .     S
N5     C43     1.359   .     S
N5     C53     1.461   .     S
N5     H29     1.017   .     S
C43    C44     1.500   .     S
C43    O3      1.189   .     D
C44    C45     1.395   .     D
C44    C49     1.380   .     S
C45    C46     1.416   .     S
C45    H30     1.065   .     S
C46    C47     1.384   .     D
C46    H31     1.076   .     S
C47    C48     1.402   .     S
C47    C50     1.509   .     S
C48    C49     1.418   .     D
C48    H32     1.064   .     S
C49    H33     1.077   .     S
C50    N6      1.364   .     S
C50    O12     1.187   .     D
N6     C51     1.461   .     S
N6     H34     1.013   .     S
C51    C125    1.391   .     S
C52    C122    1.508   .     S
C52    C126    1.395   .     S
C53    C124    1.391   .     S
C54    C55     1.419   .     S
C54    C63     1.384   .     D
C54    H35     1.067   .     S
C55    C74     1.391   .     D
C55    H36     1.068   .     S
C56    C57     1.418   .     D
C56    C72     1.396   .     S
C56    H37     1.068   .     S
C57    C73     1.384   .     S
C57    H38     1.070   .     S
C59    C60     1.418   .     D
C59    H39     1.071   .     S
C60    H40     1.074   .     S
C61    C62     1.419   .     D
C61    H41     1.076   .     S
C62    H42     1.071   .     S
C63    C107    1.507   .     S
N7     C64     1.359   .     S
N7     C74     1.461   .     S
N7     H43     1.017   .     S
C64    C65     1.500   .     S
C64    O5      1.189   .     D
C65    C66     1.395   .     S
C65    C70     1.380   .     D
C66    C67     1.416   .     D
C66    H44     1.065   .     S
C67    C68     1.384   .     S
C67    H45     1.076   .     S
C68    C69     1.402   .     D
C68    C71     1.509   .     S
C69    C70     1.418   .     S
C69    H46     1.064   .     S
C70    H47     1.077   .     S
C71    N8      1.364   .     S
N8     C72     1.461   .     S
N8     H48     1.013   .     S
C75    C76     1.419   .     S
C75    C79     1.384   .     D
C75    H49     1.067   .     S
C76    C90     1.391   .     D
C76    H50     1.068   .     S
C77    C78     1.418   .     S
C77    C88     1.396   .     D
C77    H51     1.068   .     S
C78    C89     1.384   .     D
C78    H52     1.070   .     S
C79    C108    1.391   .     S
C79    C112    1.507   .     S
N9     C80     1.359   .     S
N9     C90     1.461   .     S
N9     H53     1.017   .     S
C80    C81     1.500   .     S
C80    O7      1.189   .     D
C81    C82     1.395   .     S
C81    C86     1.380   .     D
C82    C83     1.416   .     D
C82    H54     1.065   .     S
C83    C84     1.384   .     S
C83    H55     1.076   .     S
C84    C85     1.402   .     D
C84    C87     1.509   .     S
C85    C86     1.418   .     S
C85    H56     1.064   .     S
C86    H57     1.077   .     S
C87    N10     1.364   .     S
C87    O6      1.187   .     D
N10    C88     1.461   .     S
N10    H58     1.013   .     S
C88    C110    1.391   .     S
C89    C107    1.508   .     S
C89    C111    1.395   .     S
C90    C109    1.391   .     S
C91    C92     1.419   .     S
C91    C95     1.384   .     D
C91    H59     1.067   .     S
C92    C106    1.391   .     D
C92    H60     1.068   .     S
C93    C94     1.418   .     D
C93    C104    1.396   .     S
C93    H61     1.068   .     S
C94    C105    1.384   .     S
C94    H62     1.070   .     S
C95    C113    1.391   .     S
N11    C96     1.359   .     S
N11    C106    1.461   .     S
N11    H63     1.017   .     S
C96    C97     1.500   .     S
C97    C98     1.395   .     S
C97    C102    1.380   .     D
C98    C99     1.416   .     D
C98    H64     1.065   .     S
C99    C100    1.384   .     S
C99    H65     1.076   .     S
C100   C101    1.402   .     D
C100   C103    1.509   .     S
C101   C102    1.418   .     S
C101   H66     1.064   .     S
C102   H67     1.077   .     S
C103   N12     1.364   .     S
C103   O8      1.187   .     D
N12    C104    1.461   .     S
N12    H68     1.013   .     S
C104   C115    1.391   .     D
C105   C112    1.508   .     S
C105   C116    1.395   .     D
C106   C114    1.391   .     S
C107   C117    1.381   1_565 D
C108   C109    1.418   .     D
C108   H69     1.071   .     S
C109   H70     1.074   .     S
C110   C111    1.419   .     D
C110   H71     1.076   .     S
C111   H72     1.071   .     S
C112   C122    1.381   1_455 D
C113   C114    1.418   .     D
C113   H73     1.071   .     S
C114   H74     1.074   .     S
C115   C116    1.419   .     S
C115   H75     1.076   .     S
C116   H76     1.071   .     S
C117   C107    1.381   1_545 D
C118   C119    1.418   .     S
C118   H77     1.071   .     S
C119   H78     1.074   .     S
C120   C121    1.419   .     D
C120   H79     1.076   .     S
C121   H80     1.071   .     S
C122   C112    1.381   1_655 D
C123   C124    1.418   .     D
C123   H81     1.071   .     S
C124   H82     1.074   .     S
C125   C126    1.419   .     D
C125   H83     1.076   .     S
C126   H84     1.071   .     S
