data_240
_audit_creation_date              2023-09-08
_audit_creation_method            'Materials Studio'
_symmetry_space_group_name_H-M    'P1'
_symmetry_Int_Tables_number       1
_symmetry_cell_setting            triclinic
loop_
_symmetry_equiv_pos_as_xyz
  x,y,z
_cell_length_a                    46.0733
_cell_length_b                    47.0450
_cell_length_c                    4.3815
_cell_angle_alpha                 83.8538
_cell_angle_beta                  85.6793
_cell_angle_gamma                 58.4378
loop_
_atom_site_label
_atom_site_type_symbol
_atom_site_fract_x
_atom_site_fract_y
_atom_site_fract_z
_atom_site_U_iso_or_equiv
_atom_site_adp_type
_atom_site_occupancy
C1     C     0.27020   0.16310  -0.21040   0.00000  Uiso   1.00
C2     C     0.28690   0.14590  -0.46930   0.00000  Uiso   1.00
C3     C     0.31340   0.14840  -0.62740   0.00000  Uiso   1.00
C4     C     0.32630   0.16550  -0.49390   0.00000  Uiso   1.00
C5     C     0.30860   0.18440  -0.24640   0.00000  Uiso   1.00
C6     C     0.28160   0.18270  -0.09690   0.00000  Uiso   1.00
C7     C     0.24190   0.16060  -0.05520   0.00000  Uiso   1.00
C8     C     0.23090   0.14060  -0.16760   0.00000  Uiso   1.00
C9     C     0.20440   0.13830  -0.01510   0.00000  Uiso   1.00
C10    C     0.18660   0.15700   0.23300   0.00000  Uiso   1.00
C11    C     0.19900   0.17480   0.36360   0.00000  Uiso   1.00
C12    C     0.22510   0.17780   0.20360   0.00000  Uiso   1.00
H13    H     0.27990   0.12950  -0.55410   0.00000  Uiso   1.00
H14    H     0.32890   0.13070  -0.79630   0.00000  Uiso   1.00
H15    H     0.31730   0.19920  -0.15470   0.00000  Uiso   1.00
H16    H     0.26640   0.20050   0.07200   0.00000  Uiso   1.00
H17    H     0.24620   0.12290  -0.33620   0.00000  Uiso   1.00
H18    H     0.19640   0.12280  -0.10410   0.00000  Uiso   1.00
H19    H     0.18330   0.19230   0.53260   0.00000  Uiso   1.00
H20    H     0.23180   0.19450   0.28700   0.00000  Uiso   1.00
C21    C     0.37700   0.16020  -0.38360   0.00000  Uiso   1.00
C22    C     0.13710   0.15940   0.13140   0.00000  Uiso   1.00
H23    H     0.36950   0.16100  -0.12250   0.00000  Uiso   1.00
H24    H     0.14420   0.15920  -0.13010   0.00000  Uiso   1.00
C25    C     0.41050   0.15630  -0.46500   0.00000  Uiso   1.00
C26    C     0.42880   0.13840  -0.71530   0.00000  Uiso   1.00
C27    C     0.42430   0.17070  -0.30310   0.00000  Uiso   1.00
C28    C     0.45930   0.13610  -0.82230   0.00000  Uiso   1.00
H29    H     0.41820   0.12710  -0.83820   0.00000  Uiso   1.00
C30    C     0.45450   0.16880  -0.41440   0.00000  Uiso   1.00
H31    H     0.40940   0.18680  -0.12170   0.00000  Uiso   1.00
C32    C     0.47230   0.15180  -0.66950   0.00000  Uiso   1.00
H33    H     0.47460   0.11930  -0.99780   0.00000  Uiso   1.00
H34    H     0.46620   0.17840  -0.28470   0.00000  Uiso   1.00
C35    C     0.10520   0.16000   0.21830   0.00000  Uiso   1.00
C36    C     0.08620   0.17660   0.47220   0.00000  Uiso   1.00
C37    C     0.09440   0.14260   0.06300   0.00000  Uiso   1.00
C38    C     0.05760   0.17530   0.58350   0.00000  Uiso   1.00
H39    H     0.09470   0.18970   0.59460   0.00000  Uiso   1.00
C40    C     0.06660   0.14030   0.18260   0.00000  Uiso   1.00
H41    H     0.11040   0.12690  -0.11760   0.00000  Uiso   1.00
C42    C     0.04700   0.15720   0.43370   0.00000  Uiso   1.00
H43    H     0.04180   0.19120   0.76160   0.00000  Uiso   1.00
H44    H     0.05830   0.12710   0.06070   0.00000  Uiso   1.00
C45    C     0.01500   0.15640   0.50560   0.00000  Uiso   1.00
C46    C    -0.01670   0.18470   0.49300   0.00000  Uiso   1.00
C47    C    -0.00220   0.63260   0.23350   0.00000  Uiso   1.00
C48    C    -0.03470   0.63660   0.21030   0.00000  Uiso   1.00
C49    C     0.02570   0.59960   0.27700   0.00000  Uiso   1.00
C50    C    -0.03870   0.60930   0.22010   0.00000  Uiso   1.00
H51    H    -0.05710   0.66160   0.18350   0.00000  Uiso   1.00
C52    C     0.02170   0.57230   0.28980   0.00000  Uiso   1.00
H53    H     0.05100   0.59490   0.30320   0.00000  Uiso   1.00
C54    C    -0.01050   0.57650   0.25880   0.00000  Uiso   1.00
H55    H    -0.06390   0.61310   0.19820   0.00000  Uiso   1.00
H56    H     0.04380   0.54710   0.32530   0.00000  Uiso   1.00
C57    C    -0.01340   0.54680   0.27000   0.00000  Uiso   1.00
H58    H     0.01070   0.52250   0.31870   0.00000  Uiso   1.00
C59    C    -0.04110   0.51750   0.24810   0.00000  Uiso   1.00
C60    C    -0.05920   0.51230   0.04030   0.00000  Uiso   1.00
C61    C    -0.02350   0.49240   0.48270   0.00000  Uiso   1.00
C62    C    -0.05820   0.48200   0.05590   0.00000  Uiso   1.00
H63    H    -0.07270   0.53140  -0.14420   0.00000  Uiso   1.00
C64    C    -0.02360   0.46270   0.50290   0.00000  Uiso   1.00
H65    H    -0.01010   0.49630   0.65180   0.00000  Uiso   1.00
C66    C    -0.04060   0.45680   0.28970   0.00000  Uiso   1.00
H67    H    -0.07210   0.47820  -0.10940   0.00000  Uiso   1.00
H68    H    -0.01020   0.44380   0.68860   0.00000  Uiso   1.00
C69    C    -0.04020   0.42460   0.31850   0.00000  Uiso   1.00
C70    C    -0.02230   0.40060   0.10570   0.00000  Uiso   1.00
C71    C    -0.05670   0.41710   0.56690   0.00000  Uiso   1.00
C72    C    -0.02110   0.37020   0.13700   0.00000  Uiso   1.00
H73    H    -0.00860   0.40540  -0.08580   0.00000  Uiso   1.00
C74    C    -0.05570   0.38680   0.60000   0.00000  Uiso   1.00
H75    H    -0.07050   0.43520   0.73720   0.00000  Uiso   1.00
C76    C    -0.03810   0.36310   0.38390   0.00000  Uiso   1.00
H77    H    -0.00650   0.35180  -0.02840   0.00000  Uiso   1.00
H78    H    -0.06870   0.38150   0.79470   0.00000  Uiso   1.00
C79    C    -0.03420   0.31600   0.19410   0.00000  Uiso   1.00
H80    H    -0.03440   0.32460  -0.06860   0.00000  Uiso   1.00
C81    C    -0.03130   0.28310   0.25410   0.00000  Uiso   1.00
C82    C    -0.04680   0.27720   0.51900   0.00000  Uiso   1.00
C83    C    -0.01230   0.25690   0.06240   0.00000  Uiso   1.00
C84    C    -0.04230   0.24570   0.60440   0.00000  Uiso   1.00
H85    H    -0.06190   0.29750   0.66680   0.00000  Uiso   1.00
C86    C    -0.00710   0.22520   0.15310   0.00000  Uiso   1.00
H87    H     0.00070   0.26050  -0.14220   0.00000  Uiso   1.00
C88    C    -0.02140   0.21880   0.42310   0.00000  Uiso   1.00
H89    H    -0.05630   0.24270   0.80220   0.00000  Uiso   1.00
H90    H     0.00650   0.20530   0.00100   0.00000  Uiso   1.00
C91    C     0.01920   0.12230   0.51410   0.00000  Uiso   1.00
C92    C     0.00430   0.11610   0.28460   0.00000  Uiso   1.00
C93    C     0.03900   0.09570   0.72980   0.00000  Uiso   1.00
C94    C     0.00770   0.08510   0.26880   0.00000  Uiso   1.00
H95    H    -0.00850   0.13580   0.10400   0.00000  Uiso   1.00
C96    C     0.04160   0.06480   0.72100   0.00000  Uiso   1.00
H97    H     0.05320   0.09830   0.89910   0.00000  Uiso   1.00
C98    C     0.02570   0.05910   0.49620   0.00000  Uiso   1.00
H99    H    -0.00550   0.08160   0.09430   0.00000  Uiso   1.00
H100   H     0.05580   0.04490   0.89760   0.00000  Uiso   1.00
C101   C     0.02700   0.02700   0.51390   0.00000  Uiso   1.00
H102   H     0.02800   0.01690   0.77150   0.00000  Uiso   1.00
C103   C     0.02800  -0.01750   0.31070   0.00000  Uiso   1.00
C104   C     0.04630  -0.04180   0.54830   0.00000  Uiso   1.00
C105   C     0.01160  -0.02480   0.10290   0.00000  Uiso   1.00
C106   C     0.04730  -0.07210   0.58050   0.00000  Uiso   1.00
H107   H     0.06010  -0.03720   0.70730   0.00000  Uiso   1.00
C108   C     0.01280  -0.05530   0.13570   0.00000  Uiso   1.00
H109   H    -0.00260  -0.00640  -0.08440   0.00000  Uiso   1.00
C110   C     0.03050  -0.07920   0.37610   0.00000  Uiso   1.00
H111   H     0.06170  -0.09060   0.76630   0.00000  Uiso   1.00
H112   H    -0.00030  -0.06030  -0.02750   0.00000  Uiso   1.00
C113   C     0.03160  -0.11190   0.41190   0.00000  Uiso   1.00
C114   C     0.01490  -0.11930   0.65930   0.00000  Uiso   1.00
C115   C     0.04940  -0.13580   0.19850   0.00000  Uiso   1.00
C116   C     0.01550  -0.14940   0.68970   0.00000  Uiso   1.00
H117   H     0.00100  -0.10120   0.82920   0.00000  Uiso   1.00
C118   C     0.05030  -0.16600   0.22840   0.00000  Uiso   1.00
H119   H     0.06300  -0.13080   0.00670   0.00000  Uiso   1.00
C120   C     0.03300  -0.17310   0.47330   0.00000  Uiso   1.00
H121   H     0.00210  -0.15440   0.88270   0.00000  Uiso   1.00
H122   H     0.06490  -0.18440   0.06230   0.00000  Uiso   1.00
C123   C     0.03510  -0.21790   0.26520   0.00000  Uiso   1.00
H124   H     0.03540  -0.20790   0.00930   0.00000  Uiso   1.00
C125   C     0.03620  -0.24980   0.26960   0.00000  Uiso   1.00
C126   C     0.01910  -0.26000   0.49350   0.00000  Uiso   1.00
C127   C     0.05300  -0.26970   0.02600   0.00000  Uiso   1.00
C128   C     0.01710  -0.28800   0.45350   0.00000  Uiso   1.00
H129   H     0.00440  -0.24400   0.67600   0.00000  Uiso   1.00
C130   C     0.05150  -0.29800  -0.01050   0.00000  Uiso   1.00
H131   H     0.06600  -0.26190  -0.14850   0.00000  Uiso   1.00
C132   C     0.03240  -0.30700   0.20200   0.00000  Uiso   1.00
H133   H     0.00520  -0.29640   0.63320   0.00000  Uiso   1.00
H134   H     0.06660  -0.31420  -0.19030   0.00000  Uiso   1.00
C135   C     0.03040  -0.33690   0.16110   0.00000  Uiso   1.00
C136   C     0.00100  -0.33750   0.22920   0.00000  Uiso   1.00
C137   C    -0.04860   0.18370   0.47790   0.00000  Uiso   1.00
C138   C    -0.06890   0.20040   0.22180   0.00000  Uiso   1.00
C139   C    -0.05860   0.16560   0.69130   0.00000  Uiso   1.00
C140   C    -0.09680   0.19800   0.16100   0.00000  Uiso   1.00
H141   H    -0.06110   0.21390   0.05240   0.00000  Uiso   1.00
C142   C    -0.08740   0.16420   0.63830   0.00000  Uiso   1.00
H143   H    -0.04270   0.15040   0.88210   0.00000  Uiso   1.00
C144   C    -0.10690   0.18030   0.37810   0.00000  Uiso   1.00
H145   H    -0.11320   0.21320  -0.02920   0.00000  Uiso   1.00
H146   H    -0.09570   0.15150   0.81230   0.00000  Uiso   1.00
C147   C    -0.13900   0.18060   0.35980   0.00000  Uiso   1.00
H148   H    -0.14870   0.17900   0.60730   0.00000  Uiso   1.00
C149   C    -0.18340   0.18380   0.07780   0.00000  Uiso   1.00
C150   C    -0.19250   0.16360   0.27400   0.00000  Uiso   1.00
C151   C    -0.20350   0.20200  -0.17670   0.00000  Uiso   1.00
C152   C    -0.21680   0.15730   0.17290   0.00000  Uiso   1.00
H153   H    -0.17550   0.14700   0.45640   0.00000  Uiso   1.00
C154   C    -0.22800   0.19620  -0.27240   0.00000  Uiso   1.00
H155   H    -0.19810   0.21920  -0.31780   0.00000  Uiso   1.00
C156   C    -0.23510   0.17330  -0.09490   0.00000  Uiso   1.00
H157   H    -0.22070   0.13900   0.30970   0.00000  Uiso   1.00
H158   H    -0.24460   0.21270  -0.45680   0.00000  Uiso   1.00
C159   C    -0.26080   0.16670  -0.19400   0.00000  Uiso   1.00
C160   C    -0.26830   0.14420  -0.01560   0.00000  Uiso   1.00
C161   C    -0.27900   0.18280  -0.46220   0.00000  Uiso   1.00
C162   C    -0.29330   0.13910  -0.10950   0.00000  Uiso   1.00
H163   H    -0.25190   0.12760   0.16940   0.00000  Uiso   1.00
C164   C    -0.30370   0.17700  -0.56220   0.00000  Uiso   1.00
H165   H    -0.27470   0.20080  -0.60020   0.00000  Uiso   1.00
C166   C    -0.31330   0.15740  -0.36420   0.00000  Uiso   1.00
H167   H    -0.29930   0.12230   0.03370   0.00000  Uiso   1.00
H168   H    -0.32050   0.19370  -0.74480   0.00000  Uiso   1.00
C169   C    -0.35880   0.16280  -0.64530   0.00000  Uiso   1.00
H170   H    -0.34850   0.16340  -0.89270   0.00000  Uiso   1.00
C171   C    -0.39250   0.16650  -0.66470   0.00000  Uiso   1.00
C172   C    -0.40570   0.15200  -0.44340   0.00000  Uiso   1.00
C173   C    -0.41150   0.18420  -0.92510   0.00000  Uiso   1.00
C174   C    -0.43610   0.15390  -0.50190   0.00000  Uiso   1.00
H175   H    -0.39050   0.13620  -0.24860   0.00000  Uiso   1.00
C176   C    -0.44230   0.18670  -0.97830   0.00000  Uiso   1.00
H177   H    -0.40120   0.19510  -1.09850   0.00000  Uiso   1.00
C178   C    -0.45490   0.17090  -0.76400   0.00000  Uiso   1.00
H179   H    -0.44740   0.14430  -0.32730   0.00000  Uiso   1.00
H180   H    -0.45750   0.20310  -1.16940   0.00000  Uiso   1.00
C181   C    -0.48930   0.17480  -0.77920   0.00000  Uiso   1.00
C182   C    -0.49330   0.14780  -0.74110   0.00000  Uiso   1.00
C183   C    -0.03080  -0.30630   0.32050   0.00000  Uiso   1.00
C184   C    -0.04440  -0.27620   0.12820   0.00000  Uiso   1.00
C185   C    -0.04760  -0.30660   0.59670   0.00000  Uiso   1.00
C186   C    -0.07370  -0.24770   0.22470   0.00000  Uiso   1.00
H187   H    -0.02960  -0.27420  -0.06820   0.00000  Uiso   1.00
C188   C    -0.07680  -0.27770   0.69710   0.00000  Uiso   1.00
H189   H    -0.03660  -0.32960   0.74550   0.00000  Uiso   1.00
C190   C    -0.09120  -0.24810   0.49780   0.00000  Uiso   1.00
H191   H    -0.08480  -0.22490   0.07260   0.00000  Uiso   1.00
H192   H    -0.09160  -0.27970   0.89410   0.00000  Uiso   1.00
C193   C    -0.12540  -0.21770   0.54070   0.00000  Uiso   1.00
H194   H    -0.13380  -0.21080   0.79570   0.00000  Uiso   1.00
C195   C    -0.17350  -0.17260   0.25510   0.00000  Uiso   1.00
C196   C    -0.20180  -0.16440   0.45600   0.00000  Uiso   1.00
C197   C    -0.17830  -0.15220  -0.01510   0.00000  Uiso   1.00
C198   C    -0.23420  -0.13840   0.36260   0.00000  Uiso   1.00
H199   H    -0.19920  -0.18110   0.65700   0.00000  Uiso   1.00
C200   C    -0.21040  -0.12610  -0.10390   0.00000  Uiso   1.00
H201   H    -0.15660  -0.15800  -0.16940   0.00000  Uiso   1.00
C202   C    -0.23950  -0.11860   0.08640   0.00000  Uiso   1.00
H203   H    -0.25560  -0.13300   0.51880   0.00000  Uiso   1.00
H204   H    -0.21240  -0.10970  -0.30530   0.00000  Uiso   1.00
C205   C    -0.27370  -0.09040  -0.00330   0.00000  Uiso   1.00
C206   C    -0.30300  -0.08190   0.18620   0.00000  Uiso   1.00
C207   C    -0.27830  -0.07100  -0.28040   0.00000  Uiso   1.00
C208   C    -0.33470  -0.05470   0.09960   0.00000  Uiso   1.00
H209   H    -0.30160  -0.09820   0.38740   0.00000  Uiso   1.00
C210   C    -0.31020  -0.04390  -0.37010   0.00000  Uiso   1.00
H211   H    -0.25700  -0.07710  -0.43920   0.00000  Uiso   1.00
C212   C    -0.33850  -0.03410  -0.16710   0.00000  Uiso   1.00
H213   H    -0.35650  -0.04820   0.25440   0.00000  Uiso   1.00
H214   H    -0.31200  -0.02740  -0.57150   0.00000  Uiso   1.00
C215   C    -0.38000   0.01210  -0.47590   0.00000  Uiso   1.00
H216   H    -0.36950   0.00140  -0.71320   0.00000  Uiso   1.00
C217   C    -0.40910   0.04660  -0.52950   0.00000  Uiso   1.00
C218   C    -0.43770   0.06220  -0.32980   0.00000  Uiso   1.00
C219   C    -0.40870   0.06440  -0.80420   0.00000  Uiso   1.00
C220   C    -0.46500   0.09400  -0.41770   0.00000  Uiso   1.00
H221   H    -0.43990   0.04820  -0.12550   0.00000  Uiso   1.00
C222   C    -0.43540   0.09660  -0.88450   0.00000  Uiso   1.00
H223   H    -0.38740   0.05210  -0.96530   0.00000  Uiso   1.00
C224   C    -0.46420   0.11230  -0.68810   0.00000  Uiso   1.00
H225   H    -0.48670   0.10590  -0.26050   0.00000  Uiso   1.00
H226   H    -0.43280   0.11010  -1.08920   0.00000  Uiso   1.00
C227   C     0.06270  -0.36510   0.04020   0.00000  Uiso   1.00
C228   C     0.09380  -0.37510   0.18020   0.00000  Uiso   1.00
C229   C     0.06310  -0.38090  -0.21090   0.00000  Uiso   1.00
C230   C     0.12420  -0.40110   0.06200   0.00000  Uiso   1.00
H231   H     0.09440  -0.35940   0.34060   0.00000  Uiso   1.00
C232   C     0.09380  -0.40630  -0.33550   0.00000  Uiso   1.00
H233   H     0.03910  -0.37270  -0.31600   0.00000  Uiso   1.00
C234   C     0.12450  -0.41780  -0.18220   0.00000  Uiso   1.00
H235   H     0.14810  -0.40980   0.17240   0.00000  Uiso   1.00
H236   H     0.09340  -0.42210  -0.49560   0.00000  Uiso   1.00
C237   C     0.15630  -0.44880  -0.25790   0.00000  Uiso   1.00
H238   H     0.16230  -0.45470  -0.51310   0.00000  Uiso   1.00
C239   C     0.20520  -0.49880  -0.12560   0.00000  Uiso   1.00
C240   C     0.20280  -0.51490  -0.36300   0.00000  Uiso   1.00
C241   C     0.23670  -0.51250   0.01930   0.00000  Uiso   1.00
C242   C     0.23170  -0.54160  -0.49110   0.00000  Uiso   1.00
H243   H     0.17810  -0.50570  -0.46090   0.00000  Uiso   1.00
C244   C     0.26590  -0.53880  -0.11670   0.00000  Uiso   1.00
H245   H     0.23970  -0.49790   0.17600   0.00000  Uiso   1.00
C246   C     0.26410  -0.55440  -0.36300   0.00000  Uiso   1.00
H247   H     0.22810  -0.55580  -0.64800   0.00000  Uiso   1.00
H248   H     0.29050  -0.54660  -0.02640   0.00000  Uiso   1.00
C249   C     0.29480  -0.58300  -0.49020   0.00000  Uiso   1.00
C250   C     0.29290  -0.59840  -0.73680   0.00000  Uiso   1.00
C251   C     0.32720  -0.59640  -0.35850   0.00000  Uiso   1.00
C252   C     0.32180  -0.62550  -0.86690   0.00000  Uiso   1.00
H253   H     0.26830  -0.59000  -0.83120   0.00000  Uiso   1.00
C254   C     0.35580  -0.62410  -0.47870   0.00000  Uiso   1.00
H255   H     0.33110  -0.58250  -0.20060   0.00000  Uiso   1.00
C256   C     0.35300  -0.64030  -0.71350   0.00000  Uiso   1.00
H257   H     0.31840  -0.63980  -1.02380   0.00000  Uiso   1.00
H258   H     0.38020  -0.63440  -0.37310   0.00000  Uiso   1.00
C259   C     0.39770  -0.69210  -0.54970   0.00000  Uiso   1.00
H260   H     0.39130  -0.68460  -0.29690   0.00000  Uiso   1.00
C261   C     0.42620  -0.72620  -0.59870   0.00000  Uiso   1.00
C262   C     0.42420  -0.74230  -0.83740   0.00000  Uiso   1.00
C263   C     0.45600  -0.74280  -0.42290   0.00000  Uiso   1.00
C264   C     0.45110  -0.77360  -0.91620   0.00000  Uiso   1.00
H265   H     0.40140  -0.72950  -0.97400   0.00000  Uiso   1.00
C266   C     0.48330  -0.77350  -0.50980   0.00000  Uiso   1.00
H267   H     0.45970  -0.72950  -0.25580   0.00000  Uiso   1.00
C268   C     0.48130  -0.79000  -0.74540   0.00000  Uiso   1.00
H269   H     0.44690  -0.78650  -1.08030   0.00000  Uiso   1.00
H270   H     0.50590  -0.78620  -0.37260   0.00000  Uiso   1.00
N271   N     0.38090  -0.67250  -0.78410   0.00000  Uiso   1.00
N272   N     0.17580  -0.46840  -0.03620   0.00000  Uiso   1.00
N273   N    -0.14110  -0.20230   0.28840   0.00000  Uiso   1.00
N274   N    -0.36910  -0.00220  -0.20490   0.00000  Uiso   1.00
N275   N    -0.34480   0.15890  -0.38650   0.00000  Uiso   1.00
N276   N     0.03350  -0.20390   0.51010   0.00000  Uiso   1.00
N277   N     0.02640   0.01380   0.27190   0.00000  Uiso   1.00
N278   N    -0.15270   0.18380   0.10130   0.00000  Uiso   1.00
N279   N     0.15570   0.15870   0.34250   0.00000  Uiso   1.00
N280   N     0.35800   0.16220  -0.59790   0.00000  Uiso   1.00
N281   N    -0.03640   0.33180   0.42790   0.00000  Uiso   1.00
N282   N    -0.04150   0.54800   0.22250   0.00000  Uiso   1.00
loop_
_geom_bond_atom_site_label_1
_geom_bond_atom_site_label_2
_geom_bond_distance
_geom_bond_site_symmetry_2
_ccdc_geom_bond_type
C1     C2      1.395   .     D
C1     C6      1.421   .     S
C1     C7      1.479   .     S
C2     C3      1.411   .     S
C2     H13     1.085   .     S
C3     C4      1.413   .     D
C3     H14     1.087   .     S
C4     C5      1.395   .     S
C4     N280    1.429   .     S
C5     C6      1.398   .     D
C5     H15     1.088   .     S
C6     H16     1.086   .     S
C7     C8      1.422   .     D
C7     C12     1.396   .     S
C8     C9      1.396   .     S
C8     H17     1.084   .     S
C9     C10     1.394   .     D
C9     H18     1.088   .     S
C10    C11     1.417   .     S
C10    N279    1.432   .     S
C11    C12     1.410   .     D
C11    H19     1.084   .     S
C12    H20     1.086   .     S
C21    H23     1.169   .     S
C21    C25     1.476   .     S
C21    N280    1.294   .     D
C22    H24     1.167   .     S
C22    C35     1.477   .     S
C22    N279    1.294   .     D
C25    C26     1.392   .     D
C25    C27     1.410   .     S
C26    C28     1.400   .     S
C26    H29     1.088   .     S
C27    C30     1.400   .     D
C27    H31     1.086   .     S
C28    C32     1.408   .     D
C28    H33     1.085   .     S
C30    C32     1.389   .     S
C30    H34     1.083   .     S
C32    C182    1.507   1_655 S
C35    C36     1.392   .     D
C35    C37     1.406   .     S
C36    C38     1.400   .     S
C36    H39     1.084   .     S
C37    C40     1.400   .     D
C37    H41     1.087   .     S
C38    C42     1.413   .     D
C38    H43     1.081   .     S
C40    C42     1.394   .     S
C40    H44     1.081   .     S
C42    C45     1.503   .     S
C45    C46     1.367   .     D
C45    C91     1.509   .     S
C46    C88     1.502   .     S
C46    C137    1.501   .     S
C47    C48     1.418   .     D
C47    C49     1.408   .     S
C47    C136    1.487   1_565 S
C48    C50     1.386   .     S
C48    H51     1.086   .     S
C49    C52     1.385   .     D
C49    H53     1.080   .     S
C50    C54     1.406   .     D
C50    H55     1.089   .     S
C52    C54     1.406   .     S
C52    H56     1.090   .     S
C54    C57     1.467   .     S
C57    H58     1.114   .     S
C57    N282    1.298   .     D
C59    C60     1.400   .     D
C59    C61     1.404   .     S
C59    N282    1.418   .     S
C60    C62     1.396   .     S
C60    H63     1.088   .     S
C61    C64     1.393   .     D
C61    H65     1.086   .     S
C62    C66     1.404   .     D
C62    H67     1.088   .     S
C64    C66     1.399   .     S
C64    H68     1.086   .     S
C66    C69     1.497   .     S
C69    C70     1.400   .     D
C69    C71     1.400   .     S
C70    C72     1.394   .     S
C70    H73     1.087   .     S
C71    C74     1.394   .     D
C71    H75     1.088   .     S
C72    C76     1.401   .     D
C72    H77     1.085   .     S
C74    C76     1.400   .     S
C74    H78     1.087   .     S
C76    N281    1.426   .     S
C79    H80     1.178   .     S
C79    C81     1.478   .     S
C79    N281    1.296   .     D
C81    C82     1.396   .     S
C81    C83     1.404   .     D
C82    C84     1.397   .     D
C82    H85     1.088   .     S
C83    C86     1.397   .     S
C83    H87     1.088   .     S
C84    C88     1.409   .     S
C84    H89     1.083   .     S
C86    C88     1.392   .     D
C86    H90     1.082   .     S
C91    C92     1.394   .     D
C91    C93     1.405   .     S
C92    C94     1.392   .     S
C92    H95     1.084   .     S
C93    C96     1.399   .     D
C93    H97     1.081   .     S
C94    C98     1.407   .     D
C94    H99     1.088   .     S
C96    C98     1.396   .     S
C96    H100    1.088   .     S
C98    C101    1.473   .     S
C101   H102    1.171   .     S
C101   N277    1.294   .     D
C103   C104    1.404   .     D
C103   C105    1.400   .     S
C103   N277    1.427   .     S
C104   C106    1.394   .     S
C104   H107    1.086   .     S
C105   C108    1.399   .     D
C105   H109    1.089   .     S
C106   C110    1.397   .     D
C106   H111    1.089   .     S
C108   C110    1.398   .     S
C108   H112    1.087   .     S
C110   C113    1.504   .     S
C113   C114    1.401   .     D
C113   C115    1.398   .     S
C114   C116    1.394   .     S
C114   H117    1.087   .     S
C115   C118    1.392   .     D
C115   H119    1.089   .     S
C116   C120    1.401   .     D
C116   H121    1.087   .     S
C118   C120    1.404   .     S
C118   H122    1.088   .     S
C120   N276    1.429   .     S
C123   H124    1.171   .     S
C123   C125    1.473   .     S
C123   N276    1.296   .     D
C125   C126    1.411   .     D
C125   C127    1.395   .     S
C126   C128    1.398   .     S
C126   H129    1.085   .     S
C127   C130    1.395   .     D
C127   H131    1.086   .     S
C128   C132    1.394   .     D
C128   H133    1.083   .     S
C130   C132    1.415   .     S
C130   H134    1.085   .     S
C132   C135    1.487   .     S
C135   C136    1.379   .     D
C135   C227    1.490   .     S
C136   C47     1.487   1_545 S
C136   C183    1.499   .     S
C137   C138    1.397   .     D
C137   C139    1.410   .     S
C138   C140    1.395   .     S
C138   H141    1.087   .     S
C139   C142    1.400   .     D
C139   H143    1.078   .     S
C140   C144    1.409   .     D
C140   H145    1.086   .     S
C142   C144    1.392   .     S
C142   H146    1.087   .     S
C144   C147    1.480   .     S
C147   H148    1.152   .     S
C147   N278    1.294   .     D
C149   C150    1.416   .     D
C149   C151    1.398   .     S
C149   N278    1.426   .     S
C150   C152    1.410   .     S
C150   H153    1.087   .     S
C151   C154    1.394   .     D
C151   H155    1.086   .     S
C152   C156    1.396   .     D
C152   H157    1.081   .     S
C154   C156    1.423   .     S
C154   H158    1.085   .     S
C156   C159    1.476   .     S
C159   C160    1.420   .     D
C159   C161    1.397   .     S
C160   C162    1.391   .     S
C160   H163    1.085   .     S
C161   C164    1.410   .     D
C161   H165    1.082   .     S
C162   C166    1.398   .     D
C162   H167    1.091   .     S
C164   C166    1.413   .     S
C164   H168    1.086   .     S
C166   N275    1.426   .     S
C169   H170    1.154   .     S
C169   C171    1.477   .     S
C169   N275    1.295   .     D
C171   C172    1.407   .     D
C171   C173    1.395   .     S
C172   C174    1.398   .     S
C172   H175    1.087   .     S
C173   C176    1.397   .     D
C173   H177    1.087   .     S
C174   C178    1.392   .     D
C174   H179    1.083   .     S
C176   C178    1.411   .     S
C176   H180    1.082   .     S
C178   C181    1.503   .     S
C181   C182    1.368   .     D
C181   C268    1.508   1_465 S
C182   C32     1.507   1_455 S
C182   C224    1.504   .     S
C183   C184    1.415   .     S
C183   C185    1.389   .     D
C184   C186    1.393   .     D
C184   H187    1.084   .     S
C185   C188    1.406   .     S
C185   H189    1.085   .     S
C186   C190    1.396   .     S
C186   H191    1.086   .     S
C188   C190    1.415   .     D
C188   H192    1.086   .     S
C190   C193    1.489   .     S
C193   H194    1.177   .     S
C193   N273    1.292   .     D
C195   C196    1.413   .     D
C195   C197    1.395   .     S
C195   N273    1.417   .     S
C196   C198    1.402   .     S
C196   H199    1.085   .     S
C197   C200    1.389   .     D
C197   H201    1.088   .     S
C198   C202    1.399   .     D
C198   H203    1.086   .     S
C200   C202    1.420   .     S
C200   H204    1.084   .     S
C202   C205    1.480   .     S
C205   C206    1.417   .     D
C205   C207    1.397   .     S
C206   C208    1.392   .     S
C206   H209    1.087   .     S
C207   C210    1.399   .     D
C207   H211    1.084   .     S
C208   C212    1.395   .     D
C208   H213    1.087   .     S
C210   C212    1.410   .     S
C210   H214    1.089   .     S
C212   N274    1.426   .     S
C215   H216    1.162   .     S
C215   C217    1.475   .     S
C215   N274    1.296   .     D
C217   C218    1.411   .     D
C217   C219    1.395   .     S
C218   C220    1.396   .     S
C218   H221    1.084   .     S
C219   C222    1.390   .     D
C219   H223    1.088   .     S
C220   C224    1.398   .     D
C220   H225    1.086   .     S
C222   C224    1.409   .     S
C222   H226    1.079   .     S
C227   C228    1.420   .     S
C227   C229    1.386   .     D
C228   C230    1.400   .     D
C228   H231    1.084   .     S
C229   C232    1.407   .     S
C229   H233    1.084   .     S
C230   C234    1.389   .     S
C230   H235    1.086   .     S
C232   C234    1.417   .     D
C232   H236    1.083   .     S
C234   C237    1.475   .     S
C237   H238    1.159   .     S
C237   N272    1.294   .     D
C239   C240    1.393   .     D
C239   C241    1.413   .     S
C239   N272    1.430   .     S
C240   C242    1.398   .     S
C240   H243    1.088   .     S
C241   C244    1.411   .     D
C241   H245    1.085   .     S
C242   C246    1.421   .     D
C242   H247    1.085   .     S
C244   C246    1.399   .     S
C244   H248    1.085   .     S
C246   C249    1.473   .     S
C249   C250    1.396   .     D
C249   C251    1.423   .     S
C250   C252    1.410   .     S
C250   H253    1.086   .     S
C251   C254    1.399   .     D
C251   H255    1.085   .     S
C252   C256    1.414   .     D
C252   H257    1.084   .     S
C254   C256    1.395   .     S
C254   H258    1.083   .     S
C256   N271    1.430   .     S
C259   H260    1.168   .     S
C259   C261    1.473   .     S
C259   N271    1.294   .     D
C261   C262    1.390   .     S
C261   C263    1.413   .     D
C262   C264    1.399   .     D
C262   H265    1.086   .     S
C263   C266    1.399   .     S
C263   H267    1.089   .     S
C264   C268    1.414   .     S
C264   H269    1.077   .     S
C266   C268    1.392   .     D
C266   H270    1.081   .     S
C268   C181    1.508   1_645 S
