data_241
_audit_creation_date              2023-09-08
_audit_creation_method            'Materials Studio'
_symmetry_space_group_name_H-M    'P1'
_symmetry_Int_Tables_number       1
_symmetry_cell_setting            triclinic
loop_
_symmetry_equiv_pos_as_xyz
  x,y,z
_cell_length_a                    47.3078
_cell_length_b                    47.2950
_cell_length_c                    4.7160
_cell_angle_alpha                 89.9848
_cell_angle_beta                  90.0083
_cell_angle_gamma                 59.9903
loop_
_atom_site_label
_atom_site_type_symbol
_atom_site_fract_x
_atom_site_fract_y
_atom_site_fract_z
_atom_site_U_iso_or_equiv
_atom_site_adp_type
_atom_site_occupancy
C1     C     0.29020   0.14070   0.16180   0.00000  Uiso   1.00
C2     C     0.31930   0.11030   0.17400   0.00000  Uiso   1.00
C3     C     0.34970   0.10800   0.15420   0.00000  Uiso   1.00
C4     C     0.35220   0.13630   0.12920   0.00000  Uiso   1.00
C5     C     0.32330   0.16690   0.11790   0.00000  Uiso   1.00
C6     C     0.29300   0.16890   0.13250   0.00000  Uiso   1.00
C7     C     0.25790   0.14310   0.17360   0.00000  Uiso   1.00
C8     C     0.25390   0.11640   0.09720   0.00000  Uiso   1.00
C9     C     0.22340   0.11870   0.10140   0.00000  Uiso   1.00
C10    C     0.19550   0.14800   0.18380   0.00000  Uiso   1.00
C11    C     0.19940   0.17440   0.26880   0.00000  Uiso   1.00
C12    C     0.22990   0.17200   0.26050   0.00000  Uiso   1.00
H13    H     0.31810   0.08800   0.19990   0.00000  Uiso   1.00
H14    H     0.37180   0.08420   0.16480   0.00000  Uiso   1.00
H15    H     0.32480   0.18890   0.08950   0.00000  Uiso   1.00
H16    H     0.27120   0.19270   0.11620   0.00000  Uiso   1.00
H17    H     0.27490   0.09360   0.02950   0.00000  Uiso   1.00
H18    H     0.22130   0.09760   0.04380   0.00000  Uiso   1.00
H19    H     0.17810   0.19710   0.33570   0.00000  Uiso   1.00
H20    H     0.23210   0.19290   0.32700   0.00000  Uiso   1.00
C21    C     0.38980   0.15410   0.21810   0.00000  Uiso   1.00
C22    C     0.15580   0.13560   0.02260   0.00000  Uiso   1.00
H23    H     0.37230   0.17300   0.36650   0.00000  Uiso   1.00
H24    H     0.17250   0.11980  -0.14750   0.00000  Uiso   1.00
C25    C     0.42050   0.15380   0.16910   0.00000  Uiso   1.00
C26    C     0.44340   0.13270  -0.03120   0.00000  Uiso   1.00
C27    C     0.42730   0.17550   0.31890   0.00000  Uiso   1.00
C28    C     0.47170   0.13380  -0.08430   0.00000  Uiso   1.00
H29    H     0.43850   0.11580  -0.14610   0.00000  Uiso   1.00
C30    C     0.45570   0.17650   0.26600   0.00000  Uiso   1.00
H31    H     0.41010   0.19160   0.47770   0.00000  Uiso   1.00
C32    C     0.47810   0.15620   0.05870   0.00000  Uiso   1.00
H33    H     0.48900   0.11770  -0.24240   0.00000  Uiso   1.00
H34    H     0.46060   0.19330   0.38520   0.00000  Uiso   1.00
C35    C     0.12380   0.13790   0.03380   0.00000  Uiso   1.00
C36    C     0.09950   0.15900   0.22550   0.00000  Uiso   1.00
C37    C     0.11660   0.11890  -0.15030   0.00000  Uiso   1.00
C38    C     0.06910   0.16140   0.22930   0.00000  Uiso   1.00
H39    H     0.10500   0.17350   0.37020   0.00000  Uiso   1.00
C40    C     0.08630   0.12100  -0.14360   0.00000  Uiso   1.00
H41    H     0.13510   0.10240  -0.29870   0.00000  Uiso   1.00
C42    C     0.06180   0.14260   0.04290   0.00000  Uiso   1.00
H43    H     0.05060   0.17780   0.37850   0.00000  Uiso   1.00
H44    H     0.08110   0.10610  -0.28700   0.00000  Uiso   1.00
C45    C     0.02940   0.14450   0.04750   0.00000  Uiso   1.00
C46    C     0.00060   0.17380   0.06100   0.00000  Uiso   1.00
C47    C    -0.01330   0.63410  -0.01960   0.00000  Uiso   1.00
C48    C    -0.03690   0.62960  -0.16270   0.00000  Uiso   1.00
C49    C     0.00920   0.60890   0.15720   0.00000  Uiso   1.00
C50    C    -0.03720   0.60040  -0.13870   0.00000  Uiso   1.00
H51    H    -0.05470   0.64900  -0.29760   0.00000  Uiso   1.00
C52    C     0.00880   0.57980   0.18200   0.00000  Uiso   1.00
H53    H     0.02700   0.61220   0.27570   0.00000  Uiso   1.00
C54    C    -0.01410   0.57490   0.03230   0.00000  Uiso   1.00
H55    H    -0.05520   0.59700  -0.25350   0.00000  Uiso   1.00
H56    H     0.02650   0.56050   0.31830   0.00000  Uiso   1.00
C57    C    -0.01340   0.54370   0.05410   0.00000  Uiso   1.00
H58    H     0.00630   0.52480   0.18890   0.00000  Uiso   1.00
C59    C    -0.03250   0.50750  -0.05030   0.00000  Uiso   1.00
C60    C    -0.04110   0.49460  -0.28230   0.00000  Uiso   1.00
C61    C    -0.02410   0.49020   0.20840   0.00000  Uiso   1.00
C62    C    -0.04020   0.46480  -0.25940   0.00000  Uiso   1.00
H63    H    -0.04790   0.50780  -0.48220   0.00000  Uiso   1.00
C64    C    -0.02380   0.46070   0.23050   0.00000  Uiso   1.00
H65    H    -0.01840   0.50020   0.39290   0.00000  Uiso   1.00
C66    C    -0.03140   0.44720  -0.00300   0.00000  Uiso   1.00
H67    H    -0.04690   0.45540  -0.44190   0.00000  Uiso   1.00
H68    H    -0.01700   0.44770   0.43150   0.00000  Uiso   1.00
C69    C    -0.03020   0.41540   0.02090   0.00000  Uiso   1.00
C70    C    -0.02450   0.39540  -0.21900   0.00000  Uiso   1.00
C71    C    -0.03450   0.40390   0.28420   0.00000  Uiso   1.00
C72    C    -0.02260   0.36520  -0.19710   0.00000  Uiso   1.00
H73    H    -0.02110   0.40360  -0.42540   0.00000  Uiso   1.00
C74    C    -0.03320   0.37400   0.30750   0.00000  Uiso   1.00
H75    H    -0.03960   0.41900   0.47240   0.00000  Uiso   1.00
C76    C    -0.02650   0.35380   0.06810   0.00000  Uiso   1.00
H77    H    -0.01840   0.35050  -0.38630   0.00000  Uiso   1.00
H78    H    -0.03650   0.36560   0.51260   0.00000  Uiso   1.00
C79    C    -0.00620   0.29870  -0.05440   0.00000  Uiso   1.00
H80    H     0.01090   0.29970  -0.20990   0.00000  Uiso   1.00
C81    C    -0.00510   0.26730  -0.02900   0.00000  Uiso   1.00
C82    C    -0.02470   0.26260   0.16870   0.00000  Uiso   1.00
C83    C     0.01610   0.24080  -0.20170   0.00000  Uiso   1.00
C84    C    -0.02280   0.23250   0.19500   0.00000  Uiso   1.00
H85    H    -0.04130   0.28300   0.30170   0.00000  Uiso   1.00
C86    C     0.01810   0.21060  -0.17490   0.00000  Uiso   1.00
H87    H     0.03110   0.24410  -0.35830   0.00000  Uiso   1.00
C88    C    -0.00100   0.20580   0.02740   0.00000  Uiso   1.00
H89    H    -0.03800   0.22920   0.35010   0.00000  Uiso   1.00
H90    H     0.03440   0.19060  -0.31210   0.00000  Uiso   1.00
C91    C     0.03030   0.11270   0.04120   0.00000  Uiso   1.00
C92    C     0.00800   0.10800  -0.12160   0.00000  Uiso   1.00
C93    C     0.05430   0.08600   0.19630   0.00000  Uiso   1.00
C94    C     0.00880   0.07820  -0.12010   0.00000  Uiso   1.00
H95    H    -0.01010   0.12790  -0.25000   0.00000  Uiso   1.00
C96    C     0.05510   0.05620   0.19760   0.00000  Uiso   1.00
H97    H     0.07190   0.08910   0.32030   0.00000  Uiso   1.00
C98    C     0.03220   0.05190   0.04220   0.00000  Uiso   1.00
H99    H    -0.00870   0.07490  -0.24460   0.00000  Uiso   1.00
H100   H     0.07360   0.03600   0.32190   0.00000  Uiso   1.00
C101   C     0.03280   0.02060   0.05300   0.00000  Uiso   1.00
H102   H     0.05290   0.00100   0.17850   0.00000  Uiso   1.00
C103   C     0.01140  -0.01380  -0.04740   0.00000  Uiso   1.00
C104   C     0.02030  -0.03180   0.20790   0.00000  Uiso   1.00
C105   C     0.00060  -0.02520  -0.27580   0.00000  Uiso   1.00
C106   C     0.01900  -0.06040   0.23020   0.00000  Uiso   1.00
H107   H     0.02780  -0.02290   0.38980   0.00000  Uiso   1.00
C108   C    -0.00010  -0.05410  -0.25280   0.00000  Uiso   1.00
H109   H    -0.00660  -0.01140  -0.47290   0.00000  Uiso   1.00
C110   C     0.00910  -0.07240   0.00030   0.00000  Uiso   1.00
H111   H     0.02620  -0.07390   0.42860   0.00000  Uiso   1.00
H112   H    -0.00850  -0.06230  -0.43240   0.00000  Uiso   1.00
C113   C     0.00830  -0.10320   0.02400   0.00000  Uiso   1.00
C114   C     0.00430  -0.11470   0.28850   0.00000  Uiso   1.00
C115   C     0.01140  -0.12200  -0.21820   0.00000  Uiso   1.00
C116   C     0.00350  -0.14360   0.31060   0.00000  Uiso   1.00
H117   H     0.00120  -0.10040   0.47880   0.00000  Uiso   1.00
C118   C     0.01120  -0.15120  -0.19760   0.00000  Uiso   1.00
H119   H     0.01450  -0.11390  -0.42550   0.00000  Uiso   1.00
C120   C     0.00760  -0.16270   0.06840   0.00000  Uiso   1.00
H121   H     0.00040  -0.15200   0.51680   0.00000  Uiso   1.00
H122   H     0.01330  -0.16500  -0.38850   0.00000  Uiso   1.00
C123   C     0.02380  -0.21650  -0.06670   0.00000  Uiso   1.00
H124   H     0.04150  -0.21620  -0.22070   0.00000  Uiso   1.00
C125   C     0.02200  -0.24640  -0.06090   0.00000  Uiso   1.00
C126   C     0.00150  -0.25070   0.13010   0.00000  Uiso   1.00
C127   C     0.04090  -0.27180  -0.25180   0.00000  Uiso   1.00
C128   C    -0.00050  -0.27900   0.12620   0.00000  Uiso   1.00
H129   H    -0.01290  -0.23140   0.28120   0.00000  Uiso   1.00
C130   C     0.03890  -0.30020  -0.25580   0.00000  Uiso   1.00
H131   H     0.05700  -0.26900  -0.39900   0.00000  Uiso   1.00
C132   C     0.01770  -0.30400  -0.07050   0.00000  Uiso   1.00
H133   H    -0.01630  -0.28190   0.27650   0.00000  Uiso   1.00
H134   H     0.05340  -0.31940  -0.40680   0.00000  Uiso   1.00
C135   C     0.01580  -0.33450  -0.08130   0.00000  Uiso   1.00
C136   C    -0.01290  -0.33480  -0.05140   0.00000  Uiso   1.00
C137   C    -0.03120   0.17520   0.11070   0.00000  Uiso   1.00
C138   C    -0.05860   0.19600  -0.05440   0.00000  Uiso   1.00
C139   C    -0.03470   0.15640   0.32400   0.00000  Uiso   1.00
C140   C    -0.08810   0.19680  -0.01700   0.00000  Uiso   1.00
H141   H    -0.05630   0.21100  -0.21720   0.00000  Uiso   1.00
C142   C    -0.06430   0.15750   0.36410   0.00000  Uiso   1.00
H143   H    -0.01400   0.14080   0.45780   0.00000  Uiso   1.00
C144   C    -0.09140   0.17720   0.19120   0.00000  Uiso   1.00
H145   H    -0.10900   0.21230  -0.14950   0.00000  Uiso   1.00
H146   H    -0.06670   0.14260   0.52860   0.00000  Uiso   1.00
C147   C    -0.12190   0.17670   0.22500   0.00000  Uiso   1.00
H148   H    -0.12270   0.16170   0.40270   0.00000  Uiso   1.00
C149   C    -0.17470   0.18970   0.07700   0.00000  Uiso   1.00
C150   C    -0.17330   0.16040   0.16080   0.00000  Uiso   1.00
C151   C    -0.20500   0.21610  -0.00680   0.00000  Uiso   1.00
C152   C    -0.20140   0.15800   0.16280   0.00000  Uiso   1.00
H153   H    -0.15010   0.13930   0.21870   0.00000  Uiso   1.00
C154   C    -0.23300   0.21360  -0.00050   0.00000  Uiso   1.00
H155   H    -0.20640   0.23880  -0.07350   0.00000  Uiso   1.00
C156   C    -0.23190   0.18440   0.08310   0.00000  Uiso   1.00
H157   H    -0.19960   0.13510   0.22950   0.00000  Uiso   1.00
H158   H    -0.25600   0.23430  -0.06790   0.00000  Uiso   1.00
C159   C    -0.26160   0.18150   0.08210   0.00000  Uiso   1.00
C160   C    -0.25970   0.15090   0.05880   0.00000  Uiso   1.00
C161   C    -0.29290   0.20930   0.10410   0.00000  Uiso   1.00
C162   C    -0.28750   0.14800   0.05830   0.00000  Uiso   1.00
H163   H    -0.23590   0.12890   0.03900   0.00000  Uiso   1.00
C164   C    -0.32100   0.20680   0.09830   0.00000  Uiso   1.00
H165   H    -0.29540   0.23330   0.12920   0.00000  Uiso   1.00
C166   C    -0.31870   0.17600   0.07300   0.00000  Uiso   1.00
H167   H    -0.28540   0.12410   0.03800   0.00000  Uiso   1.00
H168   H    -0.34480   0.22860   0.12010   0.00000  Uiso   1.00
C169   C    -0.37280   0.19310  -0.05560   0.00000  Uiso   1.00
H170   H    -0.37380   0.21290  -0.18830   0.00000  Uiso   1.00
C171   C    -0.40280   0.19110  -0.04540   0.00000  Uiso   1.00
C172   C    -0.40510   0.16820   0.12900   0.00000  Uiso   1.00
C173   C    -0.43000   0.21240  -0.20920   0.00000  Uiso   1.00
C174   C    -0.43360   0.16650   0.13730   0.00000  Uiso   1.00
H175   H    -0.38430   0.15180   0.25880   0.00000  Uiso   1.00
C176   C    -0.45860   0.21080  -0.20110   0.00000  Uiso   1.00
H177   H    -0.42860   0.23040  -0.34420   0.00000  Uiso   1.00
C178   C    -0.46080   0.18760  -0.03000   0.00000  Uiso   1.00
H179   H    -0.43510   0.14900   0.27610   0.00000  Uiso   1.00
H180   H    -0.47930   0.22740  -0.33030   0.00000  Uiso   1.00
C181   C    -0.49170   0.18650  -0.01820   0.00000  Uiso   1.00
C182   C    -0.49190   0.15760  -0.00530   0.00000  Uiso   1.00
C183   C    -0.04530  -0.30460  -0.04860   0.00000  Uiso   1.00
C184   C    -0.05290  -0.27850  -0.23610   0.00000  Uiso   1.00
C185   C    -0.06970  -0.30180   0.13910   0.00000  Uiso   1.00
C186   C    -0.08330  -0.25040  -0.22890   0.00000  Uiso   1.00
H187   H    -0.03470  -0.28060  -0.38820   0.00000  Uiso   1.00
C188   C    -0.10020  -0.27370   0.14590   0.00000  Uiso   1.00
H189   H    -0.06440  -0.32180   0.28310   0.00000  Uiso   1.00
C190   C    -0.10740  -0.24730  -0.03570   0.00000  Uiso   1.00
H191   H    -0.08880  -0.23030  -0.37270   0.00000  Uiso   1.00
H192   H    -0.11860  -0.27180   0.29470   0.00000  Uiso   1.00
C193   C    -0.13920  -0.21740  -0.02010   0.00000  Uiso   1.00
H194   H    -0.15710  -0.21790   0.12970   0.00000  Uiso   1.00
C195   C    -0.17720  -0.16350  -0.14660   0.00000  Uiso   1.00
C196   C    -0.20590  -0.16560  -0.14370   0.00000  Uiso   1.00
C197   C    -0.18000  -0.13240  -0.14430   0.00000  Uiso   1.00
C198   C    -0.23630  -0.13740  -0.13370   0.00000  Uiso   1.00
H199   H    -0.20420  -0.18930  -0.15540   0.00000  Uiso   1.00
C200   C    -0.21050  -0.10440  -0.12870   0.00000  Uiso   1.00
H201   H    -0.15800  -0.13050  -0.14560   0.00000  Uiso   1.00
C202   C    -0.23940  -0.10620  -0.12310   0.00000  Uiso   1.00
H203   H    -0.25810  -0.13960  -0.13670   0.00000  Uiso   1.00
H204   H    -0.21190  -0.08080  -0.11830   0.00000  Uiso   1.00
C205   C    -0.27180  -0.07620  -0.10610   0.00000  Uiso   1.00
C206   C    -0.29900  -0.07710   0.00420   0.00000  Uiso   1.00
C207   C    -0.27630  -0.04580  -0.19450   0.00000  Uiso   1.00
C208   C    -0.32930  -0.04890   0.02770   0.00000  Uiso   1.00
H209   H    -0.29640  -0.10000   0.07900   0.00000  Uiso   1.00
C210   C    -0.30650  -0.01750  -0.17530   0.00000  Uiso   1.00
H211   H    -0.25580  -0.04420  -0.28180   0.00000  Uiso   1.00
C212   C    -0.33360  -0.01860  -0.06490   0.00000  Uiso   1.00
H213   H    -0.34990  -0.05010   0.11470   0.00000  Uiso   1.00
H214   H    -0.30900   0.00570  -0.24070   0.00000  Uiso   1.00
C215   C    -0.37410   0.03430  -0.19890   0.00000  Uiso   1.00
H216   H    -0.35980   0.03340  -0.38910   0.00000  Uiso   1.00
C217   C    -0.40460   0.06510  -0.15320   0.00000  Uiso   1.00
C218   C    -0.42590   0.06890   0.07120   0.00000  Uiso   1.00
C219   C    -0.41290   0.09190  -0.33290   0.00000  Uiso   1.00
C220   C    -0.45420   0.09860   0.11590   0.00000  Uiso   1.00
H221   H    -0.41980   0.04830   0.20970   0.00000  Uiso   1.00
C222   C    -0.44090   0.12170  -0.28560   0.00000  Uiso   1.00
H223   H    -0.39690   0.08920  -0.50930   0.00000  Uiso   1.00
C224   C    -0.46190   0.12570  -0.05790   0.00000  Uiso   1.00
H225   H    -0.47030   0.10120   0.29060   0.00000  Uiso   1.00
H226   H    -0.44690   0.14220  -0.42570   0.00000  Uiso   1.00
C227   C     0.04740  -0.36510  -0.12980   0.00000  Uiso   1.00
C228   C     0.07550  -0.37100   0.02080   0.00000  Uiso   1.00
C229   C     0.05000  -0.38840  -0.32970   0.00000  Uiso   1.00
C230   C     0.10490  -0.39990  -0.01750   0.00000  Uiso   1.00
H231   H     0.07400  -0.35310   0.17320   0.00000  Uiso   1.00
C232   C     0.07950  -0.41700  -0.37130   0.00000  Uiso   1.00
H233   H     0.02870  -0.38380  -0.45250   0.00000  Uiso   1.00
C234   C     0.10730  -0.42350  -0.21300   0.00000  Uiso   1.00
H235   H     0.12630  -0.40460   0.10390   0.00000  Uiso   1.00
H236   H     0.08110  -0.43480  -0.52590   0.00000  Uiso   1.00
C237   C     0.13770  -0.45460  -0.24930   0.00000  Uiso   1.00
H238   H     0.13760  -0.47090  -0.41810   0.00000  Uiso   1.00
C239   C     0.19130  -0.49370  -0.11710   0.00000  Uiso   1.00
C240   C     0.18970  -0.52190  -0.18600   0.00000  Uiso   1.00
C241   C     0.22200  -0.49720  -0.05210   0.00000  Uiso   1.00
C242   C     0.21780  -0.55230  -0.19210   0.00000  Uiso   1.00
H243   H     0.16620  -0.51990  -0.22920   0.00000  Uiso   1.00
C244   C     0.25000  -0.52770  -0.06240   0.00000  Uiso   1.00
H245   H     0.22360  -0.47580   0.00300   0.00000  Uiso   1.00
C246   C     0.24870  -0.55600  -0.13130   0.00000  Uiso   1.00
H247   H     0.21580  -0.57360  -0.24730   0.00000  Uiso   1.00
H248   H     0.27330  -0.52970  -0.00960   0.00000  Uiso   1.00
C249   C     0.27850  -0.58860  -0.13420   0.00000  Uiso   1.00
C250   C     0.27680  -0.61730  -0.09550   0.00000  Uiso   1.00
C251   C     0.30960  -0.59200  -0.17500   0.00000  Uiso   1.00
C252   C     0.30470  -0.64790  -0.09780   0.00000  Uiso   1.00
H253   H     0.25330  -0.61560  -0.06090   0.00000  Uiso   1.00
C254   C     0.33770  -0.62250  -0.17230   0.00000  Uiso   1.00
H255   H     0.31180  -0.57050  -0.21230   0.00000  Uiso   1.00
C256   C     0.33570  -0.65100  -0.13100   0.00000  Uiso   1.00
H257   H     0.30280  -0.66960  -0.06510   0.00000  Uiso   1.00
H258   H     0.36130  -0.62450  -0.20830   0.00000  Uiso   1.00
C259   C     0.39030  -0.68750  -0.01430   0.00000  Uiso   1.00
H260   H     0.39160  -0.66810   0.10740   0.00000  Uiso   1.00
C261   C     0.42020  -0.71940  -0.02060   0.00000  Uiso   1.00
C262   C     0.42220  -0.74550  -0.18150   0.00000  Uiso   1.00
C263   C     0.44770  -0.72470   0.13630   0.00000  Uiso   1.00
C264   C     0.45050  -0.77580  -0.18170   0.00000  Uiso   1.00
H265   H     0.40130  -0.74150  -0.30640   0.00000  Uiso   1.00
C266   C     0.47610  -0.75500   0.13650   0.00000  Uiso   1.00
H267   H     0.44660  -0.70470   0.26020   0.00000  Uiso   1.00
C268   C     0.47780  -0.78120  -0.01920   0.00000  Uiso   1.00
H269   H     0.45180  -0.79550  -0.30890   0.00000  Uiso   1.00
H270   H     0.49700  -0.75870   0.26120   0.00000  Uiso   1.00
N271   N     0.36360  -0.68240  -0.13590   0.00000  Uiso   1.00
N272   N     0.16320  -0.46260  -0.09250   0.00000  Uiso   1.00
N273   N    -0.14590  -0.19150  -0.16460   0.00000  Uiso   1.00
N274   N    -0.36430   0.00970  -0.02700   0.00000  Uiso   1.00
N275   N    -0.34650   0.17240   0.07760   0.00000  Uiso   1.00
N276   N     0.00620  -0.19170   0.09630   0.00000  Uiso   1.00
N277   N     0.01120   0.01600  -0.07610   0.00000  Uiso   1.00
N278   N    -0.14650   0.19270   0.05550   0.00000  Uiso   1.00
N279   N     0.16410   0.15150   0.19680   0.00000  Uiso   1.00
N280   N     0.38320   0.13350   0.09610   0.00000  Uiso   1.00
N281   N    -0.02550   0.32370   0.10080   0.00000  Uiso   1.00
N282   N    -0.03380   0.53780  -0.08160   0.00000  Uiso   1.00
loop_
_geom_bond_atom_site_label_1
_geom_bond_atom_site_label_2
_geom_bond_distance
_geom_bond_site_symmetry_2
_ccdc_geom_bond_type
C1     C2      1.409   .     D
C1     C6      1.411   .     S
C1     C7      1.476   .     S
C2     C3      1.390   .     S
C2     H13     1.091   .     S
C3     C4      1.406   .     D
C3     H14     1.089   .     S
C4     C5      1.410   .     S
C4     N280    1.414   .     S
C5     C6      1.390   .     D
C5     H15     1.086   .     S
C6     H16     1.084   .     S
C7     C8      1.414   .     D
C7     C12     1.407   .     S
C8     C9      1.392   .     S
C8     H17     1.086   .     S
C9     C10     1.409   .     D
C9     H18     1.086   .     S
C10    C11     1.409   .     S
C10    N279    1.411   .     S
C11    C12     1.390   .     D
C11    H19     1.089   .     S
C12    H20     1.091   .     S
C21    H23     1.111   .     S
C21    C25     1.464   .     S
C21    N280    1.297   .     D
C22    H24     1.112   .     S
C22    C35     1.463   .     S
C22    N279    1.300   .     D
C25    C26     1.408   .     D
C25    C27     1.409   .     S
C26    C28     1.388   .     S
C26    H29     1.082   .     S
C27    C30     1.390   .     D
C27    H31     1.088   .     S
C28    C32     1.411   .     D
C28    H33     1.087   .     S
C30    C32     1.408   .     S
C30    H34     1.089   .     S
C32    C182    1.485   1_655 S
C35    C36     1.410   .     S
C35    C37     1.408   .     D
C36    C38     1.385   .     D
C36    H39     1.087   .     S
C37    C40     1.387   .     S
C37    H41     1.087   .     S
C38    C42     1.411   .     S
C38    H43     1.088   .     S
C40    C42     1.406   .     D
C40    H44     1.090   .     S
C42    C45     1.490   .     S
C45    C46     1.376   .     D
C45    C91     1.483   .     S
C46    C88     1.485   .     S
C46    C137    1.491   .     S
C47    C48     1.409   .     S
C47    C49     1.407   .     D
C47    C136    1.488   1_565 S
C48    C50     1.393   .     D
C48    H51     1.087   .     S
C49    C52     1.391   .     S
C49    H53     1.085   .     S
C50    C54     1.407   .     S
C50    H55     1.087   .     S
C52    C54     1.406   .     D
C52    H56     1.087   .     S
C54    C57     1.463   .     S
C57    H58     1.113   .     S
C57    N282    1.299   .     D
C59    C60     1.408   .     D
C59    C61     1.411   .     S
C59    N282    1.411   .     S
C60    C62     1.393   .     S
C60    H63     1.087   .     S
C61    C64     1.392   .     D
C61    H65     1.087   .     S
C62    C66     1.407   .     D
C62    H67     1.086   .     S
C64    C66     1.407   .     S
C64    H68     1.087   .     S
C66    C69     1.481   .     S
C69    C70     1.412   .     S
C69    C71     1.410   .     D
C70    C72     1.389   .     D
C70    H73     1.089   .     S
C71    C74     1.389   .     S
C71    H75     1.088   .     S
C72    C76     1.410   .     S
C72    H77     1.087   .     S
C74    C76     1.409   .     D
C74    H78     1.086   .     S
C76    N281    1.409   .     S
C79    H80     1.110   .     S
C79    C81     1.465   .     S
C79    N281    1.299   .     D
C81    C82     1.409   .     D
C81    C83     1.408   .     S
C82    C84     1.386   .     S
C82    H85     1.088   .     S
C83    C86     1.389   .     D
C83    H87     1.088   .     S
C84    C88     1.407   .     D
C84    H89     1.090   .     S
C86    C88     1.408   .     S
C86    H90     1.086   .     S
C91    C92     1.409   .     D
C91    C93     1.408   .     S
C92    C94     1.391   .     S
C92    H95     1.086   .     S
C93    C96     1.391   .     D
C93    H97     1.086   .     S
C94    C98     1.407   .     D
C94    H99     1.088   .     S
C96    C98     1.404   .     S
C96    H100    1.089   .     S
C98    C101    1.467   .     S
C101   H102    1.110   .     S
C101   N277    1.298   .     D
C103   C104    1.412   .     D
C103   C105    1.410   .     S
C103   N277    1.411   .     S
C104   C106    1.388   .     S
C104   H107    1.090   .     S
C105   C108    1.388   .     D
C105   H109    1.088   .     S
C106   C110    1.408   .     D
C106   H111    1.087   .     S
C108   C110    1.409   .     S
C108   H112    1.086   .     S
C110   C113    1.480   .     S
C113   C114    1.411   .     D
C113   C115    1.410   .     S
C114   C116    1.390   .     S
C114   H117    1.089   .     S
C115   C118    1.389   .     D
C115   H119    1.086   .     S
C116   C120    1.408   .     D
C116   H121    1.088   .     S
H117   H119    0.778   1_556 S
C118   C120    1.411   .     S
C118   H122    1.087   .     S
H119   H117    0.778   1_554 S
C120   N276    1.412   .     S
H121   H122    0.758   1_556 S
H122   H121    0.758   1_554 S
C123   H124    1.114   .     S
C123   C125    1.459   .     S
C123   N276    1.298   .     D
C125   C126    1.411   .     D
C125   C127    1.407   .     S
C126   C128    1.388   .     S
C126   H129    1.088   .     S
C127   C130    1.393   .     D
C127   H131    1.087   .     S
C128   C132    1.408   .     D
C128   H133    1.087   .     S
C130   C132    1.408   .     S
C130   H134    1.086   .     S
C132   C135    1.490   .     S
C135   C136    1.372   .     D
C135   C227    1.489   .     S
C136   C47     1.488   1_545 S
C136   C183    1.483   .     S
C137   C138    1.406   .     D
C137   C139    1.406   .     S
C138   C140    1.388   .     S
C138   H141    1.087   .     S
C139   C142    1.388   .     D
C139   H143    1.086   .     S
C140   C144    1.411   .     D
C140   H145    1.086   .     S
C142   C144    1.407   .     S
C142   H146    1.091   .     S
C144   C147    1.464   .     S
C147   H148    1.111   .     S
C147   N278    1.298   .     D
C149   C150    1.410   .     D
C149   C151    1.407   .     S
C149   N278    1.414   .     S
C150   C152    1.390   .     S
C150   H153    1.086   .     S
C151   C154    1.388   .     D
C151   H155    1.088   .     S
C152   C156    1.407   .     D
C152   H157    1.089   .     S
C154   C156    1.412   .     S
C154   H158    1.085   .     S
C156   C159    1.478   .     S
C159   C160    1.409   .     D
C159   C161    1.409   .     S
C160   C162    1.389   .     S
C160   H163    1.090   .     S
C161   C164    1.393   .     D
C161   H165    1.087   .     S
C162   C166    1.408   .     D
C162   H167    1.088   .     S
C164   C166    1.411   .     S
C164   H168    1.086   .     S
C166   N275    1.408   .     S
C169   H170    1.107   .     S
C169   C171    1.470   .     S
C169   N275    1.297   .     D
C171   C172    1.407   .     S
C171   C173    1.404   .     D
C172   C174    1.391   .     D
C172   H175    1.087   .     S
C173   C176    1.393   .     S
C173   H177    1.091   .     S
C174   C178    1.410   .     S
C174   H179    1.085   .     S
C176   C178    1.407   .     D
C176   H180    1.085   .     S
C178   C181    1.490   .     S
C181   C182    1.373   .     D
C181   C268    1.487   1_465 S
C182   C32     1.485   1_455 S
C182   C224    1.487   .     S
C183   C184    1.411   .     D
C183   C185    1.407   .     S
C184   C186    1.387   .     S
C184   H187    1.086   .     S
C185   C188    1.390   .     D
C185   H189    1.087   .     S
C186   C190    1.409   .     D
C186   H191    1.088   .     S
C188   C190    1.408   .     S
C188   H192    1.086   .     S
C190   C193    1.463   .     S
C193   H194    1.112   .     S
C193   N273    1.295   .     D
C195   C196    1.410   .     S
C195   C197    1.409   .     D
C195   N273    1.411   .     S
C196   C198    1.390   .     D
C196   H199    1.084   .     S
C197   C200    1.389   .     S
C197   H201    1.089   .     S
C198   C202    1.409   .     S
C198   H203    1.087   .     S
C200   C202    1.412   .     D
C200   H204    1.086   .     S
C202   C205    1.481   .     S
C205   C206    1.408   .     S
C205   C207    1.407   .     D
C206   C208    1.391   .     D
C206   H209    1.086   .     S
C207   C210    1.389   .     S
C207   H211    1.091   .     S
C208   C212    1.412   .     S
C208   H213    1.085   .     S
C210   C212    1.409   .     D
C210   H214    1.088   .     S
C212   N274    1.410   .     S
C215   H216    1.112   .     S
C215   C217    1.466   .     S
C215   N274    1.298   .     D
C217   C218    1.410   .     D
C217   C219    1.407   .     S
C218   C220    1.389   .     S
C218   H221    1.085   .     S
C219   C222    1.387   .     D
C219   H223    1.089   .     S
C220   C224    1.407   .     D
C220   H225    1.087   .     S
C222   C224    1.410   .     S
C222   H226    1.087   .     S
C227   C228    1.406   .     D
C227   C229    1.408   .     S
C228   C230    1.391   .     S
C228   H231    1.086   .     S
C229   C232    1.388   .     D
C229   H233    1.086   .     S
C230   C234    1.408   .     D
C230   H235    1.085   .     S
C232   C234    1.406   .     S
C232   H236    1.087   .     S
C234   C237    1.465   .     S
C237   H238    1.110   .     S
C237   N272    1.299   .     D
C239   C240    1.411   .     S
C239   C241    1.411   .     D
C239   N272    1.410   .     S
C240   C242    1.387   .     D
C240   H243    1.087   .     S
C241   C244    1.388   .     S
C241   H245    1.084   .     S
C242   C246    1.412   .     S
C242   H247    1.090   .     S
C244   C246    1.408   .     D
C244   H248    1.087   .     S
C246   C249    1.480   .     S
C249   C250    1.411   .     D
C249   C251    1.411   .     S
C250   C252    1.388   .     S
C250   H253    1.086   .     S
C251   C254    1.389   .     D
C251   H255    1.087   .     S
C252   C256    1.408   .     D
C252   H257    1.085   .     S
C254   C256    1.411   .     S
C254   H258    1.086   .     S
C256   N271    1.410   .     S
C259   H260    1.110   .     S
C259   C261    1.464   .     S
C259   N271    1.295   .     D
C261   C262    1.411   .     D
C261   C263    1.406   .     S
C262   C264    1.388   .     S
C262   H265    1.083   .     S
C263   C266    1.390   .     D
C263   H267    1.091   .     S
C264   C268    1.411   .     D
C264   H269    1.084   .     S
C266   C268    1.408   .     S
C266   H270    1.087   .     S
C268   C181    1.487   1_645 S
