data_242
_audit_creation_date              2023-09-08
_audit_creation_method            'Materials Studio'
_symmetry_space_group_name_H-M    'P1'
_symmetry_Int_Tables_number       1
_symmetry_cell_setting            triclinic
loop_
_symmetry_equiv_pos_as_xyz
  x,y,z
_cell_length_a                    26.4400
_cell_length_b                    26.4400
_cell_length_c                    3.4400
_cell_angle_alpha                 90.0000
_cell_angle_beta                  90.0000
_cell_angle_gamma                 120.0000
loop_
_atom_site_label
_atom_site_type_symbol
_atom_site_fract_x
_atom_site_fract_y
_atom_site_fract_z
_atom_site_U_iso_or_equiv
_atom_site_adp_type
_atom_site_occupancy
C1     C     0.24342   0.80619   0.50000   0.00000  Uiso   1.00
C2     C     0.19381   0.43723   0.50000   0.00000  Uiso   1.00
C3     C     0.56277   0.75658   0.50000   0.00000  Uiso   1.00
C4     C     0.27941   0.78161   0.50000   0.00000  Uiso   1.00
C5     C     0.21839   0.49780   0.50000   0.00000  Uiso   1.00
C6     C     0.50220   0.72059   0.50000   0.00000  Uiso   1.00
C7     C     0.25643   0.71974   0.50000   0.00000  Uiso   1.00
C8     C     0.28026   0.53669   0.50000   0.00000  Uiso   1.00
C9     C     0.46331   0.74357   0.50000   0.00000  Uiso   1.00
C10    C     0.19379   0.68549   0.50000   0.00000  Uiso   1.00
C11    C     0.31451   0.50829   0.50000   0.00000  Uiso   1.00
C12    C     0.49171   0.80621   0.50000   0.00000  Uiso   1.00
C13    C     0.15839   0.71114   0.50000   0.00000  Uiso   1.00
C14    C     0.28886   0.44725   0.50000   0.00000  Uiso   1.00
C15    C     0.55275   0.84161   0.50000   0.00000  Uiso   1.00
C16    C     0.18332   0.77139   0.50000   0.00000  Uiso   1.00
C17    C     0.22861   0.41192   0.50000   0.00000  Uiso   1.00
C18    C     0.58808   0.81668   0.50000   0.00000  Uiso   1.00
C19    C     0.29633   0.69225   0.50000   0.00000  Uiso   1.00
C20    C     0.30775   0.60408   0.50000   0.00000  Uiso   1.00
C21    C     0.39592   0.70367   0.50000   0.00000  Uiso   1.00
C22    C     0.27353   0.63135   0.50000   0.00000  Uiso   1.00
C23    C     0.36865   0.64218   0.50000   0.00000  Uiso   1.00
C24    C     0.35782   0.72647   0.50000   0.00000  Uiso   1.00
N25    N     0.65031   0.84961   0.50000   0.00000  Uiso   1.00
N26    N     0.15039   0.80070   0.50000   0.00000  Uiso   1.00
N27    N     0.19930   0.34969   0.50000   0.00000  Uiso   1.00
C28    C     0.11439   0.23117   0.50000   0.00000  Uiso   1.00
C29    C     0.76883   0.88322   0.50000   0.00000  Uiso   1.00
C30    C     0.11678   0.88561   0.50000   0.00000  Uiso   1.00
C31    C     0.07303   0.17168   0.50000   0.00000  Uiso   1.00
C32    C     0.82832   0.90135   0.50000   0.00000  Uiso   1.00
C33    C     0.09865   0.92697   0.50000   0.00000  Uiso   1.00
C34    C     0.08908   0.12743   0.50000   0.00000  Uiso   1.00
C35    C     0.87257   0.96165   0.50000   0.00000  Uiso   1.00
C36    C     0.03835   0.91092   0.50000   0.00000  Uiso   1.00
C37    C     0.15098   0.14922   0.50000   0.00000  Uiso   1.00
C38    C     0.85078   0.00176   0.50000   0.00000  Uiso   1.00
C39    C     0.99824   0.84902   0.50000   0.00000  Uiso   1.00
C40    C     0.19190   0.20938   0.50000   0.00000  Uiso   1.00
C41    C     0.79062   0.98252   0.50000   0.00000  Uiso   1.00
C42    C     0.01748   0.80810   0.50000   0.00000  Uiso   1.00
C43    C     0.17410   0.25034   0.50000   0.00000  Uiso   1.00
C44    C     0.74966   0.92375   0.50000   0.00000  Uiso   1.00
C45    C     0.07625   0.82591   0.50000   0.00000  Uiso   1.00
C46    C     0.04283   0.06137   0.50000   0.00000  Uiso   1.00
C47    C     0.93863   0.98145   0.50000   0.00000  Uiso   1.00
C48    C     0.01855   0.95717   0.50000   0.00000  Uiso   1.00
C49    C     0.98218   0.04083   0.50000   0.00000  Uiso   1.00
C50    C     0.95917   0.94135   0.50000   0.00000  Uiso   1.00
C51    C     0.05865   0.01782   0.50000   0.00000  Uiso   1.00
C52    C     0.09485   0.78185   0.50000   0.00000  Uiso   1.00
C53    C     0.21815   0.31300   0.50000   0.00000  Uiso   1.00
C54    C     0.68700   0.90515   0.50000   0.00000  Uiso   1.00
F55    F     0.26716   0.86491   0.50000   0.00000  Uiso   1.00
F56    F     0.13509   0.40225   0.50000   0.00000  Uiso   1.00
F57    F     0.59775   0.73284   0.50000   0.00000  Uiso   1.00
F58    F     0.33659   0.82032   0.50000   0.00000  Uiso   1.00
F59    F     0.17968   0.51628   0.50000   0.00000  Uiso   1.00
F60    F     0.48372   0.66341   0.50000   0.00000  Uiso   1.00
F61    F     0.16480   0.62709   0.50000   0.00000  Uiso   1.00
F62    F     0.37291   0.53770   0.50000   0.00000  Uiso   1.00
F63    F     0.46230   0.83521   0.50000   0.00000  Uiso   1.00
F64    F     0.09966   0.67733   0.50000   0.00000  Uiso   1.00
F65    F     0.32267   0.42233   0.50000   0.00000  Uiso   1.00
F66    F     0.57767   0.90034   0.50000   0.00000  Uiso   1.00
H67    H     0.22869   0.60507   0.50000   0.00000  Uiso   1.00
H68    H     0.39493   0.62362   0.50000   0.00000  Uiso   1.00
H69    H     0.37638   0.77131   0.50000   0.00000  Uiso   1.00
F70    F     0.09552   0.27012   0.50000   0.00000  Uiso   1.00
F71    F     0.72988   0.82539   0.50000   0.00000  Uiso   1.00
F72    F     0.17461   0.90448   0.50000   0.00000  Uiso   1.00
F73    F     0.01754   0.15967   0.50000   0.00000  Uiso   1.00
F74    F     0.84033   0.85787   0.50000   0.00000  Uiso   1.00
F75    F     0.14213   0.98246   0.50000   0.00000  Uiso   1.00
F76    F     0.17389   0.11413   0.50000   0.00000  Uiso   1.00
F77    F     0.88587   0.05976   0.50000   0.00000  Uiso   1.00
F78    F     0.94024   0.82611   0.50000   0.00000  Uiso   1.00
F79    F     0.24991   0.22909   0.50000   0.00000  Uiso   1.00
F80    F     0.77091   0.02081   0.50000   0.00000  Uiso   1.00
F81    F     0.97919   0.75009   0.50000   0.00000  Uiso   1.00
H82    H     0.96833   0.07104   0.50000   0.00000  Uiso   1.00
H83    H     0.92896   0.89729   0.50000   0.00000  Uiso   1.00
H84    H     0.10271   0.03167   0.50000   0.00000  Uiso   1.00
H85    H     0.06227   0.73546   0.50000   0.00000  Uiso   1.00
H86    H     0.26454   0.32682   0.50000   0.00000  Uiso   1.00
H87    H     0.67318   0.93773   0.50000   0.00000  Uiso   1.00
loop_
_geom_bond_atom_site_label_1
_geom_bond_atom_site_label_2
_geom_bond_distance
_geom_bond_site_symmetry_2
_ccdc_geom_bond_type
C1     C4      1.395   .     S
C1     C16     1.382   .     D
C1     F55     1.353   .     S
C2     C5      1.395   .     S
C2     C17     1.382   .     D
C2     F56     1.353   .     S
C3     C6      1.395   .     D
C3     C18     1.382   .     S
C3     F57     1.353   .     S
C4     C7      1.432   .     D
C4     F58     1.336   .     S
C5     C8      1.432   .     D
C5     F59     1.336   .     S
C6     C9      1.432   .     S
C6     F60     1.336   .     S
C7     C10     1.436   .     S
C7     C19     1.552   .     S
C8     C11     1.436   .     S
C8     C20     1.552   .     S
C9     C12     1.436   .     D
C9     C21     1.552   .     S
C10    C13     1.404   .     D
C10    F61     1.337   .     S
C11    C14     1.404   .     D
C11    F62     1.337   .     S
C12    C15     1.404   .     S
C12    F63     1.337   .     S
C13    C16     1.386   .     S
C13    F64     1.350   .     S
C14    C17     1.386   .     S
C14    F65     1.350   .     S
C15    C18     1.386   .     D
C15    F66     1.350   .     S
C16    N26     1.426   .     S
C17    N27     1.426   .     S
C18    N25     1.426   .     S
C19    C22     1.409   .     D
C19    C24     1.411   .     S
C20    C22     1.411   .     S
C20    C23     1.409   .     D
C21    C23     1.411   .     S
C21    C24     1.409   .     D
C22    H67     1.032   .     S
C23    H68     1.032   .     S
C24    H69     1.032   .     S
N25    C54     1.293   .     D
N26    C52     1.293   .     D
N27    C53     1.293   .     D
C28    C31     1.396   .     S
C28    C43     1.396   .     D
C28    F70     1.350   .     S
C29    C32     1.396   .     D
C29    C44     1.396   .     S
C29    F71     1.350   .     S
C30    C33     1.396   .     S
C30    C45     1.396   .     D
C30    F72     1.350   .     S
C31    C34     1.430   .     D
C31    F73     1.337   .     S
C32    C35     1.430   .     S
C32    F74     1.337   .     S
C33    C36     1.430   .     D
C33    F75     1.337   .     S
C34    C37     1.438   .     S
C34    C46     1.553   .     S
C35    C38     1.438   1_565 D
C35    C47     1.553   .     S
C36    C39     1.438   1_455 S
C36    C48     1.553   .     S
C37    C40     1.407   .     D
C37    F76     1.338   .     S
C38    C35     1.438   1_545 D
C38    C41     1.407   1_545 S
C38    F77     1.338   .     S
C39    C36     1.438   1_655 S
C39    C42     1.407   1_655 D
C39    F78     1.338   .     S
C40    C43     1.380   .     S
C40    F79     1.351   .     S
C41    C38     1.407   1_565 S
C41    C44     1.380   .     D
C41    F80     1.351   1_565 S
C42    C39     1.407   1_455 D
C42    C45     1.380   .     S
C42    F81     1.351   1_455 S
C43    C53     1.474   .     S
C44    C54     1.474   .     S
C45    C52     1.474   .     S
C46    C49     1.413   1_455 S
C46    C51     1.408   .     D
C47    C49     1.408   1_565 D
C47    C50     1.413   .     S
C48    C50     1.408   1_455 D
C48    C51     1.413   1_565 S
C49    C46     1.413   1_655 S
C49    C47     1.408   1_545 D
C49    H82     1.032   .     S
C50    C48     1.408   1_655 D
C50    H83     1.032   .     S
C51    C48     1.413   1_545 S
C51    H84     1.032   .     S
C52    H85     1.091   .     S
C53    H86     1.091   .     S
C54    H87     1.091   .     S
F80    C41     1.351   1_545 S
F81    C42     1.351   1_655 S
