data_243
_audit_creation_date              2023-09-08
_audit_creation_method            'Materials Studio'
_symmetry_space_group_name_H-M    'P1'
_symmetry_Int_Tables_number       1
_symmetry_cell_setting            triclinic
loop_
_symmetry_equiv_pos_as_xyz
  x,y,z
_cell_length_a                    28.4382
_cell_length_b                    28.4382
_cell_length_c                    3.4852
_cell_angle_alpha                 90.0000
_cell_angle_beta                  90.0000
_cell_angle_gamma                 120.0000
loop_
_atom_site_label
_atom_site_type_symbol
_atom_site_fract_x
_atom_site_fract_y
_atom_site_fract_z
_atom_site_U_iso_or_equiv
_atom_site_adp_type
_atom_site_occupancy
N1     N     0.42603   0.61103  -0.36943   0.00000  Uiso   1.00
N2     N     0.61103   0.42603   0.36943   0.00000  Uiso   1.00
N3     N     0.38896   0.81499  -0.36944   0.00000  Uiso   1.00
N4     N     0.57397   0.18500   0.36943   0.00000  Uiso   1.00
N5     N     0.18501   0.57397  -0.36942   0.00000  Uiso   1.00
N6     N     0.81500   0.38897   0.36944   0.00000  Uiso   1.00
C7     C     0.32873   0.61527  -0.49124   0.00000  Uiso   1.00
C8     C     0.71346   0.38474   0.49124   0.00000  Uiso   1.00
C9     C     0.38473   0.71346  -0.49125   0.00000  Uiso   1.00
C10    C     0.61526   0.32873   0.49123   0.00000  Uiso   1.00
C11    C     0.28653   0.67127  -0.49125   0.00000  Uiso   1.00
C12    C     0.67127   0.28654   0.49123   0.00000  Uiso   1.00
C13    C     0.42855   0.65854  -0.45739   0.00000  Uiso   1.00
C14    C     0.65853   0.42855   0.45739   0.00000  Uiso   1.00
C15    C     0.34146   0.77001  -0.45739   0.00000  Uiso   1.00
C16    C     0.57145   0.22998   0.45737   0.00000  Uiso   1.00
C17    C     0.22998   0.57145  -0.45738   0.00000  Uiso   1.00
C18    C     0.77002   0.34147   0.45739   0.00000  Uiso   1.00
C19    C     0.46517   0.59887  -0.28692   0.00000  Uiso   1.00
C20    C     0.59887   0.46517   0.28692   0.00000  Uiso   1.00
C21    C     0.40112   0.86630  -0.28692   0.00000  Uiso   1.00
C22    C     0.53483   0.13370   0.28691   0.00000  Uiso   1.00
C23    C     0.13370   0.53483  -0.28690   0.00000  Uiso   1.00
C24    C     0.86630   0.40113   0.28693   0.00000  Uiso   1.00
C25    C     0.52131   0.63746  -0.25311   0.00000  Uiso   1.00
C26    C     0.54351   0.44693   0.21677   0.00000  Uiso   1.00
C27    C     0.36254   0.88385  -0.25311   0.00000  Uiso   1.00
C28    C     0.55307   0.09658   0.21675   0.00000  Uiso   1.00
C29    C     0.11615   0.47869  -0.25307   0.00000  Uiso   1.00
C30    C     0.90342   0.45649   0.21677   0.00000  Uiso   1.00
C31    C     0.55889   0.62133  -0.14230   0.00000  Uiso   1.00
C32    C     0.52752   0.48432   0.10475   0.00000  Uiso   1.00
C33    C     0.37867   0.93756  -0.14229   0.00000  Uiso   1.00
C34    C     0.51568   0.04320   0.10474   0.00000  Uiso   1.00
C35    C     0.06244   0.44111  -0.14226   0.00000  Uiso   1.00
C36    C     0.95680   0.47248   0.10475   0.00000  Uiso   1.00
C37    C     0.53935   0.56610  -0.06304   0.00000  Uiso   1.00
C38    C     0.56610   0.53935   0.06304   0.00000  Uiso   1.00
C39    C     0.43389   0.97324  -0.06305   0.00000  Uiso   1.00
C40    C     0.46065   0.02676   0.06304   0.00000  Uiso   1.00
C41    C     0.02676   0.46065  -0.06302   0.00000  Uiso   1.00
C42    C     0.97324   0.43390   0.06306   0.00000  Uiso   1.00
C43    C     0.48432   0.52753  -0.10475   0.00000  Uiso   1.00
C44    C     0.62133   0.55889   0.14229   0.00000  Uiso   1.00
C45    C     0.47247   0.95679  -0.10476   0.00000  Uiso   1.00
C46    C     0.44111   0.06244   0.14229   0.00000  Uiso   1.00
C47    C     0.04321   0.51568  -0.10475   0.00000  Uiso   1.00
C48    C     0.93756   0.37867   0.14233   0.00000  Uiso   1.00
C49    C     0.44693   0.54351  -0.21677   0.00000  Uiso   1.00
C50    C     0.63746   0.52131   0.25310   0.00000  Uiso   1.00
C51    C     0.45649   0.90342  -0.21678   0.00000  Uiso   1.00
C52    C     0.47869   0.11615   0.25310   0.00000  Uiso   1.00
C53    C     0.09658   0.55307  -0.21677   0.00000  Uiso   1.00
C54    C     0.88385   0.36254   0.25314   0.00000  Uiso   1.00
C55    C     0.38096   0.66203  -0.48650   0.00000  Uiso   1.00
C56    C     0.66202   0.38096   0.48649   0.00000  Uiso   1.00
C57    C     0.33797   0.71894  -0.48651   0.00000  Uiso   1.00
C58    C     0.61904   0.28106   0.48648   0.00000  Uiso   1.00
C59    C     0.28106   0.61904  -0.48650   0.00000  Uiso   1.00
C60    C     0.71894   0.33798   0.48649   0.00000  Uiso   1.00
H61    H     0.32544   0.57774  -0.49028   0.00000  Uiso   1.00
H62    H     0.74769   0.42226   0.49027   0.00000  Uiso   1.00
H63    H     0.42226   0.74770  -0.49029   0.00000  Uiso   1.00
H64    H     0.57774   0.32544   0.49026   0.00000  Uiso   1.00
H65    H     0.25230   0.67455  -0.49028   0.00000  Uiso   1.00
H66    H     0.67456   0.25230   0.49026   0.00000  Uiso   1.00
H67    H     0.46550   0.69293  -0.48875   0.00000  Uiso   1.00
H68    H     0.69292   0.46550   0.48876   0.00000  Uiso   1.00
H69    H     0.30707   0.77257  -0.48876   0.00000  Uiso   1.00
H70    H     0.53450   0.22743   0.48873   0.00000  Uiso   1.00
H71    H     0.22743   0.53450  -0.48874   0.00000  Uiso   1.00
H72    H     0.77257   0.30708   0.48875   0.00000  Uiso   1.00
H73    H     0.89153   0.48483   0.24078   0.00000  Uiso   1.00
H74    H     0.14236   0.46480  -0.30528   0.00000  Uiso   1.00
H75    H     0.51517   0.40670   0.24079   0.00000  Uiso   1.00
H76    H     0.53520   0.67755  -0.30533   0.00000  Uiso   1.00
H77    H     0.59329   0.10847   0.24077   0.00000  Uiso   1.00
H78    H     0.32245   0.85764  -0.30532   0.00000  Uiso   1.00
H79    H     0.85765   0.32245   0.30537   0.00000  Uiso   1.00
H80    H     0.10847   0.59330  -0.24082   0.00000  Uiso   1.00
H81    H     0.67755   0.53520   0.30532   0.00000  Uiso   1.00
H82    H     0.40670   0.51517  -0.24080   0.00000  Uiso   1.00
H83    H     0.46480   0.14235   0.30532   0.00000  Uiso   1.00
H84    H     0.48483   0.89153  -0.24082   0.00000  Uiso   1.00
H85    H     0.54259  -0.01487   0.22428   0.00000  Uiso   1.00
H86    H     1.01487   0.55746   0.22429   0.00000  Uiso   1.00
H87    H     0.44254   0.45741   0.22431   0.00000  Uiso   1.00
H88    H     0.55746   0.01486  -0.22431   0.00000  Uiso   1.00
H89    H     0.98514   0.54259  -0.22431   0.00000  Uiso   1.00
H90    H     0.45740   0.44254  -0.22429   0.00000  Uiso   1.00
C91    C     0.52742  -0.00000  -0.00001   0.00000  Uiso   1.00
H92    H     0.59923   0.64924  -0.11627   0.00000  Uiso   1.00
H93    H     0.64924   0.59923   0.11627   0.00000  Uiso   1.00
C94    C     1.00000   0.52742  -0.00001   0.00000  Uiso   1.00
H95    H     0.35076   0.94999  -0.11627   0.00000  Uiso   1.00
H96    H     0.40077   0.05001   0.11627   0.00000  Uiso   1.00
C97    C     0.47258   0.47258   0.00001   0.00000  Uiso   1.00
H98    H     0.05001   0.40077  -0.11622   0.00000  Uiso   1.00
H99    H     0.94999   0.35076   0.11632   0.00000  Uiso   1.00
loop_
_geom_bond_atom_site_label_1
_geom_bond_atom_site_label_2
_geom_bond_distance
_geom_bond_site_symmetry_2
_ccdc_geom_bond_type
N1     C13     1.352   .     D
N1     C19     1.351   .     S
N2     C14     1.352   .     D
N2     C20     1.351   .     S
N3     C15     1.352   .     D
N3     C21     1.351   .     S
N4     C16     1.352   .     D
N4     C22     1.351   .     S
N5     C17     1.352   .     D
N5     C23     1.351   .     S
N6     C18     1.352   .     D
N6     C24     1.351   .     S
C7     C55     1.414   .     D
C7     C59     1.412   .     S
C7     H61     1.024   .     S
C8     C56     1.412   .     S
C8     C60     1.414   .     D
C8     H62     1.024   .     S
C9     C55     1.412   .     S
C9     C57     1.414   .     D
C9     H63     1.024   .     S
C10    C56     1.414   .     D
C10    C58     1.412   .     S
C10    H64     1.024   .     S
C11    C57     1.412   .     S
C11    C59     1.414   .     D
C11    H65     1.024   .     S
C12    C58     1.414   .     D
C12    C60     1.412   .     S
C12    H66     1.024   .     S
C13    C55     1.409   .     S
C13    H67     1.022   .     S
C14    C56     1.409   .     S
C14    H68     1.022   .     S
C15    C57     1.409   .     S
C15    H69     1.022   .     S
C16    C58     1.409   .     S
C16    H70     1.022   .     S
C17    C59     1.409   .     S
C17    H71     1.022   .     S
C18    C60     1.409   .     S
C18    H72     1.022   .     S
C19    C25     1.419   .     D
C19    C49     1.411   .     S
C20    C26     1.411   .     D
C20    C50     1.419   .     S
C21    C27     1.419   .     D
C21    C51     1.411   .     S
C22    C28     1.411   .     D
C22    C52     1.419   .     S
C23    C29     1.419   .     S
C23    C53     1.411   .     D
C24    C30     1.411   .     S
C24    C54     1.419   .     D
C25    C31     1.411   .     S
C25    H76     1.019   .     S
C26    C32     1.405   .     S
C26    H75     1.021   .     S
C27    C33     1.411   .     S
C27    H78     1.019   .     S
C28    C34     1.405   .     S
C28    H77     1.021   .     S
C29    C35     1.411   .     D
C29    H74     1.019   .     S
C30    C36     1.405   .     D
C30    H73     1.021   .     S
C31    C37     1.407   .     D
C31    H92     1.022   .     S
C32    C38     1.399   .     D
C32    C97     1.471   .     S
C33    C39     1.407   .     D
C33    H95     1.022   .     S
C34    C40     1.399   .     D
C34    C91     1.471   .     S
C35    C41     1.407   .     S
C35    H98     1.022   .     S
C36    C42     1.399   .     S
C36    C94     1.471   .     S
C37    C38     1.389   .     S
C37    C43     1.399   .     S
C38    C44     1.407   .     S
C39    C40     1.389   1_565 S
C39    C45     1.399   .     S
C40    C39     1.389   1_545 S
C40    C46     1.407   .     S
C41    C42     1.389   1_455 S
C41    C47     1.399   .     D
C42    C41     1.389   1_655 S
C42    C48     1.407   .     D
C43    C49     1.405   .     D
C43    C97     1.471   .     S
C44    C50     1.411   .     D
C44    H93     1.022   .     S
C45    C51     1.405   .     D
C45    C91     1.471   1_565 S
C46    C52     1.411   .     D
C46    H96     1.022   .     S
C47    C53     1.405   .     S
C47    C94     1.471   1_455 S
C48    C54     1.411   .     S
C48    H99     1.022   .     S
C49    H82     1.021   .     S
C50    H81     1.019   .     S
C51    H84     1.021   .     S
C52    H83     1.019   .     S
C53    H80     1.021   .     S
C54    H79     1.019   .     S
H85    C91     1.076   .     S
H86    C94     1.076   .     S
H87    C97     1.076   .     S
H88    C91     1.076   .     S
H89    C94     1.076   .     S
H90    C97     1.076   .     S
C91    C45     1.471   1_545 S
C94    C47     1.471   1_655 S
