data_244
_audit_creation_date              2023-09-08
_audit_creation_method            'Materials Studio'
_symmetry_space_group_name_H-M    'P1'
_symmetry_Int_Tables_number       1
_symmetry_cell_setting            triclinic
loop_
_symmetry_equiv_pos_as_xyz
  x,y,z
_cell_length_a                    43.7554
_cell_length_b                    43.7554
_cell_length_c                    3.8921
_cell_angle_alpha                 90.0000
_cell_angle_beta                  90.0000
_cell_angle_gamma                 120.0000
loop_
_atom_site_label
_atom_site_type_symbol
_atom_site_fract_x
_atom_site_fract_y
_atom_site_fract_z
_atom_site_U_iso_or_equiv
_atom_site_adp_type
_atom_site_occupancy
C1     C     0.43928   0.52419  -0.43730   0.00000  Uiso   1.00
C2     C     0.42635   0.54708  -0.49516   0.00000  Uiso   1.00
H3     H     0.46456   0.53091  -0.54721   0.00000  Uiso   1.00
H4     H     0.44193   0.57068  -0.64666   0.00000  Uiso   1.00
C5     C     0.48663   0.38778   0.09667   0.00000  Uiso   1.00
C6     C     0.50846   0.37381   0.17108   0.00000  Uiso   1.00
H7     H     0.46500   0.37360  -0.07889   0.00000  Uiso   1.00
H8     H     0.50233   0.34865   0.06073   0.00000  Uiso   1.00
C9     C     0.52419   0.43928   0.43730   0.00000  Uiso   1.00
C10    C     0.54708   0.42635   0.49516   0.00000  Uiso   1.00
H11    H     0.53091   0.46456   0.54721   0.00000  Uiso   1.00
H12    H     0.57068   0.44193   0.64666   0.00000  Uiso   1.00
C13    C     0.38778   0.48663  -0.09667   0.00000  Uiso   1.00
C14    C     0.37381   0.50846  -0.17108   0.00000  Uiso   1.00
H15    H     0.37360   0.46500   0.07889   0.00000  Uiso   1.00
H16    H     0.34865   0.50233  -0.06073   0.00000  Uiso   1.00
H17    H     0.51905   0.48913   0.09341   0.00000  Uiso   1.00
H18    H     0.48913   0.51905  -0.09341   0.00000  Uiso   1.00
C19    C     0.49075   0.47347   0.06111   0.00000  Uiso   1.00
C20    C     0.47347   0.49075  -0.06110   0.00000  Uiso   1.00
C21    C     0.43706   0.47249  -0.13309   0.00000  Uiso   1.00
C22    C     0.42028   0.49357  -0.23590   0.00000  Uiso   1.00
C23    C     0.39344   0.53919  -0.36466   0.00000  Uiso   1.00
B24    B     0.37976   0.56545  -0.42349   0.00000  Uiso   1.00
C25    C     0.35330   0.40747  -0.31302   0.00000  Uiso   1.00
C26    C     0.32056   0.37576  -0.31894   0.00000  Uiso   1.00
C27    C     0.31659   0.34495  -0.16006   0.00000  Uiso   1.00
C28    C     0.34576   0.34576   0.00000   0.00000  Uiso   1.00
C29    C     0.37753   0.37753   0.00000   0.00000  Uiso   1.00
C30    C     0.38157   0.40815  -0.13695   0.00000  Uiso   1.00
C31    C     0.40815   0.38157   0.13695   0.00000  Uiso   1.00
C32    C     0.40747   0.35330   0.31302   0.00000  Uiso   1.00
C33    C     0.37576   0.32056   0.31894   0.00000  Uiso   1.00
C34    C     0.34495   0.31659   0.16006   0.00000  Uiso   1.00
C35    C     0.41869   0.43561  -0.07522   0.00000  Uiso   1.00
C36    C     0.43561   0.41869   0.07522   0.00000  Uiso   1.00
C37    C     0.47249   0.43706   0.13309   0.00000  Uiso   1.00
C38    C     0.49357   0.42028   0.23590   0.00000  Uiso   1.00
C39    C     0.53919   0.39344   0.36466   0.00000  Uiso   1.00
B40    B     0.56545   0.37976   0.42349   0.00000  Uiso   1.00
H41    H     0.35607   0.43008  -0.44903   0.00000  Uiso   1.00
H42    H     0.29839   0.37489  -0.45137   0.00000  Uiso   1.00
H43    H     0.29132   0.32079  -0.16790   0.00000  Uiso   1.00
H44    H     0.43008   0.35607   0.44903   0.00000  Uiso   1.00
H45    H     0.37489   0.29839   0.45137   0.00000  Uiso   1.00
H46    H     0.32079   0.29132   0.16790   0.00000  Uiso   1.00
C47    C     0.32520   0.63079  -0.46828   0.00000  Uiso   1.00
C48    C     0.36120   0.65873  -0.48132   0.00000  Uiso   1.00
C49    C     0.26161   0.61176  -0.50999   0.00000  Uiso   1.00
C50    C     0.23520   0.62032  -0.48667   0.00000  Uiso   1.00
C51    C     0.24284   0.65425  -0.43313   0.00000  Uiso   1.00
C52    C     0.27738   0.68188  -0.42761   0.00000  Uiso   1.00
H53    H     0.25339   0.58437  -0.55168   0.00000  Uiso   1.00
O54    O     0.19938   0.59644  -0.49178   0.00000  Uiso   1.00
O55    O     0.21308   0.65723  -0.38468   0.00000  Uiso   1.00
H56    H     0.28122   0.70784  -0.38064   0.00000  Uiso   1.00
C57    C     0.65873   0.36120   0.48132   0.00000  Uiso   1.00
C58    C     0.63079   0.32520   0.46828   0.00000  Uiso   1.00
C59    C     0.72262   0.40450   0.42762   0.00000  Uiso   1.00
C60    C     0.75716   0.41141   0.43313   0.00000  Uiso   1.00
C61    C     0.76480   0.38512   0.48667   0.00000  Uiso   1.00
C62    C     0.73839   0.35015   0.50999   0.00000  Uiso   1.00
H63    H     0.71878   0.42661   0.38064   0.00000  Uiso   1.00
O64    O     0.78692   0.44415   0.38469   0.00000  Uiso   1.00
O65    O     0.80062   0.39706   0.49178   0.00000  Uiso   1.00
H66    H     0.74661   0.33098   0.55168   0.00000  Uiso   1.00
C67    C     0.47581   0.91509  -0.43730   0.00000  Uiso   1.00
C68    C     0.45292   0.87927  -0.49516   0.00000  Uiso   1.00
H69    H     0.46909   0.93365  -0.54721   0.00000  Uiso   1.00
H70    H     0.42932   0.87125  -0.64666   0.00000  Uiso   1.00
C71    C     0.61222   0.09885   0.09667   0.00000  Uiso   1.00
C72    C     0.62619   0.13465   0.17108   0.00000  Uiso   1.00
H73    H     0.62640   0.09140  -0.07889   0.00000  Uiso   1.00
H74    H     0.65135   0.15368   0.06073   0.00000  Uiso   1.00
C75    C     0.56072   0.08491   0.43730   0.00000  Uiso   1.00
C76    C     0.57365   0.12073   0.49516   0.00000  Uiso   1.00
H77    H     0.53544   0.06635   0.54721   0.00000  Uiso   1.00
H78    H     0.55807   0.12875   0.64666   0.00000  Uiso   1.00
C79    C     0.51337   0.90115  -0.09667   0.00000  Uiso   1.00
C80    C     0.49154   0.86535  -0.17108   0.00000  Uiso   1.00
H81    H     0.53500   0.90860   0.07889   0.00000  Uiso   1.00
H82    H     0.49767   0.84632  -0.06073   0.00000  Uiso   1.00
H83    H     0.51087   0.02992   0.09341   0.00000  Uiso   1.00
H84    H     0.48095   0.97008  -0.09341   0.00000  Uiso   1.00
C85    C     0.52653   0.01728   0.06111   0.00000  Uiso   1.00
C86    C     0.50925   0.98272  -0.06110   0.00000  Uiso   1.00
C87    C     0.52751   0.96457  -0.13309   0.00000  Uiso   1.00
C88    C     0.50643   0.92671  -0.23590   0.00000  Uiso   1.00
C89    C     0.46081   0.85425  -0.36466   0.00000  Uiso   1.00
B90    B     0.43455   0.81431  -0.42349   0.00000  Uiso   1.00
C91    C     0.59253   0.94583  -0.31302   0.00000  Uiso   1.00
C92    C     0.62424   0.94480  -0.31894   0.00000  Uiso   1.00
C93    C     0.65505   0.97164  -0.16006   0.00000  Uiso   1.00
C94    C     0.65424  -0.00000   0.00000   0.00000  Uiso   1.00
C95    C     0.62247   0.00000   0.00000   0.00000  Uiso   1.00
C96    C     0.59185   0.97342  -0.13695   0.00000  Uiso   1.00
C97    C     0.61843   0.02658   0.13695   0.00000  Uiso   1.00
C98    C     0.64670   0.05417   0.31302   0.00000  Uiso   1.00
C99    C     0.67944   0.05520   0.31894   0.00000  Uiso   1.00
C100   C     0.68341   0.02836   0.16006   0.00000  Uiso   1.00
C101   C     0.56439   0.98308  -0.07522   0.00000  Uiso   1.00
C102   C     0.58131   0.01692   0.07522   0.00000  Uiso   1.00
C103   C     0.56294   0.03543   0.13309   0.00000  Uiso   1.00
C104   C     0.57972   0.07329   0.23590   0.00000  Uiso   1.00
C105   C     0.60656   0.14575   0.36466   0.00000  Uiso   1.00
B106   B     0.62024   0.18569   0.42349   0.00000  Uiso   1.00
H107   H     0.56992   0.92599  -0.44903   0.00000  Uiso   1.00
H108   H     0.62511   0.92350  -0.45137   0.00000  Uiso   1.00
H109   H     0.67921   0.97053  -0.16790   0.00000  Uiso   1.00
H110   H     0.64393   0.07401   0.44903   0.00000  Uiso   1.00
H111   H     0.70161   0.07650   0.45137   0.00000  Uiso   1.00
H112   H     0.70868   0.02947   0.16790   0.00000  Uiso   1.00
C113   C     0.36921   0.69441  -0.46828   0.00000  Uiso   1.00
C114   C     0.34127   0.70247  -0.48132   0.00000  Uiso   1.00
C115   C     0.38824   0.64985  -0.50999   0.00000  Uiso   1.00
C116   C     0.37968   0.61488  -0.48667   0.00000  Uiso   1.00
C117   C     0.34575   0.58859  -0.43313   0.00000  Uiso   1.00
C118   C     0.31812   0.59550  -0.42761   0.00000  Uiso   1.00
H119   H     0.41563   0.66902  -0.55168   0.00000  Uiso   1.00
O120   O     0.40356   0.60294  -0.49178   0.00000  Uiso   1.00
O121   O     0.34277   0.55585  -0.38468   0.00000  Uiso   1.00
H122   H     0.29216   0.57338  -0.38064   0.00000  Uiso   1.00
C123   C     0.63880   0.29753   0.48132   0.00000  Uiso   1.00
C124   C     0.67480   0.30559   0.46828   0.00000  Uiso   1.00
C125   C     0.59550   0.31812   0.42762   0.00000  Uiso   1.00
C126   C     0.58859   0.34575   0.43313   0.00000  Uiso   1.00
C127   C     0.61488   0.37968   0.48667   0.00000  Uiso   1.00
C128   C     0.64985   0.38824   0.50999   0.00000  Uiso   1.00
H129   H     0.57339   0.29217   0.38064   0.00000  Uiso   1.00
O130   O     0.55585   0.34277   0.38469   0.00000  Uiso   1.00
O131   O     0.60294   0.40356   0.49178   0.00000  Uiso   1.00
H132   H     0.66902   0.41563   0.55168   0.00000  Uiso   1.00
C133   C     0.08491   0.56072  -0.43730   0.00000  Uiso   1.00
C134   C     0.12073   0.57365  -0.49516   0.00000  Uiso   1.00
H135   H     0.06635   0.53544  -0.54721   0.00000  Uiso   1.00
H136   H     0.12875   0.55807  -0.64666   0.00000  Uiso   1.00
C137   C     0.90115   0.51337   0.09667   0.00000  Uiso   1.00
C138   C     0.86535   0.49154   0.17108   0.00000  Uiso   1.00
H139   H     0.90860   0.53500  -0.07889   0.00000  Uiso   1.00
H140   H     0.84632   0.49767   0.06073   0.00000  Uiso   1.00
C141   C     0.91509   0.47581   0.43730   0.00000  Uiso   1.00
C142   C     0.87927   0.45292   0.49516   0.00000  Uiso   1.00
H143   H     0.93365   0.46909   0.54721   0.00000  Uiso   1.00
H144   H     0.87125   0.42932   0.64666   0.00000  Uiso   1.00
C145   C     0.09885   0.61222  -0.09667   0.00000  Uiso   1.00
C146   C     0.13465   0.62619  -0.17108   0.00000  Uiso   1.00
H147   H     0.09140   0.62640   0.07889   0.00000  Uiso   1.00
H148   H     0.15368   0.65135  -0.06073   0.00000  Uiso   1.00
H149   H     0.97008   0.48095   0.09341   0.00000  Uiso   1.00
H150   H     0.02992   0.51087  -0.09341   0.00000  Uiso   1.00
C151   C     0.98272   0.50925   0.06111   0.00000  Uiso   1.00
C152   C     0.01728   0.52653  -0.06110   0.00000  Uiso   1.00
C153   C     0.03543   0.56294  -0.13309   0.00000  Uiso   1.00
C154   C     0.07329   0.57972  -0.23590   0.00000  Uiso   1.00
C155   C     0.14575   0.60656  -0.36466   0.00000  Uiso   1.00
B156   B     0.18569   0.62024  -0.42349   0.00000  Uiso   1.00
C157   C     0.05417   0.64670  -0.31302   0.00000  Uiso   1.00
C158   C     0.05520   0.67944  -0.31894   0.00000  Uiso   1.00
C159   C     0.02836   0.68341  -0.16006   0.00000  Uiso   1.00
C160   C     0.00000   0.65424   0.00000   0.00000  Uiso   1.00
C161   C     0.00000   0.62247   0.00000   0.00000  Uiso   1.00
C162   C     0.02658   0.61843  -0.13695   0.00000  Uiso   1.00
C163   C     0.97342   0.59185   0.13695   0.00000  Uiso   1.00
C164   C     0.94583   0.59253   0.31302   0.00000  Uiso   1.00
C165   C     0.94480   0.62424   0.31894   0.00000  Uiso   1.00
C166   C     0.97164   0.65505   0.16006   0.00000  Uiso   1.00
C167   C     0.01692   0.58131  -0.07522   0.00000  Uiso   1.00
C168   C     0.98308   0.56439   0.07522   0.00000  Uiso   1.00
C169   C     0.96457   0.52751   0.13309   0.00000  Uiso   1.00
C170   C     0.92671   0.50643   0.23590   0.00000  Uiso   1.00
C171   C     0.85425   0.46081   0.36466   0.00000  Uiso   1.00
B172   B     0.81431   0.43455   0.42349   0.00000  Uiso   1.00
H173   H     0.07401   0.64393  -0.44903   0.00000  Uiso   1.00
H174   H     0.07650   0.70161  -0.45137   0.00000  Uiso   1.00
H175   H     0.02947   0.70868  -0.16790   0.00000  Uiso   1.00
H176   H     0.92599   0.56992   0.44903   0.00000  Uiso   1.00
H177   H     0.92350   0.62511   0.45137   0.00000  Uiso   1.00
H178   H     0.97053   0.67921   0.16790   0.00000  Uiso   1.00
C179   C     0.30559   0.67480  -0.46828   0.00000  Uiso   1.00
C180   C     0.29753   0.63880  -0.48132   0.00000  Uiso   1.00
C181   C     0.35015   0.73839  -0.50999   0.00000  Uiso   1.00
C182   C     0.38512   0.76480  -0.48667   0.00000  Uiso   1.00
C183   C     0.41141   0.75716  -0.43313   0.00000  Uiso   1.00
C184   C     0.40450   0.72262  -0.42761   0.00000  Uiso   1.00
H185   H     0.33098   0.74661  -0.55168   0.00000  Uiso   1.00
O186   O     0.39706   0.80062  -0.49178   0.00000  Uiso   1.00
O187   O     0.44415   0.78692  -0.38468   0.00000  Uiso   1.00
H188   H     0.42662   0.71878  -0.38064   0.00000  Uiso   1.00
C189   C     0.70247   0.34127   0.48132   0.00000  Uiso   1.00
C190   C     0.69441   0.36921   0.46828   0.00000  Uiso   1.00
C191   C     0.68188   0.27738   0.42762   0.00000  Uiso   1.00
C192   C     0.65425   0.24284   0.43313   0.00000  Uiso   1.00
C193   C     0.62032   0.23520   0.48667   0.00000  Uiso   1.00
C194   C     0.61176   0.26161   0.50999   0.00000  Uiso   1.00
H195   H     0.70783   0.28122   0.38064   0.00000  Uiso   1.00
O196   O     0.65723   0.21308   0.38469   0.00000  Uiso   1.00
O197   O     0.59644   0.19938   0.49178   0.00000  Uiso   1.00
H198   H     0.58437   0.25339   0.55168   0.00000  Uiso   1.00
loop_
_geom_bond_atom_site_label_1
_geom_bond_atom_site_label_2
_geom_bond_distance
_geom_bond_site_symmetry_2
_ccdc_geom_bond_type
C1     C2      1.393   .     D
C1     H3      1.081   .     S
C1     C22     1.410   .     S
C2     H4      1.084   .     S
C2     C23     1.398   .     S
C5     C6      1.398   .     D
C5     H7      1.077   .     S
C5     C38     1.406   .     S
C6     H8      1.083   .     S
C6     C39     1.399   .     S
C9     C10     1.393   .     S
C9     H11     1.081   .     S
C9     C38     1.410   .     D
C10    H12     1.084   .     S
C10    C39     1.398   .     D
C13    C14     1.398   .     S
C13    H15     1.077   .     S
C13    C22     1.406   .     D
C14    H16     1.083   .     S
C14    C23     1.399   .     D
H17    C19     1.082   .     S
H18    C20     1.082   .     S
C19    C20     1.393   .     D
C19    C37     1.408   .     S
C20    C21     1.408   .     S
C21    C22     1.492   .     S
C21    C35     1.416   .     D
C23    B24     1.555   .     S
B24    O120    1.462   .     S
B24    O121    1.463   .     S
C25    C26     1.411   .     D
C25    C30     1.401   .     S
C25    H41     1.074   .     S
C26    C27     1.413   .     S
C26    H42     1.082   .     S
C27    C28     1.405   .     D
C27    H43     1.083   .     S
C28    C29     1.390   .     S
C28    C34     1.405   .     S
C29    C30     1.369   .     D
C29    C31     1.369   .     S
C30    C35     1.479   .     S
C31    C32     1.401   .     D
C31    C36     1.479   .     S
C32    C33     1.411   .     S
C32    H44     1.074   .     S
C33    C34     1.413   .     D
C33    H45     1.082   .     S
C34    H46     1.083   .     S
C35    C36     1.410   .     S
C36    C37     1.416   .     D
C37    C38     1.492   .     S
C39    B40     1.555   .     S
B40    O130    1.463   .     S
B40    O131    1.462   .     S
C47    C48     1.433   .     D
C47    C118    1.424   .     S
C47    C180    1.420   .     S
C48    C113    1.420   .     S
C48    C115    1.422   .     S
C49    C50     1.384   .     S
C49    H53     1.077   .     S
C49    C180    1.422   .     D
C50    C51     1.365   .     D
C50    O54     1.382   .     S
C51    C52     1.385   .     S
C51    O55     1.385   .     S
C52    H56     1.078   .     S
C52    C179    1.424   .     D
O54    B156    1.462   .     S
O55    B156    1.463   .     S
C57    C58     1.433   .     D
C57    C128    1.422   .     S
C57    C190    1.420   .     S
C58    C123    1.420   .     S
C58    C125    1.424   .     S
C59    C60     1.385   .     S
C59    H63     1.077   .     S
C59    C190    1.424   .     D
C60    C61     1.365   .     D
C60    O64     1.385   .     S
C61    C62     1.384   .     S
C61    O65     1.382   .     S
C62    H66     1.077   .     S
C62    C189    1.422   .     D
O64    B172    1.463   .     S
O65    B172    1.462   .     S
C67    C68     1.393   .     S
C67    H69     1.081   .     S
C67    C88     1.410   .     D
C68    H70     1.084   .     S
C68    C89     1.398   .     D
C71    C72     1.398   .     S
C71    H73     1.077   .     S
C71    C104    1.406   .     D
C72    H74     1.083   .     S
C72    C105    1.399   .     D
C75    C76     1.393   .     D
C75    H77     1.081   .     S
C75    C104    1.410   .     S
C76    H78     1.084   .     S
C76    C105    1.398   .     S
C79    C80     1.398   .     D
C79    H81     1.077   .     S
C79    C88     1.406   .     S
C80    H82     1.083   .     S
C80    C89     1.399   .     S
H83    C85     1.082   .     S
H84    C86     1.082   .     S
C85    C86     1.393   1_545 D
C85    C103    1.408   .     S
C86    C85     1.393   1_565 D
C86    C87     1.408   .     S
C87    C88     1.492   .     S
C87    C101    1.416   .     D
C89    B90     1.555   .     S
B90    O186    1.462   .     S
B90    O187    1.463   .     S
C91    C92     1.411   .     D
C91    C96     1.401   .     S
C91    H107    1.074   .     S
C92    C93     1.413   .     S
C92    H108    1.082   .     S
C93    C94     1.405   1_565 D
C93    H109    1.083   .     S
C94    C93     1.405   1_545 D
C94    C95     1.390   .     S
C94    C100    1.405   .     S
C95    C96     1.369   1_545 D
C95    C97     1.369   .     S
C96    C95     1.369   1_565 D
C96    C101    1.479   .     S
C97    C98     1.401   .     D
C97    C102    1.479   .     S
C98    C99     1.411   .     S
C98    H110    1.074   .     S
C99    C100    1.413   .     D
C99    H111    1.082   .     S
C100   H112    1.083   .     S
C101   C102    1.410   1_565 S
C102   C101    1.410   1_545 S
C102   C103    1.416   .     D
C103   C104    1.492   .     S
C105   B106    1.555   .     S
B106   O196    1.463   .     S
B106   O197    1.462   .     S
C113   C114    1.433   .     D
C113   C184    1.424   .     S
C114   C179    1.420   .     S
C114   C181    1.422   .     S
C115   C116    1.384   .     D
C115   H119    1.077   .     S
C116   C117    1.365   .     S
C116   O120    1.382   .     S
C117   C118    1.385   .     D
C117   O121    1.385   .     S
C118   H122    1.078   .     S
C123   C124    1.433   .     S
C123   C194    1.422   .     D
C124   C189    1.420   .     S
C124   C191    1.424   .     D
C125   C126    1.385   .     D
C125   H129    1.077   .     S
C126   C127    1.365   .     S
C126   O130    1.385   .     S
C127   C128    1.384   .     D
C127   O131    1.382   .     S
C128   H132    1.077   .     S
C133   C134    1.393   .     D
C133   H135    1.081   .     S
C133   C154    1.410   .     S
C134   H136    1.084   .     S
C134   C155    1.398   .     S
C137   C138    1.398   .     S
C137   H139    1.077   .     S
C137   C170    1.406   .     D
C138   H140    1.083   .     S
C138   C171    1.399   .     D
C141   C142    1.393   .     D
C141   H143    1.081   .     S
C141   C170    1.410   .     S
C142   H144    1.084   .     S
C142   C171    1.398   .     S
C145   C146    1.398   .     S
C145   H147    1.077   .     S
C145   C154    1.406   .     D
C146   H148    1.083   .     S
C146   C155    1.399   .     D
H149   C151    1.082   .     S
H150   C152    1.082   .     S
C151   C152    1.393   1_655 D
C151   C169    1.408   .     S
C152   C151    1.393   1_455 D
C152   C153    1.408   .     S
C153   C154    1.492   .     S
C153   C167    1.416   .     D
C155   B156    1.555   .     S
C157   C158    1.411   .     D
C157   C162    1.401   .     S
C157   H173    1.074   .     S
C158   C159    1.413   .     S
C158   H174    1.082   .     S
C159   C160    1.405   .     D
C159   H175    1.083   .     S
C160   C161    1.390   .     S
C160   C166    1.405   1_455 S
C161   C162    1.369   .     D
C161   C163    1.369   1_455 S
C162   C167    1.479   .     S
C163   C161    1.369   1_655 S
C163   C164    1.401   .     D
C163   C168    1.479   .     S
C164   C165    1.411   .     S
C164   H176    1.074   .     S
C165   C166    1.413   .     D
C165   H177    1.082   .     S
C166   C160    1.405   1_655 S
C166   H178    1.083   .     S
C167   C168    1.410   1_455 S
C168   C167    1.410   1_655 S
C168   C169    1.416   .     D
C169   C170    1.492   .     S
C171   B172    1.555   .     S
C179   C180    1.433   .     S
C181   C182    1.384   .     D
C181   H185    1.077   .     S
C182   C183    1.365   .     S
C182   O186    1.382   .     S
C183   C184    1.385   .     D
C183   O187    1.385   .     S
C184   H188    1.078   .     S
C189   C190    1.433   .     S
C191   C192    1.385   .     S
C191   H195    1.077   .     S
C192   C193    1.365   .     D
C192   O196    1.385   .     S
C193   C194    1.384   .     S
C193   O197    1.382   .     S
C194   H198    1.077   .     S
