data_245
_audit_creation_date              2023-09-08
_audit_creation_method            'Materials Studio'
_symmetry_space_group_name_H-M    'P1'
_symmetry_Int_Tables_number       1
_symmetry_cell_setting            triclinic
loop_
_symmetry_equiv_pos_as_xyz
  x,y,z
_cell_length_a                    21.2315
_cell_length_b                    21.2315
_cell_length_c                    3.6125
_cell_angle_alpha                 90.0000
_cell_angle_beta                  90.0000
_cell_angle_gamma                 120.0000
loop_
_atom_site_label
_atom_site_type_symbol
_atom_site_fract_x
_atom_site_fract_y
_atom_site_fract_z
_atom_site_U_iso_or_equiv
_atom_site_adp_type
_atom_site_occupancy
C1     C     0.69770   0.40926   0.50000   0.00000  Uiso   1.00
C2     C     0.62168   0.36442   0.50000   0.00000  Uiso   1.00
C3     C     0.57589   0.39727   0.50000   0.00000  Uiso   1.00
O4     O     0.61126   0.47191   0.50000   0.00000  Uiso   1.00
C5     C     0.55925   0.49244   0.50000   0.00000  Uiso   1.00
C6     C     0.48882   0.42990   0.50000   0.00000  Uiso   1.00
C7     C     0.50110   0.36893   0.50000   0.00000  Uiso   1.00
C8     C     0.57375   0.56366   0.50000   0.00000  Uiso   1.00
C9     C     0.44645   0.29492   0.50000   0.00000  Uiso   1.00
N10    N     0.40103   0.23398   0.50000   0.00000  Uiso   1.00
H11    H     0.72111   0.46798   0.50000   0.00000  Uiso   1.00
H12    H     0.62876   0.61018   0.50000   0.00000  Uiso   1.00
C13    C     0.59074   0.28844   0.50000   0.00000  Uiso   1.00
C14    C     0.63558   0.25726   0.50000   0.00000  Uiso   1.00
C15    C     0.60273   0.17862   0.50000   0.00000  Uiso   1.00
O16    O     0.52809   0.13935   0.50000   0.00000  Uiso   1.00
C17    C     0.50756   0.06681   0.50000   0.00000  Uiso   1.00
C18    C     0.57010   0.05892   0.50000   0.00000  Uiso   1.00
C19    C     0.63107   0.13217   0.50000   0.00000  Uiso   1.00
C20    C     0.43634   0.01009   0.50000   0.00000  Uiso   1.00
C21    C     0.70508   0.15153   0.50000   0.00000  Uiso   1.00
N22    N     0.76602   0.16705   0.50000   0.00000  Uiso   1.00
H23    H     0.53202   0.25313   0.50000   0.00000  Uiso   1.00
H24    H     0.38982   0.01858   0.50000   0.00000  Uiso   1.00
C25    C     0.71156   0.30230   0.50000   0.00000  Uiso   1.00
C26    C     0.74274   0.37832   0.50000   0.00000  Uiso   1.00
C27    C     0.82138   0.42411   0.50000   0.00000  Uiso   1.00
O28    O     0.86065   0.38874   0.50000   0.00000  Uiso   1.00
C29    C     0.93319   0.44075   0.50000   0.00000  Uiso   1.00
C30    C     0.94108   0.51118   0.50000   0.00000  Uiso   1.00
C31    C     0.86783   0.49890   0.50000   0.00000  Uiso   1.00
C32    C     0.98991   0.42625   0.50000   0.00000  Uiso   1.00
C33    C     0.84847   0.55355   0.50000   0.00000  Uiso   1.00
N34    N     0.83295   0.59897   0.50000   0.00000  Uiso   1.00
H35    H     0.74687   0.27889   0.50000   0.00000  Uiso   1.00
H36    H     0.98142   0.37124   0.50000   0.00000  Uiso   1.00
C37    C     0.30230   0.59074   0.50000   0.00000  Uiso   1.00
C38    C     0.37832   0.63558   0.50000   0.00000  Uiso   1.00
C39    C     0.42411   0.60273   0.50000   0.00000  Uiso   1.00
O40    O     0.38874   0.52809   0.50000   0.00000  Uiso   1.00
C41    C     0.44075   0.50756   0.50000   0.00000  Uiso   1.00
C42    C     0.51118   0.57010   0.50000   0.00000  Uiso   1.00
C43    C     0.49890   0.63107   0.50000   0.00000  Uiso   1.00
C44    C     0.42625   0.43634   0.50000   0.00000  Uiso   1.00
C45    C     0.55355   0.70508   0.50000   0.00000  Uiso   1.00
N46    N     0.59897   0.76602   0.50000   0.00000  Uiso   1.00
H47    H     0.27889   0.53202   0.50000   0.00000  Uiso   1.00
H48    H     0.37124   0.38982   0.50000   0.00000  Uiso   1.00
C49    C     0.40926   0.71156   0.50000   0.00000  Uiso   1.00
C50    C     0.36442   0.74274   0.50000   0.00000  Uiso   1.00
C51    C     0.39727   0.82138   0.50000   0.00000  Uiso   1.00
O52    O     0.47191   0.86065   0.50000   0.00000  Uiso   1.00
C53    C     0.49244   0.93319   0.50000   0.00000  Uiso   1.00
C54    C     0.42990   0.94108   0.50000   0.00000  Uiso   1.00
C55    C     0.36893   0.86783   0.50000   0.00000  Uiso   1.00
C56    C     0.56366   0.98991   0.50000   0.00000  Uiso   1.00
C57    C     0.29492   0.84847   0.50000   0.00000  Uiso   1.00
N58    N     0.23398   0.83295   0.50000   0.00000  Uiso   1.00
H59    H     0.46798   0.74687   0.50000   0.00000  Uiso   1.00
H60    H     0.61018   0.98142   0.50000   0.00000  Uiso   1.00
C61    C     0.28844   0.69770   0.50000   0.00000  Uiso   1.00
C62    C     0.25726   0.62168   0.50000   0.00000  Uiso   1.00
C63    C     0.17862   0.57589   0.50000   0.00000  Uiso   1.00
O64    O     0.13935   0.61126   0.50000   0.00000  Uiso   1.00
C65    C     0.06681   0.55925   0.50000   0.00000  Uiso   1.00
C66    C     0.05892   0.48882   0.50000   0.00000  Uiso   1.00
C67    C     0.13217   0.50110   0.50000   0.00000  Uiso   1.00
C68    C     0.01009   0.57375   0.50000   0.00000  Uiso   1.00
C69    C     0.15153   0.44645   0.50000   0.00000  Uiso   1.00
N70    N     0.16705   0.40103   0.50000   0.00000  Uiso   1.00
H71    H     0.25313   0.72111   0.50000   0.00000  Uiso   1.00
H72    H     0.01858   0.62876   0.50000   0.00000  Uiso   1.00
loop_
_geom_bond_atom_site_label_1
_geom_bond_atom_site_label_2
_geom_bond_distance
_geom_bond_site_symmetry_2
_ccdc_geom_bond_type
C1     C2      1.405   .     D
C1     H11     1.087   .     S
C1     C26     1.405   .     S
C2     C3      1.452   .     S
C2     C13     1.405   .     S
C3     O4      1.373   .     S
C3     C7      1.389   .     D
O4     C5      1.375   .     S
C5     C6      1.419   .     S
C5     C8      1.384   .     D
C6     C7      1.443   .     S
C6     C44     1.402   .     D
C7     C9      1.411   .     S
C8     H12     1.089   .     S
C8     C42     1.402   .     S
C9     N10     1.165   .     T
C13    C14     1.405   .     D
C13    H23     1.087   .     S
C14    C15     1.452   .     S
C14    C25     1.405   .     S
C15    O16     1.373   .     S
C15    C19     1.389   .     D
O16    C17     1.375   .     S
C17    C18     1.419   .     S
C17    C20     1.384   .     D
C18    C19     1.443   .     S
C18    C56     1.402   1_545 D
C19    C21     1.411   .     S
C20    H24     1.089   .     S
C20    C54     1.402   1_545 S
C21    N22     1.165   .     T
C25    C26     1.405   .     D
C25    H35     1.087   .     S
C26    C27     1.452   .     S
C27    O28     1.373   .     S
C27    C31     1.389   .     D
O28    C29     1.375   .     S
C29    C30     1.419   .     D
C29    C32     1.384   .     S
C30    C31     1.443   .     S
C30    C68     1.402   1_655 S
C31    C33     1.411   .     S
C32    H36     1.089   .     S
C32    C66     1.402   1_655 D
C33    N34     1.165   .     T
C37    C38     1.405   .     D
C37    H47     1.087   .     S
C37    C62     1.405   .     S
C38    C39     1.452   .     S
C38    C49     1.405   .     S
C39    O40     1.373   .     S
C39    C43     1.389   .     D
O40    C41     1.375   .     S
C41    C42     1.419   .     D
C41    C44     1.384   .     S
C42    C43     1.443   .     S
C43    C45     1.411   .     S
C44    H48     1.089   .     S
C45    N46     1.165   .     T
C49    C50     1.405   .     D
C49    H59     1.087   .     S
C50    C51     1.452   .     S
C50    C61     1.405   .     S
C51    O52     1.373   .     S
C51    C55     1.389   .     D
O52    C53     1.375   .     S
C53    C54     1.419   .     D
C53    C56     1.384   .     S
C54    C20     1.402   1_565 S
C54    C55     1.443   .     S
C55    C57     1.411   .     S
C56    C18     1.402   1_565 D
C56    H60     1.089   .     S
C57    N58     1.165   .     T
C61    C62     1.405   .     D
C61    H71     1.087   .     S
C62    C63     1.452   .     S
C63    O64     1.373   .     S
C63    C67     1.389   .     D
O64    C65     1.375   .     S
C65    C66     1.419   .     S
C65    C68     1.384   .     D
C66    C32     1.402   1_455 D
C66    C67     1.443   .     S
C67    C69     1.411   .     S
C68    C30     1.402   1_455 S
C68    H72     1.089   .     S
C69    N70     1.165   .     T
