data_246
_audit_creation_date              2023-09-08
_audit_creation_method            'Materials Studio'
_symmetry_space_group_name_H-M    'P1'
_symmetry_Int_Tables_number       1
_symmetry_cell_setting            triclinic
loop_
_symmetry_equiv_pos_as_xyz
  x,y,z
_cell_length_a                    21.2268
_cell_length_b                    21.2268
_cell_length_c                    6.5521
_cell_angle_alpha                 90.0000
_cell_angle_beta                  90.0000
_cell_angle_gamma                 120.0000
loop_
_atom_site_label
_atom_site_type_symbol
_atom_site_fract_x
_atom_site_fract_y
_atom_site_fract_z
_atom_site_U_iso_or_equiv
_atom_site_adp_type
_atom_site_occupancy
C1     C     0.63538   0.25732   0.25000   0.00000  Uiso   1.00
C2     C     0.71149   0.30198   0.25000   0.00000  Uiso   1.00
C3     C     0.75714   0.26894   0.25000   0.00000  Uiso   1.00
O4     O     0.72163   0.19429   0.25000   0.00000  Uiso   1.00
C5     C     0.77345   0.17352   0.25000   0.00000  Uiso   1.00
C6     C     0.84397   0.23598   0.25000   0.00000  Uiso   1.00
C7     C     0.83195   0.29712   0.25000   0.00000  Uiso   1.00
C8     C     0.75898   0.10226   0.25000   0.00000  Uiso   1.00
C9     C     0.88756   0.37079   0.25000   0.00000  Uiso   1.00
N10    N     0.93500   0.43092   0.25000   0.00000  Uiso   1.00
H11    H     0.61180   0.19855   0.25000   0.00000  Uiso   1.00
H12    H     0.70394   0.05577   0.25000   0.00000  Uiso   1.00
C13    C     0.03075   0.07583   0.25000   0.00000  Uiso   1.00
C14    C     0.95482   0.03081   0.25000   0.00000  Uiso   1.00
C15    C     0.90902   0.06342   0.25000   0.00000  Uiso   1.00
O16    O     0.94410   0.13798   0.25000   0.00000  Uiso   1.00
C17    C     0.89194   0.15835   0.25000   0.00000  Uiso   1.00
C18    C     0.82158   0.09582   0.25000   0.00000  Uiso   1.00
C19    C     0.83410   0.03499   0.25000   0.00000  Uiso   1.00
C20    C     0.90643   0.22950   0.25000   0.00000  Uiso   1.00
C21    C     0.77970   0.96098   0.25000   0.00000  Uiso   1.00
N22    N     0.73389   0.90009   0.25000   0.00000  Uiso   1.00
H23    H     0.05381   0.13447   0.25000   0.00000  Uiso   1.00
H24    H     0.96136   0.27613   0.25000   0.00000  Uiso   1.00
C25    C     0.74268   0.37806   0.25000   0.00000  Uiso   1.00
C26    C     0.69802   0.40951   0.25000   0.00000  Uiso   1.00
C27    C     0.73106   0.48820   0.25000   0.00000  Uiso   1.00
O28    O     0.80571   0.52734   0.25000   0.00000  Uiso   1.00
C29    C     0.82648   0.59993   0.25000   0.00000  Uiso   1.00
C30    C     0.76402   0.60799   0.25000   0.00000  Uiso   1.00
C31    C     0.70288   0.53483   0.25000   0.00000  Uiso   1.00
C32    C     0.89774   0.65672   0.25000   0.00000  Uiso   1.00
C33    C     0.62921   0.51677   0.25000   0.00000  Uiso   1.00
N34    N     0.56908   0.50408   0.25000   0.00000  Uiso   1.00
H35    H     0.80145   0.41325   0.25000   0.00000  Uiso   1.00
H36    H     0.94423   0.64817   0.25000   0.00000  Uiso   1.00
C37    C     0.92417   0.95492   0.25000   0.00000  Uiso   1.00
C38    C     0.96919   0.92401   0.25000   0.00000  Uiso   1.00
C39    C     0.93658   0.84560   0.25000   0.00000  Uiso   1.00
O40    O     0.86202   0.80612   0.25000   0.00000  Uiso   1.00
C41    C     0.84165   0.73359   0.25000   0.00000  Uiso   1.00
C42    C     0.90418   0.72576   0.25000   0.00000  Uiso   1.00
C43    C     0.96501   0.79911   0.25000   0.00000  Uiso   1.00
C44    C     0.77050   0.67693   0.25000   0.00000  Uiso   1.00
C45    C     0.03902   0.81872   0.25000   0.00000  Uiso   1.00
N46    N     0.09991   0.83380   0.25000   0.00000  Uiso   1.00
H47    H     0.86553   0.91934   0.25000   0.00000  Uiso   1.00
H48    H     0.72387   0.68523   0.25000   0.00000  Uiso   1.00
C49    C     0.62194   0.36462   0.25000   0.00000  Uiso   1.00
C50    C     0.59049   0.28851   0.25000   0.00000  Uiso   1.00
C51    C     0.51180   0.24286   0.25000   0.00000  Uiso   1.00
O52    O     0.47266   0.27837   0.25000   0.00000  Uiso   1.00
C53    C     0.40007   0.22655   0.25000   0.00000  Uiso   1.00
C54    C     0.39201   0.15603   0.25000   0.00000  Uiso   1.00
C55    C     0.46517   0.16805   0.25000   0.00000  Uiso   1.00
C56    C     0.34328   0.24102   0.25000   0.00000  Uiso   1.00
C57    C     0.48323   0.11244   0.25000   0.00000  Uiso   1.00
N58    N     0.49592   0.06500   0.25000   0.00000  Uiso   1.00
H59    H     0.58675   0.38820   0.25000   0.00000  Uiso   1.00
H60    H     0.35183   0.29606   0.25000   0.00000  Uiso   1.00
C61    C     0.04508   0.96925   0.25000   0.00000  Uiso   1.00
C62    C     0.07599   0.04518   0.25000   0.00000  Uiso   1.00
C63    C     0.15440   0.09098   0.25000   0.00000  Uiso   1.00
O64    O     0.19388   0.05590   0.25000   0.00000  Uiso   1.00
C65    C     0.26641   0.10806   0.25000   0.00000  Uiso   1.00
C66    C     0.27424   0.17842   0.25000   0.00000  Uiso   1.00
C67    C     0.20089   0.16590   0.25000   0.00000  Uiso   1.00
C68    C     0.32307   0.09357   0.25000   0.00000  Uiso   1.00
C69    C     0.18128   0.22030   0.25000   0.00000  Uiso   1.00
N70    N     0.16620   0.26611   0.25000   0.00000  Uiso   1.00
H71    H     0.08066   0.94619   0.25000   0.00000  Uiso   1.00
H72    H     0.31477   0.03864   0.25000   0.00000  Uiso   1.00
C73    C     0.36462   0.74268   0.75000   0.00000  Uiso   1.00
C74    C     0.28851   0.69802   0.75000   0.00000  Uiso   1.00
C75    C     0.24286   0.73106   0.75000   0.00000  Uiso   1.00
O76    O     0.27837   0.80571   0.75000   0.00000  Uiso   1.00
C77    C     0.22655   0.82648   0.75000   0.00000  Uiso   1.00
C78    C     0.15603   0.76402   0.75000   0.00000  Uiso   1.00
C79    C     0.16805   0.70288   0.75000   0.00000  Uiso   1.00
C80    C     0.24102   0.89774   0.75000   0.00000  Uiso   1.00
C81    C     0.11244   0.62921   0.75000   0.00000  Uiso   1.00
N82    N     0.06500   0.56908   0.75000   0.00000  Uiso   1.00
H83    H     0.38820   0.80145   0.75000   0.00000  Uiso   1.00
H84    H     0.29606   0.94423   0.75000   0.00000  Uiso   1.00
C85    C     0.96925   0.92417   0.75000   0.00000  Uiso   1.00
C86    C     0.04518   0.96919   0.75000   0.00000  Uiso   1.00
C87    C     0.09098   0.93658   0.75000   0.00000  Uiso   1.00
O88    O     0.05590   0.86202   0.75000   0.00000  Uiso   1.00
C89    C     0.10806   0.84165   0.75000   0.00000  Uiso   1.00
C90    C     0.17842   0.90418   0.75000   0.00000  Uiso   1.00
C91    C     0.16590   0.96501   0.75000   0.00000  Uiso   1.00
C92    C     0.09357   0.77050   0.75000   0.00000  Uiso   1.00
C93    C     0.22030   0.03902   0.75000   0.00000  Uiso   1.00
N94    N     0.26611   0.09991   0.75000   0.00000  Uiso   1.00
H95    H     0.94619   0.86553   0.75000   0.00000  Uiso   1.00
H96    H     0.03864   0.72387   0.75000   0.00000  Uiso   1.00
C97    C     0.25732   0.62194   0.75000   0.00000  Uiso   1.00
C98    C     0.30198   0.59049   0.75000   0.00000  Uiso   1.00
C99    C     0.26894   0.51180   0.75000   0.00000  Uiso   1.00
O100   O     0.19429   0.47266   0.75000   0.00000  Uiso   1.00
C101   C     0.17352   0.40007   0.75000   0.00000  Uiso   1.00
C102   C     0.23598   0.39201   0.75000   0.00000  Uiso   1.00
C103   C     0.29712   0.46517   0.75000   0.00000  Uiso   1.00
C104   C     0.10226   0.34328   0.75000   0.00000  Uiso   1.00
C105   C     0.37079   0.48323   0.75000   0.00000  Uiso   1.00
N106   N     0.43092   0.49592   0.75000   0.00000  Uiso   1.00
H107   H     0.19855   0.58675   0.75000   0.00000  Uiso   1.00
H108   H     0.05577   0.35183   0.75000   0.00000  Uiso   1.00
C109   C     0.07583   0.04508   0.75000   0.00000  Uiso   1.00
C110   C     0.03081   0.07599   0.75000   0.00000  Uiso   1.00
C111   C     0.06342   0.15440   0.75000   0.00000  Uiso   1.00
O112   O     0.13798   0.19388   0.75000   0.00000  Uiso   1.00
C113   C     0.15835   0.26641   0.75000   0.00000  Uiso   1.00
C114   C     0.09582   0.27424   0.75000   0.00000  Uiso   1.00
C115   C     0.03499   0.20089   0.75000   0.00000  Uiso   1.00
C116   C     0.22950   0.32307   0.75000   0.00000  Uiso   1.00
C117   C     0.96098   0.18128   0.75000   0.00000  Uiso   1.00
N118   N     0.90009   0.16620   0.75000   0.00000  Uiso   1.00
H119   H     0.13447   0.08066   0.75000   0.00000  Uiso   1.00
H120   H     0.27613   0.31477   0.75000   0.00000  Uiso   1.00
C121   C     0.37806   0.63538   0.75000   0.00000  Uiso   1.00
C122   C     0.40951   0.71149   0.75000   0.00000  Uiso   1.00
C123   C     0.48820   0.75714   0.75000   0.00000  Uiso   1.00
O124   O     0.52734   0.72163   0.75000   0.00000  Uiso   1.00
C125   C     0.59993   0.77345   0.75000   0.00000  Uiso   1.00
C126   C     0.60799   0.84397   0.75000   0.00000  Uiso   1.00
C127   C     0.53483   0.83195   0.75000   0.00000  Uiso   1.00
C128   C     0.65672   0.75898   0.75000   0.00000  Uiso   1.00
C129   C     0.51677   0.88756   0.75000   0.00000  Uiso   1.00
N130   N     0.50408   0.93500   0.75000   0.00000  Uiso   1.00
H131   H     0.41325   0.61180   0.75000   0.00000  Uiso   1.00
H132   H     0.64817   0.70394   0.75000   0.00000  Uiso   1.00
C133   C     0.95492   0.03075   0.75000   0.00000  Uiso   1.00
C134   C     0.92401   0.95482   0.75000   0.00000  Uiso   1.00
C135   C     0.84560   0.90902   0.75000   0.00000  Uiso   1.00
O136   O     0.80612   0.94410   0.75000   0.00000  Uiso   1.00
C137   C     0.73359   0.89194   0.75000   0.00000  Uiso   1.00
C138   C     0.72576   0.82158   0.75000   0.00000  Uiso   1.00
C139   C     0.79911   0.83410   0.75000   0.00000  Uiso   1.00
C140   C     0.67693   0.90643   0.75000   0.00000  Uiso   1.00
C141   C     0.81872   0.77970   0.75000   0.00000  Uiso   1.00
N142   N     0.83380   0.73389   0.75000   0.00000  Uiso   1.00
H143   H     0.91934   0.05381   0.75000   0.00000  Uiso   1.00
H144   H     0.68523   0.96136   0.75000   0.00000  Uiso   1.00
loop_
_geom_bond_atom_site_label_1
_geom_bond_atom_site_label_2
_geom_bond_distance
_geom_bond_site_symmetry_2
_ccdc_geom_bond_type
C1     C2      1.406   .     D
C1     H11     1.087   .     S
C1     C50     1.406   .     S
C2     C3      1.453   .     S
C2     C25     1.406   .     S
C3     O4      1.373   .     S
C3     C7      1.389   .     D
O4     C5      1.375   .     S
C5     C6      1.419   .     S
C5     C8      1.385   .     D
C6     C7      1.442   .     S
C6     C20     1.400   .     D
C7     C9      1.412   .     S
C8     H12     1.089   .     S
C8     C18     1.402   .     S
C9     N10     1.165   .     T
C13    C14     1.404   1_455 D
C13    H23     1.086   .     S
C13    C62     1.404   .     S
C14    C13     1.404   1_655 D
C14    C15     1.448   .     S
C14    C37     1.404   1_545 S
C15    O16     1.371   .     S
C15    C19     1.391   .     D
O16    C17     1.375   .     S
C17    C18     1.418   .     D
C17    C20     1.382   .     S
C18    C19     1.443   .     S
C19    C21     1.410   1_545 S
C20    H24     1.089   .     S
C21    C19     1.410   1_565 S
C21    N22     1.166   .     T
C25    C26     1.406   .     D
C25    H35     1.087   .     S
C26    C27     1.453   .     S
C26    C49     1.406   .     S
C27    O28     1.373   .     S
C27    C31     1.389   .     D
O28    C29     1.375   .     S
C29    C30     1.419   .     S
C29    C32     1.385   .     D
C30    C31     1.442   .     S
C30    C44     1.400   .     D
C31    C33     1.412   .     S
C32    H36     1.089   .     S
C32    C42     1.402   .     S
C33    N34     1.165   .     T
C37    C14     1.404   1_565 S
C37    C38     1.404   .     D
C37    H47     1.086   .     S
C38    C39     1.448   .     S
C38    C61     1.404   1_655 S
C39    O40     1.371   .     S
C39    C43     1.391   .     D
O40    C41     1.375   .     S
C41    C42     1.418   .     D
C41    C44     1.382   .     S
C42    C43     1.443   .     S
C43    C45     1.410   1_655 S
C44    H48     1.089   .     S
C45    C43     1.410   1_455 S
C45    N46     1.166   .     T
C49    C50     1.406   .     D
C49    H59     1.087   .     S
C50    C51     1.453   .     S
C51    O52     1.373   .     S
C51    C55     1.389   .     D
O52    C53     1.375   .     S
C53    C54     1.419   .     S
C53    C56     1.385   .     D
C54    C55     1.442   .     S
C54    C68     1.400   .     D
C55    C57     1.412   .     S
C56    H60     1.089   .     S
C56    C66     1.402   .     S
C57    N58     1.165   .     T
C61    C38     1.404   1_455 S
C61    C62     1.404   1_565 D
C61    H71     1.086   .     S
C62    C61     1.404   1_545 D
C62    C63     1.448   .     S
C63    O64     1.371   .     S
C63    C67     1.391   .     D
O64    C65     1.375   .     S
C65    C66     1.418   .     D
C65    C68     1.382   .     S
C66    C67     1.443   .     S
C67    C69     1.410   .     S
C68    H72     1.089   .     S
C69    N70     1.166   .     T
C73    C74     1.406   .     D
C73    H83     1.087   .     S
C73    C122    1.406   .     S
C74    C75     1.453   .     S
C74    C97     1.406   .     S
C75    O76     1.373   .     S
C75    C79     1.389   .     D
O76    C77     1.375   .     S
C77    C78     1.419   .     D
C77    C80     1.385   .     S
C78    C79     1.442   .     S
C78    C92     1.400   .     S
C79    C81     1.412   .     S
C80    H84     1.089   .     S
C80    C90     1.402   .     D
C81    N82     1.165   .     T
C85    C86     1.404   1_655 D
C85    H95     1.086   .     S
C85    C134    1.404   .     S
C86    C85     1.404   1_455 D
C86    C87     1.448   .     S
C86    C109    1.404   1_565 S
C87    O88     1.371   .     S
C87    C91     1.391   .     D
O88    C89     1.375   .     S
C89    C90     1.418   .     S
C89    C92     1.382   .     D
C90    C91     1.443   .     S
C91    C93     1.410   1_565 S
C92    H96     1.089   .     S
C93    C91     1.410   1_545 S
C93    N94     1.166   .     T
C97    C98     1.406   .     D
C97    H107    1.087   .     S
C98    C99     1.453   .     S
C98    C121    1.406   .     S
C99    O100    1.373   .     S
C99    C103    1.389   .     D
O100   C101    1.375   .     S
C101   C102    1.419   .     S
C101   C104    1.385   .     D
C102   C103    1.442   .     S
C102   C116    1.400   .     D
C103   C105    1.412   .     S
C104   H108    1.089   .     S
C104   C114    1.402   .     S
C105   N106    1.165   .     T
C109   C86     1.404   1_545 S
C109   C110    1.404   .     D
C109   H119    1.086   .     S
C110   C111    1.448   .     S
C110   C133    1.404   1_455 S
C111   O112    1.371   .     S
C111   C115    1.391   .     D
O112   C113    1.375   .     S
C113   C114    1.418   .     D
C113   C116    1.382   .     S
C114   C115    1.443   .     S
C115   C117    1.410   1_455 S
C116   H120    1.089   .     S
C117   C115    1.410   1_655 S
C117   N118    1.166   .     T
C121   C122    1.406   .     D
C121   H131    1.087   .     S
C122   C123    1.453   .     S
C123   O124    1.373   .     S
C123   C127    1.389   .     D
O124   C125    1.375   .     S
C125   C126    1.419   .     D
C125   C128    1.385   .     S
C126   C127    1.442   .     S
C126   C140    1.400   .     S
C127   C129    1.412   .     S
C128   H132    1.089   .     S
C128   C138    1.402   .     D
C129   N130    1.165   .     T
C133   C110    1.404   1_655 S
C133   C134    1.404   1_545 D
C133   H143    1.086   .     S
C134   C133    1.404   1_565 D
C134   C135    1.448   .     S
C135   O136    1.371   .     S
C135   C139    1.391   .     D
O136   C137    1.375   .     S
C137   C138    1.418   .     S
C137   C140    1.382   .     D
C138   C139    1.443   .     S
C139   C141    1.410   .     S
C140   H144    1.089   .     S
C141   N142    1.166   .     T
