data_247
_audit_creation_date              2023-09-08
_audit_creation_method            'Materials Studio'
_symmetry_space_group_name_H-M    'P1'
_symmetry_Int_Tables_number       1
_symmetry_cell_setting            triclinic
loop_
_symmetry_equiv_pos_as_xyz
  x,y,z
_cell_length_a                    21.3752
_cell_length_b                    21.3752
_cell_length_c                    3.6120
_cell_angle_alpha                 90.0000
_cell_angle_beta                  90.0000
_cell_angle_gamma                 120.0000
loop_
_atom_site_label
_atom_site_type_symbol
_atom_site_fract_x
_atom_site_fract_y
_atom_site_fract_z
_atom_site_U_iso_or_equiv
_atom_site_adp_type
_atom_site_occupancy
C1     C     0.59565   0.27221   0.50000   0.00000  Uiso   1.00
C2     C     0.65713   0.26445   0.50000   0.00000  Uiso   1.00
C3     C     0.53479   0.19984   0.50000   0.00000  Uiso   1.00
C4     C     0.56287   0.15340   0.50000   0.00000  Uiso   1.00
O5     O     0.63738   0.19310   0.50000   0.00000  Uiso   1.00
C6     C     0.72024   0.53835   0.50000   0.00000  Uiso   1.00
N7     N     0.76724   0.59806   0.50000   0.00000  Uiso   1.00
C8     C     0.45504   0.53078   0.50000   0.00000  Uiso   1.00
C9     C     0.42479   0.45501   0.50000   0.00000  Uiso   1.00
C10    C     0.46898   0.42480   0.50000   0.00000  Uiso   1.00
H11    H     0.36645   0.41936   0.50000   0.00000  Uiso   1.00
H12    H     0.44462   0.36625   0.50000   0.00000  Uiso   1.00
C13    C     0.72779   0.32344   0.50000   0.00000  Uiso   1.00
C14    C     0.73555   0.39268   0.50000   0.00000  Uiso   1.00
C15    C     0.80016   0.33495   0.50000   0.00000  Uiso   1.00
C16    C     0.84660   0.40947   0.50000   0.00000  Uiso   1.00
O17    O     0.80690   0.44428   0.50000   0.00000  Uiso   1.00
C18    C     0.46165   0.18189   0.50000   0.00000  Uiso   1.00
N19    N     0.40194   0.16918   0.50000   0.00000  Uiso   1.00
C20    C     0.46922   0.92426   0.50000   0.00000  Uiso   1.00
C21    C     0.54499   0.96978   0.50000   0.00000  Uiso   1.00
C22    C     0.57520   0.04418   0.50000   0.00000  Uiso   1.00
H23    H     0.58064   0.94709   0.50000   0.00000  Uiso   1.00
H24    H     0.63375   0.07837   0.50000   0.00000  Uiso   1.00
C25    C     0.67656   0.40435   0.50000   0.00000  Uiso   1.00
C26    C     0.60732   0.34287   0.50000   0.00000  Uiso   1.00
C27    C     0.66505   0.46521   0.50000   0.00000  Uiso   1.00
C28    C     0.59053   0.43713   0.50000   0.00000  Uiso   1.00
O29    O     0.55572   0.36262   0.50000   0.00000  Uiso   1.00
C30    C     0.81811   0.27976   0.50000   0.00000  Uiso   1.00
N31    N     0.83082   0.23276   0.50000   0.00000  Uiso   1.00
C32    C     0.07574   0.54496   0.50000   0.00000  Uiso   1.00
C33    C     0.03022   0.57521   0.50000   0.00000  Uiso   1.00
C34    C     0.95582   0.53102   0.50000   0.00000  Uiso   1.00
H35    H     0.05291   0.63355   0.50000   0.00000  Uiso   1.00
H36    H     0.92163   0.55538   0.50000   0.00000  Uiso   1.00
C37    C     0.40435   0.72779   0.50000   0.00000  Uiso   1.00
C38    C     0.34287   0.73555   0.50000   0.00000  Uiso   1.00
C39    C     0.46521   0.80016   0.50000   0.00000  Uiso   1.00
C40    C     0.43713   0.84660   0.50000   0.00000  Uiso   1.00
O41    O     0.36262   0.80690   0.50000   0.00000  Uiso   1.00
C42    C     0.27976   0.46165   0.50000   0.00000  Uiso   1.00
N43    N     0.23276   0.40194   0.50000   0.00000  Uiso   1.00
C44    C     0.54496   0.46922   0.50000   0.00000  Uiso   1.00
C45    C     0.57521   0.54499   0.50000   0.00000  Uiso   1.00
C46    C     0.53102   0.57520   0.50000   0.00000  Uiso   1.00
H47    H     0.63355   0.58064   0.50000   0.00000  Uiso   1.00
H48    H     0.55538   0.63375   0.50000   0.00000  Uiso   1.00
C49    C     0.27221   0.67656   0.50000   0.00000  Uiso   1.00
C50    C     0.26445   0.60732   0.50000   0.00000  Uiso   1.00
C51    C     0.19984   0.66505   0.50000   0.00000  Uiso   1.00
C52    C     0.15340   0.59053   0.50000   0.00000  Uiso   1.00
O53    O     0.19310   0.55572   0.50000   0.00000  Uiso   1.00
C54    C     0.53835   0.81811   0.50000   0.00000  Uiso   1.00
N55    N     0.59806   0.83082   0.50000   0.00000  Uiso   1.00
C56    C     0.53078   0.07574   0.50000   0.00000  Uiso   1.00
C57    C     0.45501   0.03022   0.50000   0.00000  Uiso   1.00
C58    C     0.42480   0.95582   0.50000   0.00000  Uiso   1.00
H59    H     0.41936   0.05291   0.50000   0.00000  Uiso   1.00
H60    H     0.36625   0.92163   0.50000   0.00000  Uiso   1.00
C61    C     0.32344   0.59565   0.50000   0.00000  Uiso   1.00
C62    C     0.39268   0.65713   0.50000   0.00000  Uiso   1.00
C63    C     0.33495   0.53479   0.50000   0.00000  Uiso   1.00
C64    C     0.40947   0.56287   0.50000   0.00000  Uiso   1.00
O65    O     0.44428   0.63738   0.50000   0.00000  Uiso   1.00
C66    C     0.18189   0.72024   0.50000   0.00000  Uiso   1.00
N67    N     0.16918   0.76724   0.50000   0.00000  Uiso   1.00
C68    C     0.92426   0.45504   0.50000   0.00000  Uiso   1.00
C69    C     0.96978   0.42479   0.50000   0.00000  Uiso   1.00
C70    C     0.04418   0.46898   0.50000   0.00000  Uiso   1.00
H71    H     0.94709   0.36645   0.50000   0.00000  Uiso   1.00
H72    H     0.07837   0.44462   0.50000   0.00000  Uiso   1.00
loop_
_geom_bond_atom_site_label_1
_geom_bond_atom_site_label_2
_geom_bond_distance
_geom_bond_site_symmetry_2
_ccdc_geom_bond_type
C1     C2      1.404   .     D
C1     C3      1.440   .     S
C1     C26     1.402   .     S
C2     O5      1.364   .     S
C2     C13     1.402   .     S
C3     C4      1.393   .     D
C3     C18     1.411   .     S
C4     O5      1.380   .     S
C4     C56     1.445   .     S
C6     N7      1.164   .     T
C6     C27     1.411   .     S
C8     C9      1.412   .     S
C8     C46     1.413   .     D
C8     C64     1.445   .     S
C9     C10     1.385   .     D
C9     H11     1.089   .     S
C10    H12     1.089   .     S
C10    C44     1.413   .     S
C13    C14     1.404   .     D
C13    C15     1.440   .     S
C14    O17     1.364   .     S
C14    C25     1.402   .     S
C15    C16     1.393   .     D
C15    C30     1.411   .     S
C16    O17     1.380   .     S
C16    C68     1.445   .     S
C18    N19     1.164   .     T
C20    C21     1.412   .     D
C20    C40     1.445   .     S
C20    C58     1.413   .     S
C21    C22     1.385   1_565 S
C21    H23     1.089   .     S
C22    C21     1.385   1_545 S
C22    H24     1.089   .     S
C22    C56     1.413   .     D
C25    C26     1.404   .     D
C25    C27     1.440   .     S
C26    O29     1.364   .     S
C27    C28     1.393   .     D
C28    O29     1.380   .     S
C28    C44     1.445   .     S
C30    N31     1.164   .     T
C32    C33     1.412   .     D
C32    C52     1.445   .     S
C32    C70     1.413   .     S
C33    C34     1.385   1_455 S
C33    H35     1.089   .     S
C34    C33     1.385   1_655 S
C34    H36     1.089   .     S
C34    C68     1.413   .     D
C37    C38     1.404   .     S
C37    C39     1.440   .     S
C37    C62     1.402   .     D
C38    O41     1.364   .     S
C38    C49     1.402   .     D
C39    C40     1.393   .     D
C39    C54     1.411   .     S
C40    O41     1.380   .     S
C42    N43     1.164   .     T
C42    C63     1.411   .     S
C44    C45     1.412   .     D
C45    C46     1.385   .     S
C45    H47     1.089   .     S
C46    H48     1.089   .     S
C49    C50     1.404   .     S
C49    C51     1.440   .     S
C50    O53     1.364   .     S
C50    C61     1.402   .     D
C51    C52     1.393   .     D
C51    C66     1.411   .     S
C52    O53     1.380   .     S
C54    N55     1.164   .     T
C56    C57     1.412   .     S
C57    C58     1.385   1_545 D
C57    H59     1.089   .     S
C58    C57     1.385   1_565 D
C58    H60     1.089   .     S
C61    C62     1.404   .     S
C61    C63     1.440   .     S
C62    O65     1.364   .     S
C63    C64     1.393   .     D
C64    O65     1.380   .     S
C66    N67     1.164   .     T
C68    C69     1.412   .     S
C69    C70     1.385   1_655 D
C69    H71     1.089   .     S
C70    C69     1.385   1_455 D
C70    H72     1.089   .     S
