data_248
_audit_creation_date              2023-09-08
_audit_creation_method            'Materials Studio'
_symmetry_space_group_name_H-M    'P1'
_symmetry_Int_Tables_number       1
_symmetry_cell_setting            triclinic
loop_
_symmetry_equiv_pos_as_xyz
  x,y,z
_cell_length_a                    21.3688
_cell_length_b                    21.3688
_cell_length_c                    6.6032
_cell_angle_alpha                 90.0000
_cell_angle_beta                  90.0000
_cell_angle_gamma                 120.0000
loop_
_atom_site_label
_atom_site_type_symbol
_atom_site_fract_x
_atom_site_fract_y
_atom_site_fract_z
_atom_site_U_iso_or_equiv
_atom_site_adp_type
_atom_site_occupancy
C1     C     0.92888   0.93912   0.25000   0.00000  Uiso   1.00
C2     C     0.99015   0.93104   0.25000   0.00000  Uiso   1.00
C3     C     0.86783   0.86684   0.25000   0.00000  Uiso   1.00
C4     C     0.89558   0.81997   0.25000   0.00000  Uiso   1.00
O5     O     0.97010   0.85960   0.25000   0.00000  Uiso   1.00
C6     C     0.05464   0.20504   0.25000   0.00000  Uiso   1.00
N7     N     0.10251   0.26441   0.25000   0.00000  Uiso   1.00
C8     C     0.78897   0.19790   0.25000   0.00000  Uiso   1.00
C9     C     0.75878   0.12212   0.25000   0.00000  Uiso   1.00
C10    C     0.80304   0.09204   0.25000   0.00000  Uiso   1.00
H11    H     0.70045   0.08656   0.25000   0.00000  Uiso   1.00
H12    H     0.77880   0.03350   0.25000   0.00000  Uiso   1.00
C13    C     0.73774   0.39460   0.25000   0.00000  Uiso   1.00
C14    C     0.67613   0.40225   0.25000   0.00000  Uiso   1.00
C15    C     0.79852   0.46710   0.25000   0.00000  Uiso   1.00
C16    C     0.77017   0.51340   0.25000   0.00000  Uiso   1.00
O17    O     0.69574   0.47356   0.25000   0.00000  Uiso   1.00
C18    C     0.61386   0.12807   0.25000   0.00000  Uiso   1.00
N19    N     0.56786   0.06785   0.25000   0.00000  Uiso   1.00
C20    C     0.87897   0.13650   0.25000   0.00000  Uiso   1.00
C21    C     0.90920   0.21222   0.25000   0.00000  Uiso   1.00
C22    C     0.86498   0.24246   0.25000   0.00000  Uiso   1.00
H23    H     0.96757   0.24781   0.25000   0.00000  Uiso   1.00
H24    H     0.88915   0.30101   0.25000   0.00000  Uiso   1.00
C25    C     0.06088   0.98976   0.25000   0.00000  Uiso   1.00
C26    C     0.06896   0.05911   0.25000   0.00000  Uiso   1.00
C27    C     0.13316   0.00099   0.25000   0.00000  Uiso   1.00
C28    C     0.18003   0.07561   0.25000   0.00000  Uiso   1.00
O29    O     0.14040   0.11050   0.25000   0.00000  Uiso   1.00
C30    C     0.79496   0.84960   0.25000   0.00000  Uiso   1.00
N31    N     0.73559   0.83810   0.25000   0.00000  Uiso   1.00
C32    C     0.80210   0.59107   0.25000   0.00000  Uiso   1.00
C33    C     0.87788   0.63666   0.25000   0.00000  Uiso   1.00
C34    C     0.90796   0.71100   0.25000   0.00000  Uiso   1.00
H35    H     0.91344   0.61389   0.25000   0.00000  Uiso   1.00
H36    H     0.96650   0.74530   0.25000   0.00000  Uiso   1.00
C37    C     0.60540   0.34314   0.25000   0.00000  Uiso   1.00
C38    C     0.59775   0.27388   0.25000   0.00000  Uiso   1.00
C39    C     0.53290   0.33142   0.25000   0.00000  Uiso   1.00
C40    C     0.48660   0.25677   0.25000   0.00000  Uiso   1.00
O41    O     0.52644   0.22218   0.25000   0.00000  Uiso   1.00
C42    C     0.87193   0.48579   0.25000   0.00000  Uiso   1.00
N43    N     0.93215   0.50001   0.25000   0.00000  Uiso   1.00
C44    C     0.86350   0.74247   0.25000   0.00000  Uiso   1.00
C45    C     0.78778   0.69698   0.25000   0.00000  Uiso   1.00
C46    C     0.75754   0.62252   0.25000   0.00000  Uiso   1.00
H47    H     0.75219   0.71976   0.25000   0.00000  Uiso   1.00
H48    H     0.69899   0.58814   0.25000   0.00000  Uiso   1.00
C49    C     0.01024   0.07112   0.25000   0.00000  Uiso   1.00
C50    C     0.94089   0.00985   0.25000   0.00000  Uiso   1.00
C51    C     0.99901   0.13217   0.25000   0.00000  Uiso   1.00
C52    C     0.92439   0.10442   0.25000   0.00000  Uiso   1.00
O53    O     0.88950   0.02990   0.25000   0.00000  Uiso   1.00
C54    C     0.15040   0.94536   0.25000   0.00000  Uiso   1.00
N55    N     0.16190   0.89749   0.25000   0.00000  Uiso   1.00
C56    C     0.40893   0.21103   0.25000   0.00000  Uiso   1.00
C57    C     0.36334   0.24122   0.25000   0.00000  Uiso   1.00
C58    C     0.28900   0.19696   0.25000   0.00000  Uiso   1.00
H59    H     0.38611   0.29955   0.25000   0.00000  Uiso   1.00
H60    H     0.25470   0.22120   0.25000   0.00000  Uiso   1.00
C61    C     0.65686   0.26226   0.25000   0.00000  Uiso   1.00
C62    C     0.72612   0.32387   0.25000   0.00000  Uiso   1.00
C63    C     0.66858   0.20148   0.25000   0.00000  Uiso   1.00
C64    C     0.74323   0.22983   0.25000   0.00000  Uiso   1.00
O65    O     0.77782   0.30426   0.25000   0.00000  Uiso   1.00
C66    C     0.51421   0.38614   0.25000   0.00000  Uiso   1.00
N67    N     0.49999   0.43214   0.25000   0.00000  Uiso   1.00
C68    C     0.25753   0.12103   0.25000   0.00000  Uiso   1.00
C69    C     0.30302   0.09080   0.25000   0.00000  Uiso   1.00
C70    C     0.37748   0.13502   0.25000   0.00000  Uiso   1.00
H71    H     0.28024   0.03243   0.25000   0.00000  Uiso   1.00
H72    H     0.41186   0.11085   0.25000   0.00000  Uiso   1.00
C73    C     0.07112   0.06088   0.75000   0.00000  Uiso   1.00
C74    C     0.00985   0.06896   0.75000   0.00000  Uiso   1.00
C75    C     0.13217   0.13316   0.75000   0.00000  Uiso   1.00
C76    C     0.10442   0.18003   0.75000   0.00000  Uiso   1.00
O77    O     0.02990   0.14040   0.75000   0.00000  Uiso   1.00
C78    C     0.94536   0.79496   0.75000   0.00000  Uiso   1.00
N79    N     0.89749   0.73559   0.75000   0.00000  Uiso   1.00
C80    C     0.21103   0.80210   0.75000   0.00000  Uiso   1.00
C81    C     0.24122   0.87788   0.75000   0.00000  Uiso   1.00
C82    C     0.19696   0.90796   0.75000   0.00000  Uiso   1.00
H83    H     0.29955   0.91344   0.75000   0.00000  Uiso   1.00
H84    H     0.22120   0.96650   0.75000   0.00000  Uiso   1.00
C85    C     0.26226   0.60540   0.75000   0.00000  Uiso   1.00
C86    C     0.32387   0.59775   0.75000   0.00000  Uiso   1.00
C87    C     0.20148   0.53290   0.75000   0.00000  Uiso   1.00
C88    C     0.22983   0.48660   0.75000   0.00000  Uiso   1.00
O89    O     0.30426   0.52644   0.75000   0.00000  Uiso   1.00
C90    C     0.38614   0.87193   0.75000   0.00000  Uiso   1.00
N91    N     0.43214   0.93215   0.75000   0.00000  Uiso   1.00
C92    C     0.12103   0.86350   0.75000   0.00000  Uiso   1.00
C93    C     0.09080   0.78778   0.75000   0.00000  Uiso   1.00
C94    C     0.13502   0.75754   0.75000   0.00000  Uiso   1.00
H95    H     0.03243   0.75219   0.75000   0.00000  Uiso   1.00
H96    H     0.11085   0.69899   0.75000   0.00000  Uiso   1.00
C97    C     0.93912   0.01024   0.75000   0.00000  Uiso   1.00
C98    C     0.93104   0.94089   0.75000   0.00000  Uiso   1.00
C99    C     0.86684   0.99901   0.75000   0.00000  Uiso   1.00
C100   C     0.81997   0.92439   0.75000   0.00000  Uiso   1.00
O101   O     0.85960   0.88950   0.75000   0.00000  Uiso   1.00
C102   C     0.20504   0.15040   0.75000   0.00000  Uiso   1.00
N103   N     0.26441   0.16190   0.75000   0.00000  Uiso   1.00
C104   C     0.19790   0.40893   0.75000   0.00000  Uiso   1.00
C105   C     0.12212   0.36334   0.75000   0.00000  Uiso   1.00
C106   C     0.09204   0.28900   0.75000   0.00000  Uiso   1.00
H107   H     0.08656   0.38611   0.75000   0.00000  Uiso   1.00
H108   H     0.03350   0.25470   0.75000   0.00000  Uiso   1.00
C109   C     0.39460   0.65686   0.75000   0.00000  Uiso   1.00
C110   C     0.40225   0.72612   0.75000   0.00000  Uiso   1.00
C111   C     0.46710   0.66858   0.75000   0.00000  Uiso   1.00
C112   C     0.51340   0.74323   0.75000   0.00000  Uiso   1.00
O113   O     0.47356   0.77782   0.75000   0.00000  Uiso   1.00
C114   C     0.12807   0.51421   0.75000   0.00000  Uiso   1.00
N115   N     0.06785   0.49999   0.75000   0.00000  Uiso   1.00
C116   C     0.13650   0.25753   0.75000   0.00000  Uiso   1.00
C117   C     0.21222   0.30302   0.75000   0.00000  Uiso   1.00
C118   C     0.24246   0.37748   0.75000   0.00000  Uiso   1.00
H119   H     0.24781   0.28024   0.75000   0.00000  Uiso   1.00
H120   H     0.30101   0.41186   0.75000   0.00000  Uiso   1.00
C121   C     0.98976   0.92888   0.75000   0.00000  Uiso   1.00
C122   C     0.05911   0.99015   0.75000   0.00000  Uiso   1.00
C123   C     0.00099   0.86783   0.75000   0.00000  Uiso   1.00
C124   C     0.07561   0.89558   0.75000   0.00000  Uiso   1.00
O125   O     0.11050   0.97010   0.75000   0.00000  Uiso   1.00
C126   C     0.84960   0.05464   0.75000   0.00000  Uiso   1.00
N127   N     0.83810   0.10251   0.75000   0.00000  Uiso   1.00
C128   C     0.59107   0.78897   0.75000   0.00000  Uiso   1.00
C129   C     0.63666   0.75878   0.75000   0.00000  Uiso   1.00
C130   C     0.71100   0.80304   0.75000   0.00000  Uiso   1.00
H131   H     0.61389   0.70045   0.75000   0.00000  Uiso   1.00
H132   H     0.74530   0.77880   0.75000   0.00000  Uiso   1.00
C133   C     0.34314   0.73774   0.75000   0.00000  Uiso   1.00
C134   C     0.27388   0.67613   0.75000   0.00000  Uiso   1.00
C135   C     0.33142   0.79852   0.75000   0.00000  Uiso   1.00
C136   C     0.25677   0.77017   0.75000   0.00000  Uiso   1.00
O137   O     0.22218   0.69574   0.75000   0.00000  Uiso   1.00
C138   C     0.48579   0.61386   0.75000   0.00000  Uiso   1.00
N139   N     0.50001   0.56786   0.75000   0.00000  Uiso   1.00
C140   C     0.74247   0.87897   0.75000   0.00000  Uiso   1.00
C141   C     0.69698   0.90920   0.75000   0.00000  Uiso   1.00
C142   C     0.62252   0.86498   0.75000   0.00000  Uiso   1.00
H143   H     0.71976   0.96757   0.75000   0.00000  Uiso   1.00
H144   H     0.58814   0.88915   0.75000   0.00000  Uiso   1.00
loop_
_geom_bond_atom_site_label_1
_geom_bond_atom_site_label_2
_geom_bond_distance
_geom_bond_site_symmetry_2
_ccdc_geom_bond_type
C1     C2      1.404   .     D
C1     C3      1.440   .     S
C1     C50     1.401   1_565 S
C2     O5      1.364   .     S
C2     C25     1.401   1_655 S
C3     C4      1.396   .     D
C3     C30     1.410   .     S
C4     O5      1.380   .     S
C4     C44     1.441   .     S
C6     N7      1.165   .     T
C6     C51     1.410   1_455 S
C8     C9      1.412   .     S
C8     C22     1.414   .     D
C8     C64     1.445   .     S
C9     C10     1.384   .     D
C9     H11     1.088   .     S
C10    H12     1.089   .     S
C10    C20     1.412   .     S
C13    C14     1.405   .     S
C13    C15     1.440   .     S
C13    C62     1.404   .     D
C14    O17     1.363   .     S
C14    C37     1.404   .     D
C15    C16     1.395   .     D
C15    C42     1.412   .     S
C16    O17     1.379   .     S
C16    C32     1.445   .     S
C18    N19     1.165   .     T
C18    C63     1.412   .     S
C20    C21     1.411   .     D
C20    C52     1.441   .     S
C21    C22     1.386   .     S
C21    H23     1.089   .     S
C22    H24     1.089   .     S
C25    C2      1.401   1_455 S
C25    C26     1.404   1_565 D
C25    C27     1.440   1_565 S
C26    C25     1.404   1_545 D
C26    O29     1.364   .     S
C26    C49     1.401   .     S
C27    C25     1.440   1_545 S
C27    C28     1.396   .     D
C27    C54     1.410   1_545 S
C28    O29     1.380   .     S
C28    C68     1.441   .     S
C30    N31     1.165   .     T
C32    C33     1.412   .     D
C32    C46     1.414   .     S
C33    C34     1.384   .     S
C33    H35     1.088   .     S
C34    H36     1.089   .     S
C34    C44     1.412   .     D
C37    C38     1.405   .     S
C37    C39     1.440   .     S
C38    O41     1.363   .     S
C38    C61     1.404   .     D
C39    C40     1.395   .     D
C39    C66     1.412   .     S
C40    O41     1.379   .     S
C40    C56     1.445   .     S
C42    N43     1.165   .     T
C44    C45     1.411   .     S
C45    C46     1.386   .     D
C45    H47     1.089   .     S
C46    H48     1.089   .     S
C49    C50     1.404   1_455 D
C49    C51     1.440   1_455 S
C50    C49     1.404   1_655 D
C50    C1      1.401   1_545 S
C50    O53     1.364   .     S
C51    C6      1.410   1_655 S
C51    C49     1.440   1_655 S
C51    C52     1.396   .     D
C52    O53     1.380   .     S
C54    C27     1.410   1_565 S
C54    N55     1.165   .     T
C56    C57     1.412   .     S
C56    C70     1.414   .     D
C57    C58     1.384   .     D
C57    H59     1.088   .     S
C58    H60     1.089   .     S
C58    C68     1.412   .     S
C61    C62     1.405   .     S
C61    C63     1.440   .     S
C62    O65     1.363   .     S
C63    C64     1.395   .     D
C64    O65     1.379   .     S
C66    N67     1.165   .     T
C68    C69     1.411   .     D
C69    C70     1.386   .     S
C69    H71     1.089   .     S
C70    H72     1.089   .     S
C73    C74     1.404   .     D
C73    C75     1.440   .     S
C73    C122    1.401   1_545 S
C74    O77     1.364   .     S
C74    C97     1.401   1_455 S
C75    C76     1.396   .     D
C75    C102    1.410   .     S
C76    O77     1.380   .     S
C76    C116    1.441   .     S
C78    N79     1.165   .     T
C78    C123    1.410   1_655 S
C80    C81     1.412   .     S
C80    C94     1.414   .     D
C80    C136    1.445   .     S
C81    C82     1.384   .     D
C81    H83     1.088   .     S
C82    H84     1.089   .     S
C82    C92     1.412   .     S
C85    C86     1.405   .     S
C85    C87     1.440   .     S
C85    C134    1.404   .     D
C86    O89     1.363   .     S
C86    C109    1.404   .     D
C87    C88     1.395   .     D
C87    C114    1.412   .     S
C88    O89     1.379   .     S
C88    C104    1.445   .     S
C90    N91     1.165   .     T
C90    C135    1.412   .     S
C92    C93     1.411   .     D
C92    C124    1.441   .     S
C93    C94     1.386   .     S
C93    H95     1.089   .     S
C94    H96     1.089   .     S
C97    C74     1.401   1_655 S
C97    C98     1.404   1_545 D
C97    C99     1.440   1_545 S
C98    C97     1.404   1_565 D
C98    O101    1.364   .     S
C98    C121    1.401   .     S
C99    C97     1.440   1_565 S
C99    C100    1.396   .     D
C99    C126    1.410   1_565 S
C100   O101    1.380   .     S
C100   C140    1.441   .     S
C102   N103    1.165   .     T
C104   C105    1.412   .     D
C104   C118    1.414   .     S
C105   C106    1.384   .     S
C105   H107    1.088   .     S
C106   H108    1.089   .     S
C106   C116    1.412   .     D
C109   C110    1.405   .     S
C109   C111    1.440   .     S
C110   O113    1.363   .     S
C110   C133    1.404   .     D
C111   C112    1.395   .     D
C111   C138    1.412   .     S
C112   O113    1.379   .     S
C112   C128    1.445   .     S
C114   N115    1.165   .     T
C116   C117    1.411   .     S
C117   C118    1.386   .     D
C117   H119    1.089   .     S
C118   H120    1.089   .     S
C121   C122    1.404   1_655 D
C121   C123    1.440   1_655 S
C122   C121    1.404   1_455 D
C122   C73     1.401   1_565 S
C122   O125    1.364   .     S
C123   C121    1.440   1_455 S
C123   C78     1.410   1_455 S
C123   C124    1.396   .     D
C124   O125    1.380   .     S
C126   C99     1.410   1_545 S
C126   N127    1.165   .     T
C128   C129    1.412   .     S
C128   C142    1.414   .     D
C129   C130    1.384   .     D
C129   H131    1.088   .     S
C130   H132    1.089   .     S
C130   C140    1.412   .     S
C133   C134    1.405   .     S
C133   C135    1.440   .     S
C134   O137    1.363   .     S
C135   C136    1.395   .     D
C136   O137    1.379   .     S
C138   N139    1.165   .     T
C140   C141    1.411   .     D
C141   C142    1.386   .     S
C141   H143    1.089   .     S
C142   H144    1.089   .     S
