data_250
_audit_creation_date              2023-09-08
_audit_creation_method            'Materials Studio'
_symmetry_space_group_name_H-M    'P1'
_symmetry_Int_Tables_number       1
_symmetry_cell_setting            triclinic
loop_
_symmetry_equiv_pos_as_xyz
  x,y,z
_cell_length_a                    25.5836
_cell_length_b                    25.5836
_cell_length_c                    4.2164
_cell_angle_alpha                 90.0000
_cell_angle_beta                  90.0000
_cell_angle_gamma                 120.0000
loop_
_atom_site_label
_atom_site_type_symbol
_atom_site_fract_x
_atom_site_fract_y
_atom_site_fract_z
_atom_site_U_iso_or_equiv
_atom_site_adp_type
_atom_site_occupancy
C1     C     0.38951   0.66875  -0.02676   0.00000  Uiso   1.00
C2     C     0.33125   0.72076  -0.02676   0.00000  Uiso   1.00
C3     C     0.27924   0.61049  -0.02676   0.00000  Uiso   1.00
C4     C     0.38738   0.72286  -0.02476   0.00000  Uiso   1.00
C5     C     0.27714   0.66452  -0.02476   0.00000  Uiso   1.00
C6     C     0.33548   0.61262  -0.02476   0.00000  Uiso   1.00
N7     N     0.33507   0.55945  -0.01494   0.00000  Uiso   1.00
N8     N     0.44055   0.77563  -0.01494   0.00000  Uiso   1.00
N9     N     0.22437   0.66493  -0.01494   0.00000  Uiso   1.00
N10    N     0.22862   0.55541  -0.02691   0.00000  Uiso   1.00
N11    N     0.44459   0.67322  -0.02691   0.00000  Uiso   1.00
N12    N     0.32679   0.77138  -0.02691   0.00000  Uiso   1.00
C13    C     0.77613   0.66474  -0.03175   0.00000  Uiso   1.00
C14    C     0.33527   0.11139  -0.03175   0.00000  Uiso   1.00
C15    C     0.88861   0.22387  -0.03175   0.00000  Uiso   1.00
C16    C     0.85270   0.63430  -0.09858   0.00000  Uiso   1.00
C17    C     0.36570   0.21840  -0.09858   0.00000  Uiso   1.00
C18    C     0.78160   0.14730  -0.09858   0.00000  Uiso   1.00
C19    C     0.81940   0.71579   0.13938   0.00000  Uiso   1.00
C20    C     0.28421   0.10361   0.13938   0.00000  Uiso   1.00
C21    C     0.89639   0.18060   0.13938   0.00000  Uiso   1.00
C22    C     0.79360   0.62371  -0.14623   0.00000  Uiso   1.00
C23    C     0.37629   0.16989  -0.14623   0.00000  Uiso   1.00
C24    C     0.83011   0.20640  -0.14623   0.00000  Uiso   1.00
H25    H     0.86419   0.60418  -0.18785   0.00000  Uiso   1.00
H26    H     0.39583   0.26001  -0.18785   0.00000  Uiso   1.00
H27    H     0.73999   0.13581  -0.18785   0.00000  Uiso   1.00
H28    H     0.80843   0.74607   0.23180   0.00000  Uiso   1.00
H29    H     0.25394   0.06237   0.23180   0.00000  Uiso   1.00
H30    H     0.93763   0.19157   0.23180   0.00000  Uiso   1.00
H31    H     0.76357   0.58596  -0.26877   0.00000  Uiso   1.00
H32    H     0.41404   0.17761  -0.26877   0.00000  Uiso   1.00
H33    H     0.82239   0.23643  -0.26877   0.00000  Uiso   1.00
C34    C     0.31347   0.20972   0.06254   0.00000  Uiso   1.00
C35    C     0.79028   0.10375   0.06254   0.00000  Uiso   1.00
C36    C     0.89625   0.68653   0.06254   0.00000  Uiso   1.00
C37    C     0.27333   0.15175   0.18466   0.00000  Uiso   1.00
C38    C     0.84825   0.12157   0.18466   0.00000  Uiso   1.00
C39    C     0.87843   0.72667   0.18466   0.00000  Uiso   1.00
H40    H     0.90835   0.76447   0.30752   0.00000  Uiso   1.00
H41    H     0.23553   0.14388   0.30752   0.00000  Uiso   1.00
H42    H     0.85613   0.09165   0.30752   0.00000  Uiso   1.00
C43    C     0.28467   0.50355  -0.00772   0.00000  Uiso   1.00
C44    C     0.49645   0.78112  -0.00772   0.00000  Uiso   1.00
C45    C     0.21888   0.71534  -0.00772   0.00000  Uiso   1.00
C46    C     0.22738   0.50145  -0.02040   0.00000  Uiso   1.00
C47    C     0.49855   0.72593  -0.02040   0.00000  Uiso   1.00
C48    C     0.27407   0.77262  -0.02040   0.00000  Uiso   1.00
C49    C     0.29746   0.45544   0.00808   0.00000  Uiso   1.00
C50    C     0.54456   0.84202   0.00808   0.00000  Uiso   1.00
C51    C     0.15798   0.70254   0.00808   0.00000  Uiso   1.00
C52    C     0.34888   0.46221   0.17483   0.00000  Uiso   1.00
C53    C     0.53779   0.88667   0.17483   0.00000  Uiso   1.00
C54    C     0.11333   0.65112   0.17483   0.00000  Uiso   1.00
C55    C     0.36322   0.41565   0.18619   0.00000  Uiso   1.00
C56    C     0.58435   0.94757   0.18619   0.00000  Uiso   1.00
C57    C     0.05243   0.63678   0.18619   0.00000  Uiso   1.00
C58    C     0.32577   0.35995   0.03720   0.00000  Uiso   1.00
C59    C     0.64005   0.96582   0.03720   0.00000  Uiso   1.00
C60    C     0.03418   0.67423   0.03720   0.00000  Uiso   1.00
C61    C     0.27496   0.35255  -0.13145   0.00000  Uiso   1.00
C62    C     0.64745   0.92241  -0.13145   0.00000  Uiso   1.00
C63    C     0.07759   0.72504  -0.13145   0.00000  Uiso   1.00
C64    C     0.26173   0.39955  -0.14622   0.00000  Uiso   1.00
C65    C     0.60045   0.86218  -0.14622   0.00000  Uiso   1.00
C66    C     0.13782   0.73827  -0.14622   0.00000  Uiso   1.00
H67    H     0.37664   0.50165   0.29222   0.00000  Uiso   1.00
H68    H     0.49835   0.87499   0.29222   0.00000  Uiso   1.00
H69    H     0.12501   0.62336   0.29222   0.00000  Uiso   1.00
H70    H     0.40058   0.42200   0.30731   0.00000  Uiso   1.00
H71    H     0.57800   0.97858   0.30731   0.00000  Uiso   1.00
H72    H     0.02142   0.59942   0.30731   0.00000  Uiso   1.00
H73    H     0.24774   0.31307  -0.24832   0.00000  Uiso   1.00
H74    H     0.68693   0.93467  -0.24832   0.00000  Uiso   1.00
H75    H     0.06533   0.75226  -0.24832   0.00000  Uiso   1.00
H76    H     0.22511   0.39204  -0.27202   0.00000  Uiso   1.00
H77    H     0.60796   0.83307  -0.27202   0.00000  Uiso   1.00
H78    H     0.16693   0.77489  -0.27202   0.00000  Uiso   1.00
C79    C     0.16798   0.45070  -0.01667   0.00000  Uiso   1.00
C80    C     0.54930   0.71729  -0.01667   0.00000  Uiso   1.00
C81    C     0.28271   0.83202  -0.01667   0.00000  Uiso   1.00
C82    C     0.15281   0.39880   0.16594   0.00000  Uiso   1.00
C83    C     0.60120   0.75401   0.16594   0.00000  Uiso   1.00
C84    C     0.24599   0.84719   0.16594   0.00000  Uiso   1.00
C85    C     0.09408   0.34889   0.17373   0.00000  Uiso   1.00
C86    C     0.65111   0.74518   0.17373   0.00000  Uiso   1.00
C87    C     0.25482   0.90593   0.17373   0.00000  Uiso   1.00
C88    C     0.04734   0.34953   0.00236   0.00000  Uiso   1.00
C89    C     0.65047   0.69781   0.00236   0.00000  Uiso   1.00
C90    C     0.30219   0.95266   0.00236   0.00000  Uiso   1.00
C91    C     0.06059   0.40115  -0.17788   0.00000  Uiso   1.00
C92    C     0.59885   0.65945  -0.17788   0.00000  Uiso   1.00
C93    C     0.34056   0.93941  -0.17788   0.00000  Uiso   1.00
C94    C     0.12004   0.45071  -0.18763   0.00000  Uiso   1.00
C95    C     0.54929   0.66933  -0.18763   0.00000  Uiso   1.00
C96    C     0.33067   0.87996  -0.18763   0.00000  Uiso   1.00
H97    H     0.18473   0.39685   0.29698   0.00000  Uiso   1.00
H98    H     0.60315   0.78788   0.29698   0.00000  Uiso   1.00
H99    H     0.21212   0.81527   0.29698   0.00000  Uiso   1.00
H100   H     0.08532   0.31204   0.30796   0.00000  Uiso   1.00
H101   H     0.68796   0.77328   0.30796   0.00000  Uiso   1.00
H102   H     0.22672   0.91468   0.30796   0.00000  Uiso   1.00
H103   H     0.02744   0.40273  -0.30478   0.00000  Uiso   1.00
H104   H     0.59728   0.62471  -0.30478   0.00000  Uiso   1.00
H105   H     0.37529   0.97256  -0.30478   0.00000  Uiso   1.00
H106   H     0.12830   0.48724  -0.32393   0.00000  Uiso   1.00
H107   H     0.51277   0.64106  -0.32393   0.00000  Uiso   1.00
H108   H     0.35894   0.87170  -0.32393   0.00000  Uiso   1.00
N109   N     0.33944   0.31524   0.05395   0.00000  Uiso   1.00
N110   N     0.68476   0.02420   0.05395   0.00000  Uiso   1.00
N111   N     0.97580   0.66056   0.05395   0.00000  Uiso   1.00
C112   C     0.29905   0.25583   0.09372   0.00000  Uiso   1.00
C113   C     0.74418   0.04322   0.09372   0.00000  Uiso   1.00
C114   C     0.95678   0.70096   0.09372   0.00000  Uiso   1.00
H115   H     0.25529   0.24356   0.14762   0.00000  Uiso   1.00
H116   H     0.75644   0.01173   0.14762   0.00000  Uiso   1.00
H117   H     0.98827   0.74471   0.14762   0.00000  Uiso   1.00
N118   N     0.99290   0.29890   0.02652   0.00000  Uiso   1.00
N119   N     0.70110   0.69400   0.02652   0.00000  Uiso   1.00
N120   N     0.30600   0.00710   0.02652   0.00000  Uiso   1.00
C121   C     0.93760   0.28227  -0.09141   0.00000  Uiso   1.00
C122   C     0.71773   0.65533  -0.09141   0.00000  Uiso   1.00
C123   C     0.34467   0.06240  -0.09141   0.00000  Uiso   1.00
H124   H     0.93135   0.31185  -0.22706   0.00000  Uiso   1.00
H125   H     0.68815   0.61950  -0.22706   0.00000  Uiso   1.00
H126   H     0.38050   0.06865  -0.22706   0.00000  Uiso   1.00
loop_
_geom_bond_atom_site_label_1
_geom_bond_atom_site_label_2
_geom_bond_distance
_geom_bond_site_symmetry_2
_ccdc_geom_bond_type
C1     C4      1.412   .     S
C1     C6      1.410   .     S
C1     N11     1.356   .     D
C2     C4      1.410   .     D
C2     C5      1.412   .     S
C2     N12     1.356   .     S
C3     C5      1.410   .     S
C3     C6      1.412   .     D
C3     N10     1.356   .     S
C4     N8      1.356   .     S
C5     N9      1.356   .     D
C6     N7      1.356   .     S
N7     C43     1.366   .     D
N8     C44     1.366   .     D
N9     C45     1.366   .     S
N10    C46     1.365   .     D
N11    C47     1.365   .     S
N12    C48     1.365   .     D
C13    C19     1.417   .     S
C13    C22     1.416   .     S
C13    C122    1.412   .     D
C14    C20     1.417   .     S
C14    C23     1.416   .     D
C14    C123    1.412   .     S
C15    C21     1.417   .     S
C15    C24     1.416   .     D
C15    C121    1.412   .     S
C16    C22     1.411   .     D
C16    H25     1.024   .     S
C16    C36     1.414   .     S
C17    C23     1.411   .     S
C17    H26     1.024   .     S
C17    C34     1.414   .     D
C18    C24     1.411   .     S
C18    H27     1.024   .     S
C18    C35     1.414   .     D
C19    H28     1.024   .     S
C19    C39     1.405   .     D
C20    H29     1.024   .     S
C20    C37     1.405   .     D
C21    H30     1.024   .     S
C21    C38     1.405   .     D
C22    H31     1.024   .     S
C23    H32     1.024   .     S
C24    H33     1.024   .     S
C34    C37     1.413   .     S
C34    C112    1.407   .     S
C35    C38     1.413   .     S
C35    C113    1.407   .     S
C36    C39     1.413   .     S
C36    C114    1.407   .     D
C37    H41     1.024   .     S
C38    H42     1.024   .     S
C39    H40     1.024   .     S
C43    C46     1.440   .     S
C43    C49     1.425   .     S
C44    C47     1.440   .     S
C44    C50     1.425   .     S
C45    C48     1.440   .     S
C45    C51     1.425   .     D
C46    C79     1.422   .     S
C47    C80     1.422   .     D
C48    C81     1.422   .     S
C49    C52     1.424   .     D
C49    C64     1.413   .     S
C50    C53     1.424   .     D
C50    C65     1.413   .     S
C51    C54     1.424   .     S
C51    C66     1.413   .     S
C52    C55     1.412   .     S
C52    H67     1.025   .     S
C53    C56     1.412   .     S
C53    H68     1.025   .     S
C54    C57     1.412   .     D
C54    H69     1.025   .     S
C55    C58     1.406   .     D
C55    H70     1.022   .     S
C56    C59     1.406   .     D
C56    H71     1.022   .     S
C57    C60     1.406   .     S
C57    H72     1.022   .     S
C58    C61     1.409   .     S
C58    N109    1.355   .     S
C59    C62     1.409   .     S
C59    N110    1.355   1_565 S
C60    C63     1.409   .     S
C60    N111    1.355   1_455 D
C61    C64     1.404   .     D
C61    H73     1.022   .     S
C62    C65     1.404   .     D
C62    H74     1.022   .     S
C63    C66     1.404   .     D
C63    H75     1.022   .     S
C64    H76     1.008   .     S
C65    H77     1.008   .     S
C66    H78     1.008   .     S
C79    C82     1.411   .     D
C79    C94     1.423   .     S
C80    C83     1.411   .     S
C80    C95     1.423   .     S
C81    C84     1.411   .     D
C81    C96     1.423   .     S
C82    C85     1.404   .     S
C82    H97     1.008   .     S
C83    C86     1.404   .     D
C83    H98     1.008   .     S
C84    C87     1.404   .     S
C84    H99     1.008   .     S
C85    C88     1.404   .     D
C85    H100    1.024   .     S
C86    C89     1.404   .     S
C86    H101    1.024   .     S
C87    C90     1.404   .     D
C87    H102    1.024   .     S
C88    C91     1.410   .     S
C88    N118    1.351   1_455 S
C89    C92     1.410   .     S
C89    N119    1.351   .     D
C90    C93     1.410   .     S
C90    N120    1.351   1_565 S
C91    C94     1.412   .     D
C91    H103    1.021   .     S
C92    C95     1.412   .     D
C92    H104    1.021   .     S
C93    C96     1.412   .     D
C93    H105    1.021   .     S
C94    H106    1.025   .     S
C95    H107    1.025   .     S
C96    H108    1.025   .     S
N109   C112    1.355   .     D
N110   C59     1.355   1_545 S
N110   C113    1.355   .     D
N111   C60     1.355   1_655 D
N111   C114    1.355   .     S
C112   H115    1.026   .     S
C113   H116    1.026   .     S
C114   H117    1.026   .     S
N118   C88     1.351   1_655 S
N118   C121    1.352   .     D
N119   C122    1.352   .     S
N120   C90     1.351   1_545 S
N120   C123    1.352   .     D
C121   H124    1.023   .     S
C122   H125    1.023   .     S
C123   H126    1.023   .     S
