data_251
_audit_creation_date              2023-09-08
_audit_creation_method            'Materials Studio'
_symmetry_space_group_name_H-M    'P1'
_symmetry_Int_Tables_number       1
_symmetry_cell_setting            triclinic
loop_
_symmetry_equiv_pos_as_xyz
  x,y,z
_cell_length_a                    25.8300
_cell_length_b                    25.8300
_cell_length_c                    4.1000
_cell_angle_alpha                 90.0000
_cell_angle_beta                  90.0000
_cell_angle_gamma                 120.0000
loop_
_atom_site_label
_atom_site_type_symbol
_atom_site_fract_x
_atom_site_fract_y
_atom_site_fract_z
_atom_site_U_iso_or_equiv
_atom_site_adp_type
_atom_site_occupancy
H1     H     1.10446   0.87203   0.70793   0.00000  Uiso   1.00
H2     H     1.21074   0.93070   0.79257   0.00000  Uiso   1.00
H3     H     1.20631   1.09535   0.71397   0.00000  Uiso   1.00
H4     H     1.10025   1.04065   0.61932   0.00000  Uiso   1.00
H5     H     0.91236   0.74403   0.67452   0.00000  Uiso   1.00
H6     H     0.93862   0.66996   0.51728   0.00000  Uiso   1.00
H7     H     1.10038   0.80728   0.05639   0.00000  Uiso   1.00
H8     H     1.07341   0.88393   0.19466   0.00000  Uiso   1.00
H9     H     0.65695   0.69282   1.42338   0.00000  Uiso   1.00
H10    H     0.61877   0.58847   1.50993   0.00000  Uiso   1.00
H11    H     0.76616   0.59438   0.97720   0.00000  Uiso   1.00
H12    H     0.80876   0.69969   0.88765   0.00000  Uiso   1.00
H13    H     0.69192   0.87530   1.30724   0.00000  Uiso   1.00
H14    H     0.59096   0.85372   1.17771   0.00000  Uiso   1.00
H15    H     0.54941   0.68237   0.77296   0.00000  Uiso   1.00
H16    H     0.64390   0.69838   0.89267   0.00000  Uiso   1.00
H17    H     0.91593   1.17084   1.14469   0.00000  Uiso   1.00
H18    H     0.84813   1.20182   1.29253   0.00000  Uiso   1.00
H19    H     0.72071   1.02789   1.67144   0.00000  Uiso   1.00
H20    H     0.78596   0.99053   1.54331   0.00000  Uiso   1.00
H21    H     1.06183   1.12438   0.88645   0.00000  Uiso   1.00
H22    H     1.12237   1.23226   0.84104   0.00000  Uiso   1.00
H23    H     1.00929   1.25383   1.54581   0.00000  Uiso   1.00
H24    H     0.95103   1.14163   1.61707   0.00000  Uiso   1.00
H25    H     0.65752   1.06075   1.58123   0.00000  Uiso   1.00
H26    H     1.16199   1.32753   0.76684   0.00000  Uiso   1.00
H27    H     1.27361   1.11829   1.10854   0.00000  Uiso   1.00
H28    H     1.11870   0.73894  -0.02328   0.00000  Uiso   1.00
H29    H     0.72704   0.50512   1.10997   0.00000  Uiso   1.00
H30    H     0.47824   0.78641   1.25869   0.00000  Uiso   1.00
H31    H     1.39145   1.07672   0.83577   0.00000  Uiso   1.00
H32    H     1.49558   1.13444   0.98630   0.00000  Uiso   1.00
H33    H     1.45716   1.25212   1.55978   0.00000  Uiso   1.00
H34    H     1.35506   1.19647   1.39658   0.00000  Uiso   1.00
H35    H     1.22440   1.42139   0.49982   0.00000  Uiso   1.00
H36    H     1.25749   1.52598   0.39314   0.00000  Uiso   1.00
H37    H     1.13054   1.51971   1.10086   0.00000  Uiso   1.00
H38    H     1.09408   1.41450   1.18764   0.00000  Uiso   1.00
H39    H     1.64345   1.29625   0.99011   0.00000  Uiso   1.00
H40    H     1.70091   1.40426   0.93174   0.00000  Uiso   1.00
H41    H     1.58551   1.42113   1.63860   0.00000  Uiso   1.00
H42    H     1.53349   1.31433   1.72471   0.00000  Uiso   1.00
H43    H     1.50645   1.11021   1.47582   0.00000  Uiso   1.00
H44    H     1.56331   1.06139   1.54878   0.00000  Uiso   1.00
H45    H     1.72639   1.23239   1.56720   0.00000  Uiso   1.00
H46    H     1.67076   1.28221   1.49929   0.00000  Uiso   1.00
H47    H     1.30736   1.56814   0.88654   0.00000  Uiso   1.00
H48    H     1.40846   1.63568   1.03094   0.00000  Uiso   1.00
H49    H     1.38182   1.78651   0.88782   0.00000  Uiso   1.00
H50    H     1.27977   1.72002   0.74483   0.00000  Uiso   1.00
H51    H     1.25836   1.68671   0.27674   0.00000  Uiso   1.00
H52    H     1.20346   1.72974   0.03479   0.00000  Uiso   1.00
H53    H     1.04332   1.59603   0.51838   0.00000  Uiso   1.00
H54    H     1.09778   1.55240   0.75219   0.00000  Uiso   1.00
C55    C     0.85599   0.85345   0.98527   0.00000  Uiso   1.00
C56    C     0.91328   0.87783   0.87311   0.00000  Uiso   1.00
C57    C     0.95172   0.93753   0.88838   0.00000  Uiso   1.00
C58    C     0.93200   0.97390   1.01362   0.00000  Uiso   1.00
C59    C     0.87415   0.94994   1.11287   0.00000  Uiso   1.00
C60    C     0.83536   0.88929   1.09555   0.00000  Uiso   1.00
C61    C     0.95046   1.06698   1.17841   0.00000  Uiso   1.00
C62    C     0.89128   1.04509   1.23698   0.00000  Uiso   1.00
C63    C     0.74122   0.80659   1.13691   0.00000  Uiso   1.00
C64    C     0.76475   0.77051   1.08806   0.00000  Uiso   1.00
C65    C     0.98565   0.86475   0.62576   0.00000  Uiso   1.00
C66    C     1.02699   0.92271   0.68426   0.00000  Uiso   1.00
C67    C     0.85906   1.07417   1.32737   0.00000  Uiso   1.00
C68    C     0.99733   1.12578   1.23275   0.00000  Uiso   1.00
C69    C     0.68002   0.78968   1.12097   0.00000  Uiso   1.00
C70    C     0.73773   0.70806   1.13909   0.00000  Uiso   1.00
C71    C     1.09038   0.95104   0.65457   0.00000  Uiso   1.00
C72    C     0.99313   0.82105   0.46369   0.00000  Uiso   1.00
C73    C     1.12516   0.92121   0.68771   0.00000  Uiso   1.00
C74    C     1.18582   0.95437   0.74884   0.00000  Uiso   1.00
C75    C     1.21652   1.01706   0.76982   0.00000  Uiso   1.00
C76    C     1.18403   1.04633   0.70891   0.00000  Uiso   1.00
C77    C     1.12386   1.01519   0.64723   0.00000  Uiso   1.00
C78    C     0.95279   0.75853   0.52528   0.00000  Uiso   1.00
C79    C     0.96813   0.71661   0.44064   0.00000  Uiso   1.00
C80    C     1.02205   0.73295   0.28064   0.00000  Uiso   1.00
C81    C     1.05820   0.79329   0.18504   0.00000  Uiso   1.00
C82    C     1.04342   0.83647   0.25998   0.00000  Uiso   1.00
C83    C     0.68390   0.67386   1.32473   0.00000  Uiso   1.00
C84    C     0.66093   0.61360   1.37396   0.00000  Uiso   1.00
C85    C     0.68846   0.58268   1.25267   0.00000  Uiso   1.00
C86    C     0.74231   0.61587   1.07940   0.00000  Uiso   1.00
C87    C     0.76653   0.67612   1.02544   0.00000  Uiso   1.00
C88    C     0.66035   0.83161   1.19732   0.00000  Uiso   1.00
C89    C     0.60384   0.82019   1.11710   0.00000  Uiso   1.00
C90    C     0.56317   0.76647   0.96143   0.00000  Uiso   1.00
C91    C     0.58123   0.72503   0.88985   0.00000  Uiso   1.00
C92    C     0.63673   0.73468   0.97178   0.00000  Uiso   1.00
C93    C     0.87460   1.13565   1.26358   0.00000  Uiso   1.00
C94    C     0.83562   1.15528   1.34963   0.00000  Uiso   1.00
C95    C     0.77959   1.11793   1.49145   0.00000  Uiso   1.00
C96    C     0.76380   1.05875   1.55752   0.00000  Uiso   1.00
C97    C     0.80146   1.03760   1.48198   0.00000  Uiso   1.00
C98    C     1.05146   1.15244   1.04505   0.00000  Uiso   1.00
C99    C     1.08448   1.21377   1.01189   0.00000  Uiso   1.00
C100   C     1.06830   1.25151   1.17566   0.00000  Uiso   1.00
C101   C     1.02103   1.22524   1.40228   0.00000  Uiso   1.00
C102   C     0.98894   1.16402   1.44633   0.00000  Uiso   1.00
C103   C     0.68360   1.11011   1.58062   0.00000  Uiso   1.00
C104   C     1.13890   1.34556   0.91184   0.00000  Uiso   1.00
C105   C     1.30011   1.09856   1.02149   0.00000  Uiso   1.00
C106   C     1.08985   0.69966   0.12682   0.00000  Uiso   1.00
C107   C     0.68256   0.48677   1.22310   0.00000  Uiso   1.00
C108   C     0.46649   0.75785   1.04247   0.00000  Uiso   1.00
C109   C     1.15631   1.40773   0.85547   0.00000  Uiso   1.00
C110   C     1.36301   1.13066   1.10463   0.00000  Uiso   1.00
C111   C     1.40500   1.11524   0.99802   0.00000  Uiso   1.00
C112   C     1.46490   1.14821   1.08579   0.00000  Uiso   1.00
C113   C     1.48706   1.19842   1.29208   0.00000  Uiso   1.00
C114   C     1.44502   1.21453   1.39388   0.00000  Uiso   1.00
C115   C     1.38522   1.18144   1.30325   0.00000  Uiso   1.00
C116   C     1.20237   1.44180   0.63473   0.00000  Uiso   1.00
C117   C     1.22185   1.50173   0.57405   0.00000  Uiso   1.00
C118   C     1.19734   1.53221   0.73889   0.00000  Uiso   1.00
C119   C     1.15029   1.49815   0.95585   0.00000  Uiso   1.00
C120   C     1.13023   1.43776   1.00886   0.00000  Uiso   1.00
C121   C     1.18464   1.61687   0.54415   0.00000  Uiso   1.00
C122   C     1.28306   1.63657   0.77845   0.00000  Uiso   1.00
C123   C     1.58146   1.29542   1.34980   0.00000  Uiso   1.00
C124   C     1.58276   1.20134   1.45178   0.00000  Uiso   1.00
C125   C     1.63041   1.32371   1.13537   0.00000  Uiso   1.00
C126   C     1.66301   1.38543   1.10279   0.00000  Uiso   1.00
C127   C     1.64731   1.42254   1.27364   0.00000  Uiso   1.00
C128   C     1.59890   1.39454   1.48841   0.00000  Uiso   1.00
C129   C     1.56719   1.33275   1.52991   0.00000  Uiso   1.00
C130   C     1.55527   1.13891   1.48590   0.00000  Uiso   1.00
C131   C     1.58826   1.11042   1.53413   0.00000  Uiso   1.00
C132   C     1.65074   1.14188   1.55262   0.00000  Uiso   1.00
C133   C     1.67771   1.20426   1.54512   0.00000  Uiso   1.00
C134   C     1.64513   1.23308   1.49823   0.00000  Uiso   1.00
C135   C     1.32204   1.61605   0.87407   0.00000  Uiso   1.00
C136   C     1.38069   1.65526   0.96382   0.00000  Uiso   1.00
C137   C     1.40447   1.71724   0.96889   0.00000  Uiso   1.00
C138   C     1.36579   1.73815   0.88670   0.00000  Uiso   1.00
C139   C     1.30736   1.69930   0.79071   0.00000  Uiso   1.00
C140   C     1.21069   1.66611   0.33240   0.00000  Uiso   1.00
C141   C     1.17897   1.69092   0.19552   0.00000  Uiso   1.00
C142   C     1.11849   1.66822   0.26132   0.00000  Uiso   1.00
C143   C     1.09109   1.61702   0.45883   0.00000  Uiso   1.00
C144   C     1.12271   1.59140   0.59330   0.00000  Uiso   1.00
N145   N     0.97081   1.03184   1.04078   0.00000  Uiso   1.00
N146   N     0.85288   0.98387   1.22034   0.00000  Uiso   1.00
N147   N     0.77826   0.86775   1.17018   0.00000  Uiso   1.00
N148   N     0.82281   0.79448   0.98422   0.00000  Uiso   1.00
N149   N     0.92848   0.84073   0.74169   0.00000  Uiso   1.00
N150   N     1.00848   0.96119   0.79899   0.00000  Uiso   1.00
N151   N     0.74129   1.14061   1.55349   0.00000  Uiso   1.00
N152   N     1.09618   1.31352   1.11557   0.00000  Uiso   1.00
N153   N     1.27737   1.04907   0.85679   0.00000  Uiso   1.00
N154   N     1.03929   0.68950   0.24475   0.00000  Uiso   1.00
N155   N     0.66098   0.52053   1.30651   0.00000  Uiso   1.00
N156   N     0.50450   0.74996   0.87858   0.00000  Uiso   1.00
N157   N     1.22128   1.59533   0.68977   0.00000  Uiso   1.00
N158   N     1.54949   1.23143   1.38175   0.00000  Uiso   1.00
loop_
_geom_bond_atom_site_label_1
_geom_bond_atom_site_label_2
_geom_bond_distance
_geom_bond_site_symmetry_2
_ccdc_geom_bond_type
H1     C73     1.108   .     S
H2     C74     1.102   .     S
H3     C76     1.098   .     S
H4     C77     1.104   .     S
H5     C78     1.102   .     S
H6     C79     1.102   .     S
H7     C81     1.096   .     S
H8     C82     1.107   .     S
H9     C83     1.109   .     S
H10    C84     1.101   .     S
H11    C86     1.098   .     S
H12    C87     1.102   .     S
H13    C88     1.105   .     S
H14    C89     1.100   .     S
H15    C91     1.102   .     S
H16    C92     1.092   .     S
H17    C93     1.110   .     S
H18    C94     1.103   .     S
H19    C96     1.098   .     S
H20    C97     1.102   .     S
H21    C98     1.102   .     S
H22    C99     1.100   .     S
H23    C101    1.099   .     S
H24    C102    1.103   .     S
H25    C103    1.105   .     S
H26    C104    1.097   .     S
H27    C105    1.097   .     S
H28    C106    1.099   .     S
H29    C107    1.102   .     S
H30    C108    1.095   .     S
H31    C111    1.099   .     S
H32    C112    1.097   .     S
H33    C114    1.095   .     S
H34    C115    1.099   .     S
H35    C116    1.099   .     S
H36    C117    1.102   .     S
H37    C119    1.099   .     S
H38    C120    1.100   .     S
H39    C125    1.100   .     S
H40    C126    1.100   .     S
H41    C128    1.099   .     S
H42    C129    1.099   .     S
H43    C130    1.098   .     S
H44    C131    1.099   .     S
H45    C133    1.097   .     S
H46    C134    1.099   .     S
H47    C135    1.099   .     S
H48    C136    1.100   .     S
H49    C138    1.102   .     S
H50    C139    1.100   .     S
H51    C140    1.094   .     S
H52    C141    1.098   .     S
H53    C143    1.099   .     S
H54    C144    1.098   .     S
C55    C56     1.366   .     S
C55    C60     1.356   .     D
C55    N148    1.323   .     S
C56    C57     1.355   .     S
C56    N149    1.319   .     D
C57    C58     1.373   .     S
C57    N150    1.327   .     D
C58    C59     1.363   .     D
C58    N145    1.326   .     S
C59    C60     1.376   .     S
C59    N146    1.321   .     S
C60    N147    1.326   .     S
C61    C62     1.360   .     S
C61    C68     1.408   .     S
C61    N145    1.377   .     D
C62    C67     1.421   .     S
C62    N146    1.386   .     D
C63    C64     1.358   .     S
C63    C69     1.415   .     S
C63    N147    1.385   .     D
C64    C70     1.417   .     S
C64    N148    1.373   .     D
C65    C66     1.357   .     D
C65    C72     1.404   .     S
C65    N149    1.370   .     S
C66    C71     1.426   .     S
C66    N150    1.383   .     S
C67    C93     1.454   .     D
C67    C97     1.450   .     S
C68    C98     1.435   .     D
C68    C102    1.416   .     S
C69    C88     1.442   .     D
C69    C92     1.433   .     S
C70    C83     1.437   .     D
C70    C87     1.437   .     S
C71    C73     1.453   .     D
C71    C77     1.436   .     S
C72    C78     1.440   .     S
C72    C82     1.423   .     D
C73    C74     1.382   .     S
C74    C75     1.405   .     D
C75    C76     1.405   .     S
C75    N153    1.408   .     S
C76    C77     1.370   .     D
C78    C79     1.371   .     D
C79    C80     1.400   .     S
C80    C81     1.414   .     D
C80    N154    1.407   .     S
C81    C82     1.382   .     S
C83    C84     1.376   .     S
C84    C85     1.400   .     D
C85    C86     1.408   .     S
C85    N155    1.411   .     S
C86    C87     1.374   .     D
C88    C89     1.377   .     S
C89    C90     1.407   .     D
C90    C91     1.396   .     S
C90    N156    1.396   .     S
C91    C92     1.368   .     D
C93    C94     1.380   .     S
C94    C95     1.403   .     D
C95    C96     1.397   .     S
C95    N151    1.402   .     S
C96    C97     1.368   .     D
C98    C99     1.380   .     S
C99    C100    1.408   .     D
C100   C101    1.409   .     S
C100   N152    1.411   .     S
C101   C102    1.382   .     D
C103   C132    1.450   1_455 S
C103   N151    1.296   .     D
C104   C109    1.453   .     S
C104   N152    1.299   .     D
C105   C110    1.448   .     S
C105   N153    1.298   .     D
C106   C142    1.453   1_545 S
C106   N154    1.290   .     D
C107   C127    1.454   1_445 S
C107   N155    1.294   .     D
C108   C137    1.441   1_445 S
C108   N156    1.287   .     D
C109   C116    1.401   .     D
C109   C120    1.405   .     S
C110   C111    1.399   .     D
C110   C115    1.400   .     S
C111   C112    1.390   .     S
C112   C113    1.408   .     D
C113   C114    1.407   .     S
C113   N158    1.445   .     S
C114   C115    1.391   .     D
C116   C117    1.390   .     S
C117   C118    1.406   .     D
C118   C119    1.405   .     S
C118   N157    1.440   .     S
C119   C120    1.393   .     D
C121   C140    1.403   .     S
C121   C144    1.407   .     D
C121   N157    1.445   .     S
C122   C135    1.408   .     D
C122   C139    1.416   .     S
C122   N157    1.454   .     S
C123   C125    1.408   .     D
C123   C129    1.402   .     S
C123   N158    1.437   .     S
C124   C130    1.407   .     D
C124   C134    1.408   .     S
C124   N158    1.447   .     S
C125   C126    1.388   .     S
C126   C127    1.401   .     D
C127   C107    1.454   1_665 S
C127   C128    1.399   .     S
C128   C129    1.393   .     D
C130   C131    1.391   .     S
C131   C132    1.400   .     D
C132   C103    1.450   1_655 S
C132   C133    1.400   .     S
C133   C134    1.388   .     D
C135   C136    1.386   .     S
C136   C137    1.399   .     D
C137   C108    1.441   1_665 S
C137   C138    1.394   .     S
C138   C139    1.387   .     D
C140   C141    1.386   .     D
C141   C142    1.393   .     S
C142   C106    1.453   1_565 S
C142   C143    1.403   .     D
C143   C144    1.396   .     S
