data_252
_audit_creation_date              2023-09-08
_audit_creation_method            'Materials Studio'
_symmetry_space_group_name_H-M    'P1'
_symmetry_Int_Tables_number       1
_symmetry_cell_setting            triclinic
loop_
_symmetry_equiv_pos_as_xyz
  x,y,z
_cell_length_a                    33.0300
_cell_length_b                    33.0300
_cell_length_c                    4.2000
_cell_angle_alpha                 90.0000
_cell_angle_beta                  90.0000
_cell_angle_gamma                 120.0000
loop_
_atom_site_label
_atom_site_type_symbol
_atom_site_fract_x
_atom_site_fract_y
_atom_site_fract_z
_atom_site_U_iso_or_equiv
_atom_site_adp_type
_atom_site_occupancy
H1     H     1.28380   0.80217   0.49772   0.00000  Uiso   1.00
H2     H     1.36622   0.85560   0.59533   0.00000  Uiso   1.00
H3     H     1.33327   0.95096   1.08476   0.00000  Uiso   1.00
H4     H     1.25099   0.89875   1.00005   0.00000  Uiso   1.00
H5     H     1.14580   0.67399   0.56397   0.00000  Uiso   1.00
H6     H     1.16951   0.61710   0.67101   0.00000  Uiso   1.00
H7     H     1.29555   0.72292   1.13310   0.00000  Uiso   1.00
H8     H     1.27280   0.78064   1.03902   0.00000  Uiso   1.00
H9     H     0.93156   0.59481   1.32488   0.00000  Uiso   1.00
H10    H     0.90641   0.51207   1.32081   0.00000  Uiso   1.00
H11    H     1.02444   0.53857   0.72704   0.00000  Uiso   1.00
H12    H     1.05034   0.62102   0.71853   0.00000  Uiso   1.00
H13    H     0.93336   0.72560   1.26530   0.00000  Uiso   1.00
H14    H     0.85211   0.70136   1.17545   0.00000  Uiso   1.00
H15    H     0.83080   0.57566   0.70322   0.00000  Uiso   1.00
H16    H     0.91116   0.59813   0.78183   0.00000  Uiso   1.00
H17    H     1.08381   0.96100   0.89385   0.00000  Uiso   1.00
H18    H     1.02751   0.98670   0.94127   0.00000  Uiso   1.00
H19    H     0.92532   0.85311   1.33674   0.00000  Uiso   1.00
H20    H     0.98122   0.82556   1.30894   0.00000  Uiso   1.00
H21    H     1.20363   0.94552   0.79869   0.00000  Uiso   1.00
H22    H     1.26269   1.02445   0.92060   0.00000  Uiso   1.00
H23    H     1.16640   1.04017   1.53933   0.00000  Uiso   1.00
H24    H     1.10628   0.96012   1.43357   0.00000  Uiso   1.00
H25    H     0.87935   0.87877   0.99941   0.00000  Uiso   1.00
H26    H     1.31191   1.09400   1.06042   0.00000  Uiso   1.00
C27    C     1.00379   0.55066   0.85941   0.00000  Uiso   1.00
C28    C     1.01857   0.59757   0.85457   0.00000  Uiso   1.00
C29    C     0.91084   0.69147   1.15122   0.00000  Uiso   1.00
C30    C     0.86490   0.67817   1.09369   0.00000  Uiso   1.00
C31    C     0.83528   0.63656   0.93016   0.00000  Uiso   1.00
C32    C     0.85344   0.60823   0.83316   0.00000  Uiso   1.00
C33    C     0.89911   0.62043   0.88964   0.00000  Uiso   1.00
C34    C     1.05023   0.93705   1.00650   0.00000  Uiso   1.00
C35    C     1.01791   0.95145   1.02511   0.00000  Uiso   1.00
C36    C     0.97279   0.92189   1.14220   0.00000  Uiso   1.00
C37    C     0.96056   0.87674   1.24351   0.00000  Uiso   1.00
C38    C     0.99219   0.86139   1.22976   0.00000  Uiso   1.00
C39    C     1.19451   0.96598   0.96089   0.00000  Uiso   1.00
C40    C     1.22826   1.01082   1.03279   0.00000  Uiso   1.00
C41    C     1.21897   1.03854   1.23987   0.00000  Uiso   1.00
C42    C     1.17410   1.01913   1.37341   0.00000  Uiso   1.00
C43    C     1.13961   0.97421   1.30657   0.00000  Uiso   1.00
C44    C     0.89751   0.91523   1.08319   0.00000  Uiso   1.00
C45    C     1.29509   1.10854   1.21207   0.00000  Uiso   1.00
C46    C     1.42404   0.98029   0.95231   0.00000  Uiso   1.00
C47    C     1.22835   0.58951   0.91584   0.00000  Uiso   1.00
C48    C     0.96075   0.44741   0.85778   0.00000  Uiso   1.00
C49    C     0.76390   0.64075   0.94007   0.00000  Uiso   1.00
C50    C     1.32065   1.15829   1.27227   0.00000  Uiso   1.00
C51    C     1.46930   1.00461   1.10476   0.00000  Uiso   1.00
C52    C     1.48566   0.98190   1.30689   0.00000  Uiso   1.00
H53    H     1.40863   1.00132   0.87073   0.00000  Uiso   1.00
H54    H     1.19471   0.57062   0.79003   0.00000  Uiso   1.00
H55    H     0.99559   0.46377   0.74717   0.00000  Uiso   1.00
H56    H     0.77699   0.67201   1.09161   0.00000  Uiso   1.00
H57    H     1.46354   0.94464   1.36387   0.00000  Uiso   1.00
H58    H     1.54160   0.98533   1.58092   0.00000  Uiso   1.00
H59    H     1.56683   1.11223   1.09300   0.00000  Uiso   1.00
H60    H     1.48756   1.07177   0.89414   0.00000  Uiso   1.00
H61    H     1.37857   1.17117   0.96020   0.00000  Uiso   1.00
H62    H     1.41939   1.25540   1.01650   0.00000  Uiso   1.00
H63    H     1.31068   1.24343   1.66364   0.00000  Uiso   1.00
H64    H     1.27007   1.15960   1.60104   0.00000  Uiso   1.00
H65    H     1.60157   0.99814   1.28222   0.00000  Uiso   1.00
H66    H     1.67863   1.02315   1.09357   0.00000  Uiso   1.00
H67    H     1.71346   1.16810   1.19126   0.00000  Uiso   1.00
H68    H     1.63502   1.14263   1.37205   0.00000  Uiso   1.00
H69    H     1.45931   1.32733   1.26401   0.00000  Uiso   1.00
H70    H     1.48516   1.40725   1.11948   0.00000  Uiso   1.00
H71    H     1.34159   1.37852   1.17986   0.00000  Uiso   1.00
H72    H     1.31669   1.30009   1.33987   0.00000  Uiso   1.00
H73    H     1.84459   1.15771   0.90677   0.00000  Uiso   1.00
H74    H     1.89530   1.23702   0.74289   0.00000  Uiso   1.00
H75    H     1.77476   1.25288   0.55239   0.00000  Uiso   1.00
H76    H     1.72353   1.17267   0.71372   0.00000  Uiso   1.00
H77    H     1.72199   1.03369   0.64278   0.00000  Uiso   1.00
H78    H     1.75295   0.98065   0.69967   0.00000  Uiso   1.00
H79    H     1.84756   1.07182   1.43943   0.00000  Uiso   1.00
H80    H     1.81475   1.12240   1.38134   0.00000  Uiso   1.00
H81    H     1.48716   1.42585   0.65767   0.00000  Uiso   1.00
H82    H     1.56670   1.47879   0.50234   0.00000  Uiso   1.00
C83    C     1.52949   1.00539   1.44081   0.00000  Uiso   1.00
C84    C     1.56159   1.05225   1.35497   0.00000  Uiso   1.00
C85    C     1.54325   1.07644   1.17734   0.00000  Uiso   1.00
C86    C     1.49884   1.05267   1.05138   0.00000  Uiso   1.00
C87    C     1.36392   1.18665   1.12275   0.00000  Uiso   1.00
C88    C     1.38795   1.23437   1.16112   0.00000  Uiso   1.00
C89    C     1.36882   1.25707   1.34735   0.00000  Uiso   1.00
C90    C     1.32666   1.22778   1.51494   0.00000  Uiso   1.00
C91    C     1.30329   1.18021   1.47347   0.00000  Uiso   1.00
C92    C     1.38570   1.30616   1.31468   0.00000  Uiso   1.00
C93    C     1.61082   1.06807   1.34776   0.00000  Uiso   1.00
C94    C     1.62646   1.03593   1.27787   0.00000  Uiso   1.00
C95    C     1.67034   1.05053   1.15493   0.00000  Uiso   1.00
C96    C     1.70282   1.09823   1.10584   0.00000  Uiso   1.00
C97    C     1.68877   1.13028   1.20043   0.00000  Uiso   1.00
C98    C     1.64475   1.11596   1.32086   0.00000  Uiso   1.00
C99    C     1.43323   1.33866   1.24914   0.00000  Uiso   1.00
C100   C     1.44742   1.38372   1.15176   0.00000  Uiso   1.00
C101   C     1.41553   1.39988   1.11052   0.00000  Uiso   1.00
C102   C     1.36858   1.36839   1.19314   0.00000  Uiso   1.00
C103   C     1.35418   1.32361   1.29627   0.00000  Uiso   1.00
C104   C     1.47484   1.47867   0.87199   0.00000  Uiso   1.00
C105   C     1.39646   1.46216   1.03470   0.00000  Uiso   1.00
C106   C     1.76626   1.08175   1.00836   0.00000  Uiso   1.00
C107   C     1.77910   1.15891   0.84965   0.00000  Uiso   1.00
C108   C     1.82799   1.17787   0.83234   0.00000  Uiso   1.00
C109   C     1.85736   1.22258   0.72053   0.00000  Uiso   1.00
C110   C     1.83967   1.25255   0.63593   0.00000  Uiso   1.00
C111   C     1.79043   1.23154   0.61951   0.00000  Uiso   1.00
C112   C     1.76144   1.18665   0.72774   0.00000  Uiso   1.00
H113   H     1.55189   1.59568   0.82724   0.00000  Uiso   1.00
H114   H     1.47471   1.54316   0.99890   0.00000  Uiso   1.00
H115   H     1.43364   1.51081   1.41678   0.00000  Uiso   1.00
H116   H     1.37956   1.53981   1.45954   0.00000  Uiso   1.00
H117   H     1.29365   1.44243   0.71530   0.00000  Uiso   1.00
H118   H     1.35020   1.41609   0.66880   0.00000  Uiso   1.00
H119   H     1.35036   1.57842   1.35428   0.00000  Uiso   1.00
H120   H     1.30866   1.61906   1.26965   0.00000  Uiso   1.00
H121   H     1.20272   1.50166   0.73059   0.00000  Uiso   1.00
H122   H     1.24350   1.45934   0.81752   0.00000  Uiso   1.00
H123   H     1.92945   1.30681   0.41499   0.00000  Uiso   1.00
H124   H     1.98102   1.38949   0.52901   0.00000  Uiso   1.00
H125   H     1.86900   1.39316   1.04650   0.00000  Uiso   1.00
H126   H     1.81741   1.31132   0.93407   0.00000  Uiso   1.00
H127   H     1.77007   0.93122   0.84352   0.00000  Uiso   1.00
H128   H     1.81112   0.88786   0.83949   0.00000  Uiso   1.00
H129   H     1.92607   1.00005   1.36035   0.00000  Uiso   1.00
H130   H     1.88747   1.04427   1.35626   0.00000  Uiso   1.00
H131   H     1.63540   1.52730   0.39071   0.00000  Uiso   1.00
H132   H     1.71685   1.56599   0.52685   0.00000  Uiso   1.00
H133   H     1.69994   1.66332   1.12811   0.00000  Uiso   1.00
H134   H     1.61827   1.62442   1.00429   0.00000  Uiso   1.00
C135   C     1.07089   0.73474   0.88545   0.00000  Uiso   1.00
C136   C     1.11777   0.76033   0.82325   0.00000  Uiso   1.00
C137   C     1.14013   0.80737   0.84733   0.00000  Uiso   1.00
C138   C     1.11571   0.82935   0.92116   0.00000  Uiso   1.00
C139   C     1.06942   0.80429   0.98842   0.00000  Uiso   1.00
C140   C     1.04691   0.75644   0.97348   0.00000  Uiso   1.00
C141   C     1.11644   0.89756   1.04023   0.00000  Uiso   1.00
C142   C     1.06924   0.87313   1.07349   0.00000  Uiso   1.00
C143   C     1.74917   1.04109   0.82249   0.00000  Uiso   1.00
C144   C     1.76665   1.01117   0.85801   0.00000  Uiso   1.00
C145   C     1.80338   1.02092   1.07535   0.00000  Uiso   1.00
C146   C     1.82001   1.06216   1.26036   0.00000  Uiso   1.00
C147   C     1.80161   1.09117   1.23004   0.00000  Uiso   1.00
C148   C     1.50179   1.46327   0.70774   0.00000  Uiso   1.00
C149   C     1.54651   1.49404   0.60130   0.00000  Uiso   1.00
C150   C     1.56823   1.54271   0.66333   0.00000  Uiso   1.00
C151   C     1.53842   1.55831   0.78236   0.00000  Uiso   1.00
C152   C     1.49404   1.52751   0.89242   0.00000  Uiso   1.00
C153   C     1.40307   1.49655   1.25761   0.00000  Uiso   1.00
C154   C     1.37173   1.51233   1.28299   0.00000  Uiso   1.00
C155   C     1.33095   1.49407   1.09154   0.00000  Uiso   1.00
C156   C     1.32362   1.45760   0.87867   0.00000  Uiso   1.00
C157   C     1.35588   1.44297   0.84654   0.00000  Uiso   1.00
C158   C     1.30145   1.51483   1.09066   0.00000  Uiso   1.00
C159   C     1.61854   1.57205   0.68125   0.00000  Uiso   1.00
C160   C     1.86852   1.30220   0.65554   0.00000  Uiso   1.00
C161   C     1.82474   0.99218   1.09827   0.00000  Uiso   1.00
C162   C     1.31724   1.55998   1.22305   0.00000  Uiso   1.00
C163   C     1.29377   1.58375   1.16873   0.00000  Uiso   1.00
C164   C     1.25242   1.56419   0.98775   0.00000  Uiso   1.00
C165   C     1.23494   1.51847   0.87307   0.00000  Uiso   1.00
C166   C     1.25808   1.49420   0.92482   0.00000  Uiso   1.00
C167   C     1.91588   1.32608   0.54908   0.00000  Uiso   1.00
C168   C     1.94493   1.37254   0.61815   0.00000  Uiso   1.00
C169   C     1.92933   1.39836   0.79425   0.00000  Uiso   1.00
C170   C     1.88274   1.37493   0.90249   0.00000  Uiso   1.00
C171   C     1.85286   1.32882   0.83303   0.00000  Uiso   1.00
C172   C     1.80435   0.94678   0.96039   0.00000  Uiso   1.00
C173   C     0.98000   0.68468   1.02215   0.00000  Uiso   1.00
C174   C     1.00546   0.66327   0.97372   0.00000  Uiso   1.00
C175   C     1.18865   0.76359   0.76238   0.00000  Uiso   1.00
C176   C     1.21087   0.81113   0.76296   0.00000  Uiso   1.00
C177   C     1.03876   0.89101   1.11011   0.00000  Uiso   1.00
C178   C     1.14838   0.94533   1.09559   0.00000  Uiso   1.00
C179   C     0.93079   0.66423   1.03833   0.00000  Uiso   1.00
C180   C     0.99168   0.61560   1.00441   0.00000  Uiso   1.00
C181   C     1.25894   0.84407   0.75024   0.00000  Uiso   1.00
C182   C     1.20784   0.73376   0.77735   0.00000  Uiso   1.00
C183   C     1.29379   0.83479   0.62492   0.00000  Uiso   1.00
C184   C     1.34053   0.86493   0.68200   0.00000  Uiso   1.00
C185   C     1.35582   0.90677   0.85136   0.00000  Uiso   1.00
C186   C     1.32248   0.91846   0.95176   0.00000  Uiso   1.00
C187   C     1.27573   0.88903   0.89865   0.00000  Uiso   1.00
C188   C     1.17979   0.68581   0.68056   0.00000  Uiso   1.00
C189   C     1.19289   0.65332   0.74714   0.00000  Uiso   1.00
C190   C     1.23463   0.66579   0.90987   0.00000  Uiso   1.00
C191   C     1.26301   0.71256   1.00159   0.00000  Uiso   1.00
C192   C     1.25100   0.74592   0.93539   0.00000  Uiso   1.00
C193   C     0.95192   0.58308   1.18653   0.00000  Uiso   1.00
C194   C     0.93807   0.53635   1.18801   0.00000  Uiso   1.00
C195   C     0.96270   0.51885   1.01944   0.00000  Uiso   1.00
C196   C     1.82766   0.92207   0.95848   0.00000  Uiso   1.00
C197   C     1.87220   0.94033   1.09590   0.00000  Uiso   1.00
C198   C     1.89171   0.98433   1.24376   0.00000  Uiso   1.00
C199   C     1.86912   1.00950   1.24630   0.00000  Uiso   1.00
C200   C     1.64904   1.55777   0.54939   0.00000  Uiso   1.00
C201   C     1.69549   1.57958   0.63107   0.00000  Uiso   1.00
C202   C     1.71550   1.61798   0.84097   0.00000  Uiso   1.00
C203   C     1.68623   1.63388   0.95999   0.00000  Uiso   1.00
C204   C     1.63966   1.61230   0.88219   0.00000  Uiso   1.00
N205   N     1.13979   0.87519   0.94563   0.00000  Uiso   1.00
N206   N     1.04536   0.82490   1.06659   0.00000  Uiso   1.00
N207   N     1.00183   0.73266   1.04109   0.00000  Uiso   1.00
N208   N     1.05151   0.68885   0.88418   0.00000  Uiso   1.00
N209   N     1.14073   0.73789   0.76868   0.00000  Uiso   1.00
N210   N     1.18572   0.83335   0.81256   0.00000  Uiso   1.00
N211   N     0.94141   0.93831   1.15422   0.00000  Uiso   1.00
N212   N     1.25250   1.08467   1.31446   0.00000  Uiso   1.00
N213   N     1.40298   0.93517   0.93052   0.00000  Uiso   1.00
N214   N     1.24888   0.63355   0.98514   0.00000  Uiso   1.00
N215   N     0.94439   0.47044   1.00689   0.00000  Uiso   1.00
N216   N     0.78874   0.62228   0.85563   0.00000  Uiso   1.00
N217   N     1.42949   1.44657   1.00262   0.00000  Uiso   1.00
N218   N     1.74858   1.11299   0.97771   0.00000  Uiso   1.00
loop_
_geom_bond_atom_site_label_1
_geom_bond_atom_site_label_2
_geom_bond_distance
_geom_bond_site_symmetry_2
_ccdc_geom_bond_type
H1     C183    1.095   .     S
H2     C184    1.100   .     S
H3     C186    1.100   .     S
H4     C187    1.102   .     S
H5     C188    1.102   .     S
H6     C189    1.098   .     S
H7     C191    1.100   .     S
H8     C192    1.094   .     S
H9     C193    1.095   .     S
H10    C194    1.100   .     S
H11    C27     1.098   .     S
H12    C28     1.102   .     S
H13    C29     1.102   .     S
H14    C30     1.098   .     S
H15    C32     1.100   .     S
H16    C33     1.095   .     S
H17    C34     1.096   .     S
H18    C35     1.101   .     S
H19    C37     1.099   .     S
H20    C38     1.102   .     S
H21    C39     1.102   .     S
H22    C40     1.098   .     S
H23    C42     1.100   .     S
H24    C43     1.096   .     S
H25    C44     1.101   .     S
H26    C45     1.101   .     S
C27    C28     1.372   .     S
C27    C195    1.404   .     D
C28    C180    1.438   .     D
C29    C30     1.374   .     S
C29    C179    1.436   .     D
C30    C31     1.405   .     D
C31    C32     1.401   .     S
C31    N216    1.399   .     S
C32    C33     1.373   .     D
C33    C179    1.437   .     S
C34    C35     1.371   .     S
C34    C177    1.439   .     D
C35    C36     1.400   .     D
C36    C37     1.402   .     S
C36    N211    1.390   .     S
C37    C38     1.372   .     D
C38    C177    1.439   .     S
C39    C40     1.370   .     D
C39    C178    1.438   .     S
C40    C41     1.403   .     S
C41    C42     1.404   .     D
C41    N212    1.400   .     S
C42    C43     1.374   .     S
C43    C178    1.434   .     D
C44    C197    1.443   1_455 S
C44    N211    1.291   .     D
C45    C50     1.446   .     S
C45    N212    1.295   .     D
C46    C51     1.446   .     S
C46    H53     1.101   .     S
C46    N213    1.295   .     D
C47    H54     1.100   .     S
C47    C164    1.445   1_545 S
C47    N214    1.294   .     D
C48    H55     1.100   .     S
C48    C169    1.446   1_445 S
C48    N215    1.294   .     D
C49    H56     1.101   .     S
C49    C202    1.446   1_445 S
C49    N216    1.293   .     D
C50    C87     1.406   .     D
C50    C91     1.408   .     S
C51    C52     1.407   .     D
C51    C86     1.405   .     S
C52    H57     1.098   .     S
C52    C83     1.375   .     S
H58    C83     1.100   .     S
H59    C85     1.099   .     S
H60    C86     1.099   .     S
H61    C87     1.100   .     S
H62    C88     1.099   .     S
H63    C90     1.100   .     S
H64    C91     1.099   .     S
H65    C94     1.099   .     S
H66    C95     1.099   .     S
H67    C97     1.099   .     S
H68    C98     1.099   .     S
H69    C99     1.099   .     S
H70    C100    1.099   .     S
H71    C102    1.099   .     S
H72    C103    1.099   .     S
H73    C108    1.099   .     S
H74    C109    1.100   .     S
H75    C111    1.099   .     S
H76    C112    1.098   .     S
H77    C143    1.103   .     S
H78    C144    1.099   .     S
H79    C146    1.098   .     S
H80    C147    1.099   .     S
H81    C148    1.099   .     S
H82    C149    1.099   .     S
C83    C84     1.417   .     D
C84    C85     1.430   .     S
C84    C93     1.438   .     S
C85    C86     1.377   .     D
C87    C88     1.374   .     S
C88    C89     1.431   .     D
C89    C90     1.422   .     S
C89    C92     1.433   .     S
C90    C91     1.372   .     D
C92    C99     1.417   .     D
C92    C103    1.422   .     S
C93    C94     1.424   .     D
C93    C98     1.413   .     S
C94    C95     1.379   .     S
C95    C96     1.409   .     D
C96    C97     1.409   .     S
C96    N218    1.441   .     S
C97    C98     1.381   .     D
C99    C100    1.380   .     S
C100   C101    1.410   .     D
C101   C102    1.412   .     S
C101   N217    1.444   .     S
C102   C103    1.378   .     D
C104   C148    1.407   .     D
C104   C152    1.411   .     S
C104   N217    1.442   .     S
C105   C153    1.402   .     D
C105   C157    1.405   .     S
C105   N217    1.427   .     S
C106   C143    1.405   .     S
C106   C147    1.401   .     D
C106   N218    1.423   .     S
C107   C108    1.412   .     D
C107   C112    1.406   .     S
C107   N218    1.441   .     S
C108   C109    1.382   .     S
C109   C110    1.423   .     D
C110   C111    1.415   .     S
C110   C160    1.429   .     S
C111   C112    1.379   .     D
H113   C151    1.099   .     S
H114   C152    1.097   .     S
H115   C153    1.101   .     S
H116   C154    1.098   .     S
H117   C156    1.098   .     S
H118   C157    1.102   .     S
H119   C162    1.098   .     S
H120   C163    1.099   .     S
H121   C165    1.099   .     S
H122   C166    1.098   .     S
H123   C167    1.099   .     S
H124   C168    1.099   .     S
H125   C170    1.099   .     S
H126   C171    1.099   .     S
H127   C172    1.098   .     S
H128   C196    1.099   .     S
H129   C198    1.099   .     S
H130   C199    1.097   .     S
H131   C200    1.098   .     S
H132   C201    1.099   .     S
H133   C203    1.100   .     S
H134   C204    1.098   .     S
C135   C136    1.368   .     S
C135   C140    1.359   .     S
C135   N208    1.318   .     D
C136   C137    1.350   .     S
C136   N209    1.319   .     D
C137   C138    1.364   .     S
C137   N210    1.316   .     D
C138   C139    1.355   .     S
C138   N205    1.316   .     D
C139   C140    1.371   .     S
C139   N206    1.321   .     D
C140   N207    1.321   .     D
C141   C142    1.358   .     D
C141   C178    1.411   .     S
C141   N205    1.367   .     S
C142   C177    1.407   .     S
C142   N206    1.380   .     S
C143   C144    1.380   .     D
C144   C145    1.421   .     S
C145   C146    1.419   .     D
C145   C161    1.442   .     S
C146   C147    1.373   .     S
C148   C149    1.383   .     S
C149   C150    1.419   .     D
C150   C151    1.411   .     S
C150   C159    1.448   .     S
C151   C152    1.381   .     D
C153   C154    1.376   .     S
C154   C155    1.419   .     D
C155   C156    1.420   .     S
C155   C158    1.445   .     S
C156   C157    1.379   .     D
C158   C162    1.424   .     D
C158   C166    1.423   .     S
C159   C200    1.421   .     D
C159   C204    1.428   .     S
C160   C167    1.427   .     D
C160   C171    1.432   .     S
C161   C172    1.424   .     S
C161   C199    1.423   .     D
C162   C163    1.370   .     S
C163   C164    1.407   .     D
C164   C47     1.445   1_565 S
C164   C165    1.405   .     S
C165   C166    1.374   .     D
C167   C168    1.374   .     S
C168   C169    1.407   .     D
C169   C48     1.446   1_665 S
C169   C170    1.408   .     S
C170   C171    1.369   .     D
C172   C196    1.374   .     D
C173   C174    1.358   .     D
C173   C179    1.416   .     S
C173   N207    1.376   .     S
C174   C180    1.409   .     S
C174   N208    1.373   .     S
C175   C176    1.361   .     D
C175   C182    1.415   .     S
C175   N209    1.372   .     S
C176   C181    1.407   .     S
C176   N210    1.372   .     S
C180   C193    1.433   .     S
C181   C183    1.432   .     D
C181   C187    1.441   .     S
C182   C188    1.437   .     D
C182   C192    1.436   .     S
C183   C184    1.377   .     S
C184   C185    1.405   .     D
C185   C186    1.401   .     S
C185   N213    1.399   .     S
C186   C187    1.370   .     D
C188   C189    1.372   .     S
C189   C190    1.404   .     D
C190   C191    1.402   .     S
C190   N214    1.399   .     S
C191   C192    1.373   .     D
C193   C194    1.373   .     D
C194   C195    1.403   .     S
C195   N215    1.399   .     S
C196   C197    1.405   .     S
C197   C44     1.443   1_655 S
C197   C198    1.406   .     D
C198   C199    1.367   .     S
C200   C201    1.373   .     S
C201   C202    1.409   .     D
C202   C49     1.446   1_665 S
C202   C203    1.403   .     S
C203   C204    1.373   .     D
