data_253
_audit_creation_date              2023-09-08
_audit_creation_method            'Materials Studio'
_symmetry_space_group_name_H-M    'P1'
_symmetry_Int_Tables_number       1
_symmetry_cell_setting            triclinic
loop_
_symmetry_equiv_pos_as_xyz
  x,y,z
_cell_length_a                    30.1400
_cell_length_b                    30.1400
_cell_length_c                    7.0800
_cell_angle_alpha                 90.0000
_cell_angle_beta                  90.0000
_cell_angle_gamma                 120.0000
loop_
_atom_site_label
_atom_site_type_symbol
_atom_site_fract_x
_atom_site_fract_y
_atom_site_fract_z
_atom_site_U_iso_or_equiv
_atom_site_adp_type
_atom_site_occupancy
C1     C     0.99782   0.95239   0.02155   0.00000  Uiso   1.00
C2     C     0.04758   0.04613   0.01494   0.00000  Uiso   1.00
C3     C     0.95468   0.00186  -0.03567   0.00000  Uiso   1.00
C4     C     0.00210   0.04788  -0.01627   0.00000  Uiso   1.00
C5     C     0.95264   0.95410  -0.01914   0.00000  Uiso   1.00
C6     C     0.04540   0.99840   0.03588   0.00000  Uiso   1.00
C7     C     0.00404   0.09567  -0.02746   0.00000  Uiso   1.00
C8     C     0.90531   0.90809  -0.03996   0.00000  Uiso   1.00
C9     C     0.09104   0.99666   0.06410   0.00000  Uiso   1.00
C10    C     0.99556   0.90469   0.04475   0.00000  Uiso   1.00
C11    C     0.09528   0.09214   0.02447   0.00000  Uiso   1.00
C12    C     0.90909   0.00364  -0.06479   0.00000  Uiso   1.00
C13    C     0.04071   0.90294   0.08827   0.00000  Uiso   1.00
C14    C     0.09750   0.14007   0.00569   0.00000  Uiso   1.00
C15    C     0.86159   0.95765  -0.08942   0.00000  Uiso   1.00
C16    C     0.95840   0.09757  -0.05395   0.00000  Uiso   1.00
C17    C     0.90283   0.86016  -0.01456   0.00000  Uiso   1.00
C18    C     0.13916   0.04259   0.06002   0.00000  Uiso   1.00
C19    C     0.91061   0.05144  -0.06325   0.00000  Uiso   1.00
C20    C     0.94824   0.85842   0.02178   0.00000  Uiso   1.00
C21    C     0.14110   0.09050   0.04998   0.00000  Uiso   1.00
C22    C     0.08896   0.94896   0.09024   0.00000  Uiso   1.00
C23    C     0.05156   0.14186  -0.00959   0.00000  Uiso   1.00
C24    C     0.86007   0.90973  -0.08341   0.00000  Uiso   1.00
C25    C     0.96196   0.14584  -0.07385   0.00000  Uiso   1.00
C26    C     0.85437   0.81515  -0.01780   0.00000  Uiso   1.00
C27    C     0.18423   0.03921   0.05496   0.00000  Uiso   1.00
C28    C     0.03634   0.85469   0.12109   0.00000  Uiso   1.00
C29    C     0.14595   0.18495  -0.00455   0.00000  Uiso   1.00
C30    C     0.81650   0.96095  -0.10808   0.00000  Uiso   1.00
C31    C     0.99137   0.80925   0.08108   0.00000  Uiso   1.00
C32    C     0.19094   0.18404   0.03160   0.00000  Uiso   1.00
C33    C     0.81696   0.00718  -0.08548   0.00000  Uiso   1.00
C34    C     0.00748   0.19118  -0.03746   0.00000  Uiso   1.00
C35    C     0.81038   0.81606  -0.07065   0.00000  Uiso   1.00
C36    C     0.18302   0.99276   0.07975   0.00000  Uiso   1.00
C37    C     0.13560   0.94853   0.10550   0.00000  Uiso   1.00
C38    C     0.05159   0.18867  -0.00053   0.00000  Uiso   1.00
C39    C     0.81409   0.86293  -0.11208   0.00000  Uiso   1.00
C40    C     0.86395   0.05176  -0.05996   0.00000  Uiso   1.00
C41    C     0.94813   0.81152   0.02740   0.00000  Uiso   1.00
C42    C     0.18776   0.13711   0.06806   0.00000  Uiso   1.00
H43    H     0.14975   0.22096  -0.04775   0.00000  Uiso   1.00
H44    H     0.77979   0.92790  -0.13353   0.00000  Uiso   1.00
H45    H     0.06727   0.85088   0.17819   0.00000  Uiso   1.00
H46    H     0.84929   0.77889   0.02853   0.00000  Uiso   1.00
H47    H     0.22064   0.07201   0.02009   0.00000  Uiso   1.00
H48    H     0.92984   0.14929  -0.12100   0.00000  Uiso   1.00
H49    H     0.22228   0.13803   0.11391   0.00000  Uiso   1.00
H50    H     0.86305   0.08611  -0.02623   0.00000  Uiso   1.00
H51    H     0.91542   0.77618  -0.01755   0.00000  Uiso   1.00
H52    H     0.78009   0.86130  -0.16680   0.00000  Uiso   1.00
H53    H     0.13647   0.91391   0.12994   0.00000  Uiso   1.00
H54    H     0.08524   0.22358   0.04224   0.00000  Uiso   1.00
C55    C     0.00857   0.24115  -0.03399   0.00000  Uiso   1.00
C56    C     0.75982   0.76797  -0.07487   0.00000  Uiso   1.00
C57    C     0.23136   0.99020   0.07233   0.00000  Uiso   1.00
C58    C     0.99033   0.75936   0.08724   0.00000  Uiso   1.00
C59    C     0.24157   0.23213   0.02700   0.00000  Uiso   1.00
C60    C     0.76811   0.00881  -0.08187   0.00000  Uiso   1.00
C61    C     0.98772   0.66427   0.08625   0.00000  Uiso   1.00
C62    C     0.33724   0.32366   0.00730   0.00000  Uiso   1.00
C63    C     0.67642   0.01323  -0.06546   0.00000  Uiso   1.00
C64    C     0.01107   0.33615  -0.02033   0.00000  Uiso   1.00
C65    C     0.66425   0.67623  -0.06791   0.00000  Uiso   1.00
C66    C     0.32300   0.98582   0.05092   0.00000  Uiso   1.00
C67    C     0.05335   0.33336  -0.08587   0.00000  Uiso   1.00
C68    C     0.66816   0.72250  -0.01212   0.00000  Uiso   1.00
C69    C     0.27642   0.94427  -0.00704   0.00000  Uiso   1.00
C70    C     0.94516   0.66745   0.14573   0.00000  Uiso   1.00
C71    C     0.33260   0.27706  -0.04824   0.00000  Uiso   1.00
C72    C     0.72153   0.05464  -0.13496   0.00000  Uiso   1.00
C73    C     0.05224   0.28647  -0.09373   0.00000  Uiso   1.00
C74    C     0.71534   0.76791  -0.01438   0.00000  Uiso   1.00
C75    C     0.23122   0.94648   0.00080   0.00000  Uiso   1.00
C76    C     0.94629   0.71441   0.14686   0.00000  Uiso   1.00
C77    C     0.28535   0.23177  -0.03994   0.00000  Uiso   1.00
C78    C     0.76672   0.05239  -0.14576   0.00000  Uiso   1.00
C79    C     0.75573   0.72154  -0.13456   0.00000  Uiso   1.00
C80    C     0.27827   0.03158   0.13499   0.00000  Uiso   1.00
C81    C     0.96599   0.24402   0.03158   0.00000  Uiso   1.00
C82    C     0.24652   0.27893   0.08683   0.00000  Uiso   1.00
C83    C     0.72261   0.96736  -0.00986   0.00000  Uiso   1.00
C84    C     0.03326   0.75617   0.02873   0.00000  Uiso   1.00
C85    C     0.70846   0.67606  -0.13095   0.00000  Uiso   1.00
C86    C     0.32363   0.02957   0.12346   0.00000  Uiso   1.00
C87    C     0.96704   0.29088   0.03748   0.00000  Uiso   1.00
C88    C     0.29379   0.32428   0.07667   0.00000  Uiso   1.00
C89    C     0.67728   0.96942  -0.00253   0.00000  Uiso   1.00
C90    C     0.03215   0.70928   0.02911   0.00000  Uiso   1.00
H91    H     0.93225   0.21021   0.08350   0.00000  Uiso   1.00
H92    H     0.78899   0.72055  -0.18665   0.00000  Uiso   1.00
H93    H     0.27980   0.06505   0.19773   0.00000  Uiso   1.00
H94    H     0.06732   0.78975  -0.02274   0.00000  Uiso   1.00
H95    H     0.21406   0.28034   0.14524   0.00000  Uiso   1.00
H96    H     0.72236   0.93408   0.04867   0.00000  Uiso   1.00
H97    H     0.70694   0.64146  -0.17978   0.00000  Uiso   1.00
H98    H     0.35854   0.06147   0.17715   0.00000  Uiso   1.00
H99    H     0.93365   0.29115   0.09024   0.00000  Uiso   1.00
H100   H     0.29602   0.35909   0.12687   0.00000  Uiso   1.00
H101   H     0.64383   0.93775   0.06046   0.00000  Uiso   1.00
H102   H     0.06588   0.70881  -0.01821   0.00000  Uiso   1.00
H103   H     0.08708   0.36790  -0.13307   0.00000  Uiso   1.00
H104   H     0.63442   0.72284   0.03798   0.00000  Uiso   1.00
H105   H     0.27569   0.91060  -0.06403   0.00000  Uiso   1.00
H106   H     0.91109   0.63315   0.19233   0.00000  Uiso   1.00
H107   H     0.36576   0.27635  -0.10293   0.00000  Uiso   1.00
H108   H     0.72115   0.08845  -0.18404   0.00000  Uiso   1.00
H109   H     0.08518   0.28562  -0.15006   0.00000  Uiso   1.00
H110   H     0.71724   0.80263   0.03709   0.00000  Uiso   1.00
H111   H     0.19661   0.91447  -0.05510   0.00000  Uiso   1.00
H112   H     0.91298   0.71563   0.19681   0.00000  Uiso   1.00
H113   H     0.28288   0.19682  -0.09163   0.00000  Uiso   1.00
H114   H     0.80026   0.08451  -0.20726   0.00000  Uiso   1.00
C115   C     0.45037   0.45874  -0.01280   0.00000  Uiso   1.00
C116   C     0.54162   0.99115  -0.01668   0.00000  Uiso   1.00
C117   C     0.00813   0.55058   0.03401   0.00000  Uiso   1.00
C118   C     0.55091   0.54115  -0.06127   0.00000  Uiso   1.00
C119   C     0.45852   0.00895   0.02041   0.00000  Uiso   1.00
C120   C     0.99058   0.44955   0.04116   0.00000  Uiso   1.00
C121   C     0.96038   0.50983   0.09083   0.00000  Uiso   1.00
C122   C     0.49016   0.44972  -0.06508   0.00000  Uiso   1.00
C123   C     0.55019   0.04139  -0.00525   0.00000  Uiso   1.00
C124   C     0.03837   0.49032  -0.01518   0.00000  Uiso   1.00
C125   C     0.51108   0.55016  -0.00935   0.00000  Uiso   1.00
C126   C     0.44997   0.95873   0.00889   0.00000  Uiso   1.00
C127   C     0.50898   0.05019   0.01334   0.00000  Uiso   1.00
C128   C     0.95170   0.45973   0.09432   0.00000  Uiso   1.00
C129   C     0.54002   0.49061  -0.08910   0.00000  Uiso   1.00
C130   C     0.49117   0.94993  -0.00911   0.00000  Uiso   1.00
C131   C     0.04704   0.54040  -0.01868   0.00000  Uiso   1.00
C132   C     0.46124   0.50928   0.01449   0.00000  Uiso   1.00
H133   H     0.48251   0.41100  -0.08819   0.00000  Uiso   1.00
H134   H     0.58882   0.07374  -0.01007   0.00000  Uiso   1.00
H135   H     0.92994   0.51691   0.13304   0.00000  Uiso   1.00
H136   H     0.51872   0.58886   0.01401   0.00000  Uiso   1.00
H137   H     0.41137   0.92635   0.01408   0.00000  Uiso   1.00
H138   H     0.06880   0.48327  -0.05767   0.00000  Uiso   1.00
H139   H     0.91469   0.42894   0.13938   0.00000  Uiso   1.00
H140   H     0.57003   0.48279  -0.13009   0.00000  Uiso   1.00
H141   H     0.51654   0.08922   0.02215   0.00000  Uiso   1.00
H142   H     0.08403   0.57116  -0.06401   0.00000  Uiso   1.00
H143   H     0.43124   0.51712   0.05570   0.00000  Uiso   1.00
H144   H     0.48360   0.91089  -0.01748   0.00000  Uiso   1.00
N145   N     0.61488   0.63076  -0.05484   0.00000  Uiso   1.00
N146   N     0.36827   0.98156   0.03551   0.00000  Uiso   1.00
N147   N     0.01489   0.38561  -0.01528   0.00000  Uiso   1.00
N148   N     0.38658   0.36897  -0.01099   0.00000  Uiso   1.00
N149   N     0.63152   0.01824  -0.05246   0.00000  Uiso   1.00
N150   N     0.98377   0.61473   0.08589   0.00000  Uiso   1.00
C151   C     0.39753   0.41612   0.01355   0.00000  Uiso   1.00
C152   C     0.58456   0.98091  -0.03444   0.00000  Uiso   1.00
C153   C     0.01796   0.60365   0.02699   0.00000  Uiso   1.00
C154   C     0.60383   0.58382  -0.08545   0.00000  Uiso   1.00
C155   C     0.41546   0.01900   0.03915   0.00000  Uiso   1.00
C156   C     0.98069   0.39643   0.04562   0.00000  Uiso   1.00
H157   H     0.36837   0.42538   0.05084   0.00000  Uiso   1.00
H158   H     0.57576   0.94146  -0.03567   0.00000  Uiso   1.00
H159   H     0.05412   0.63263  -0.03047   0.00000  Uiso   1.00
H160   H     0.63294   0.57474  -0.12557   0.00000  Uiso   1.00
H161   H     0.42419   0.05834   0.04983   0.00000  Uiso   1.00
H162   H     0.94441   0.36717   0.10130   0.00000  Uiso   1.00
C163   C     1.02436   0.97893   0.52155   0.00000  Uiso   1.00
C164   C     0.07413   0.07267   0.51494   0.00000  Uiso   1.00
C165   C     0.98122   0.02840   0.46433   0.00000  Uiso   1.00
C166   C     0.02864   0.07442   0.48373   0.00000  Uiso   1.00
C167   C     0.97918   0.98064   0.48086   0.00000  Uiso   1.00
C168   C     0.07195   1.02494   0.53588   0.00000  Uiso   1.00
C169   C     0.03058   0.12221   0.47254   0.00000  Uiso   1.00
C170   C     0.93186   0.93464   0.46004   0.00000  Uiso   1.00
C171   C     0.11759   1.02320   0.56410   0.00000  Uiso   1.00
C172   C     1.02210   0.93123   0.54475   0.00000  Uiso   1.00
C173   C     0.12182   0.11869   0.52447   0.00000  Uiso   1.00
C174   C     0.93563   0.03018   0.43521   0.00000  Uiso   1.00
C175   C     0.06725   0.92948   0.58827   0.00000  Uiso   1.00
C176   C     0.12405   0.16661   0.50569   0.00000  Uiso   1.00
C177   C     0.88813   0.98420   0.41058   0.00000  Uiso   1.00
C178   C     0.98494   0.12411   0.44605   0.00000  Uiso   1.00
C179   C     0.92937   0.88670   0.48544   0.00000  Uiso   1.00
C180   C     0.16570   0.06913   0.56002   0.00000  Uiso   1.00
C181   C     0.93715   0.07799   0.43675   0.00000  Uiso   1.00
C182   C     0.97479   0.88497   0.52178   0.00000  Uiso   1.00
C183   C     0.16764   0.11704   0.54998   0.00000  Uiso   1.00
C184   C     0.11550   0.97551   0.59024   0.00000  Uiso   1.00
C185   C     0.07810   0.16840   0.49041   0.00000  Uiso   1.00
C186   C     0.88661   0.93627   0.41659   0.00000  Uiso   1.00
C187   C     0.98850   0.17239   0.42615   0.00000  Uiso   1.00
C188   C     0.88092   0.84169   0.48220   0.00000  Uiso   1.00
C189   C     0.21077   0.06576   0.55496   0.00000  Uiso   1.00
C190   C     0.06288   0.88123   0.62109   0.00000  Uiso   1.00
C191   C     0.17249   0.21150   0.49545   0.00000  Uiso   1.00
C192   C     0.84304   0.98749   0.39192   0.00000  Uiso   1.00
C193   C     1.01791   0.83579   0.58108   0.00000  Uiso   1.00
C194   C     0.21748   0.21059   0.53160   0.00000  Uiso   1.00
C195   C     0.84351   0.03372   0.41452   0.00000  Uiso   1.00
C196   C     0.03402   0.21772   0.46254   0.00000  Uiso   1.00
C197   C     0.83692   0.84260   0.42935   0.00000  Uiso   1.00
C198   C     0.20957   1.01930   0.57975   0.00000  Uiso   1.00
C199   C     0.16214   0.97507   0.60550   0.00000  Uiso   1.00
C200   C     0.07813   0.21521   0.49947   0.00000  Uiso   1.00
C201   C     0.84063   0.88948   0.38792   0.00000  Uiso   1.00
C202   C     0.89049   0.07831   0.44004   0.00000  Uiso   1.00
C203   C     0.97467   0.83806   0.52740   0.00000  Uiso   1.00
C204   C     0.21431   0.16366   0.56806   0.00000  Uiso   1.00
H205   H     0.17629   0.24750   0.45225   0.00000  Uiso   1.00
H206   H     0.80633   0.95444   0.36647   0.00000  Uiso   1.00
H207   H     0.09382   0.87742   0.67819   0.00000  Uiso   1.00
H208   H     0.87583   0.80544   0.52853   0.00000  Uiso   1.00
H209   H     0.24718   0.09856   0.52009   0.00000  Uiso   1.00
H210   H     0.95639   0.17583   0.37900   0.00000  Uiso   1.00
H211   H     0.24882   0.16457   0.61391   0.00000  Uiso   1.00
H212   H     0.88959   0.11266   0.47377   0.00000  Uiso   1.00
H213   H     0.94196   0.80272   0.48245   0.00000  Uiso   1.00
H214   H     0.80663   0.88784   0.33320   0.00000  Uiso   1.00
H215   H     0.16302   0.94045   0.62994   0.00000  Uiso   1.00
H216   H     0.11178   0.25012   0.54224   0.00000  Uiso   1.00
C217   C     0.03512   0.26770   0.46601   0.00000  Uiso   1.00
C218   C     0.78637   0.79451   0.42513   0.00000  Uiso   1.00
C219   C     0.25790   1.01674   0.57233   0.00000  Uiso   1.00
C220   C     1.01688   0.78590   0.58724   0.00000  Uiso   1.00
C221   C     0.26811   0.25868   0.52700   0.00000  Uiso   1.00
C222   C     0.79465   0.03535   0.41813   0.00000  Uiso   1.00
C223   C     1.01426   0.69082   0.58625   0.00000  Uiso   1.00
C224   C     0.36378   0.35020   0.50730   0.00000  Uiso   1.00
C225   C     0.70296   0.03977   0.43454   0.00000  Uiso   1.00
C226   C     0.03761   0.36270   0.47967   0.00000  Uiso   1.00
C227   C     0.69079   0.70277   0.43209   0.00000  Uiso   1.00
C228   C     0.34954   1.01236   0.55092   0.00000  Uiso   1.00
C229   C     0.07989   0.35991   0.41413   0.00000  Uiso   1.00
C230   C     0.69471   0.74904   0.48788   0.00000  Uiso   1.00
C231   C     0.30296   0.97081   0.49296   0.00000  Uiso   1.00
C232   C     0.97170   0.69400   0.64573   0.00000  Uiso   1.00
C233   C     0.35914   0.30361   0.45176   0.00000  Uiso   1.00
C234   C     0.74807   0.08119   0.36504   0.00000  Uiso   1.00
C235   C     0.07878   0.31302   0.40627   0.00000  Uiso   1.00
C236   C     0.74189   0.79445   0.48562   0.00000  Uiso   1.00
C237   C     0.25776   0.97302   0.50080   0.00000  Uiso   1.00
C238   C     0.97283   0.74095   0.64686   0.00000  Uiso   1.00
C239   C     0.31190   0.25832   0.46006   0.00000  Uiso   1.00
C240   C     0.79326   0.07893   0.35424   0.00000  Uiso   1.00
C241   C     0.78228   0.74809   0.36544   0.00000  Uiso   1.00
C242   C     0.30481   0.05812   0.63499   0.00000  Uiso   1.00
C243   C     0.99253   0.27056   0.53158   0.00000  Uiso   1.00
C244   C     0.27306   0.30547   0.58683   0.00000  Uiso   1.00
C245   C     0.74916   0.99390   0.49014   0.00000  Uiso   1.00
C246   C     0.05981   0.78271   0.52873   0.00000  Uiso   1.00
C247   C     0.73500   0.70260   0.36905   0.00000  Uiso   1.00
C248   C     0.35017   0.05611   0.62346   0.00000  Uiso   1.00
C249   C     0.99358   0.31742   0.53748   0.00000  Uiso   1.00
C250   C     0.32033   0.35082   0.57667   0.00000  Uiso   1.00
C251   C     0.70382   0.99597   0.49747   0.00000  Uiso   1.00
C252   C     0.05870   0.73582   0.52911   0.00000  Uiso   1.00
H253   H     0.95879   0.23675   0.58350   0.00000  Uiso   1.00
H254   H     0.81553   0.74709   0.31335   0.00000  Uiso   1.00
H255   H     0.30635   0.09159   0.69773   0.00000  Uiso   1.00
H256   H     0.09386   0.81629   0.47726   0.00000  Uiso   1.00
H257   H     0.24061   0.30688   0.64524   0.00000  Uiso   1.00
H258   H     0.74890   0.96063   0.54867   0.00000  Uiso   1.00
H259   H     0.73348   0.66801   0.32022   0.00000  Uiso   1.00
H260   H     0.38508   0.08801   0.67715   0.00000  Uiso   1.00
H261   H     0.96020   0.31769   0.59024   0.00000  Uiso   1.00
H262   H     0.32257   0.38564   0.62687   0.00000  Uiso   1.00
H263   H     0.67037   0.96429   0.56046   0.00000  Uiso   1.00
H264   H     0.09242   0.73535   0.48179   0.00000  Uiso   1.00
H265   H     0.11363   0.39444   0.36693   0.00000  Uiso   1.00
H266   H     0.66096   0.74938   0.53798   0.00000  Uiso   1.00
H267   H     0.30223   0.93714   0.43597   0.00000  Uiso   1.00
H268   H     0.93763   0.65969   0.69233   0.00000  Uiso   1.00
H269   H     0.39230   0.30289   0.39707   0.00000  Uiso   1.00
H270   H     0.74769   0.11499   0.31596   0.00000  Uiso   1.00
H271   H     0.11172   0.31216   0.34994   0.00000  Uiso   1.00
H272   H     0.74378   0.82917   0.53709   0.00000  Uiso   1.00
H273   H     0.22315   0.94101   0.44490   0.00000  Uiso   1.00
H274   H     0.93952   0.74218   0.69681   0.00000  Uiso   1.00
H275   H     0.30942   0.22336   0.40837   0.00000  Uiso   1.00
H276   H     0.82681   0.11105   0.29274   0.00000  Uiso   1.00
C277   C     0.47691   0.48528   0.48720   0.00000  Uiso   1.00
C278   C     0.56816   1.01769   0.48332   0.00000  Uiso   1.00
C279   C     0.03467   0.57712   0.53401   0.00000  Uiso   1.00
C280   C     0.57745   0.56770   0.43873   0.00000  Uiso   1.00
C281   C     0.48506   0.03550   0.52041   0.00000  Uiso   1.00
C282   C     1.01713   0.47609   0.54116   0.00000  Uiso   1.00
C283   C     0.98692   0.53637   0.59083   0.00000  Uiso   1.00
C284   C     0.51670   0.47626   0.43492   0.00000  Uiso   1.00
C285   C     0.57673   0.06793   0.49475   0.00000  Uiso   1.00
C286   C     0.06491   0.51687   0.48482   0.00000  Uiso   1.00
C287   C     0.53763   0.57671   0.49065   0.00000  Uiso   1.00
C288   C     0.47652   0.98527   0.50889   0.00000  Uiso   1.00
C289   C     0.53553   0.07673   0.51334   0.00000  Uiso   1.00
C290   C     0.97824   0.48627   0.59432   0.00000  Uiso   1.00
C291   C     0.56656   0.51716   0.41090   0.00000  Uiso   1.00
C292   C     0.51771   0.97647   0.49089   0.00000  Uiso   1.00
C293   C     0.07358   0.56695   0.48132   0.00000  Uiso   1.00
C294   C     0.48778   0.53582   0.51449   0.00000  Uiso   1.00
H295   H     0.50905   0.43755   0.41181   0.00000  Uiso   1.00
H296   H     0.61536   0.10028   0.48993   0.00000  Uiso   1.00
H297   H     0.95648   0.54345   0.63304   0.00000  Uiso   1.00
H298   H     0.54526   0.61540   0.51401   0.00000  Uiso   1.00
H299   H     0.43791   0.95289   0.51408   0.00000  Uiso   1.00
H300   H     0.09535   0.50981   0.44233   0.00000  Uiso   1.00
H301   H     0.94123   0.45548   0.63938   0.00000  Uiso   1.00
H302   H     0.59658   0.50933   0.36991   0.00000  Uiso   1.00
H303   H     0.54308   0.11576   0.52215   0.00000  Uiso   1.00
H304   H     0.11058   0.59771   0.43599   0.00000  Uiso   1.00
H305   H     0.45778   0.54366   0.55570   0.00000  Uiso   1.00
H306   H     0.51015   0.93743   0.48252   0.00000  Uiso   1.00
N307   N     0.64142   0.65731   0.44516   0.00000  Uiso   1.00
N308   N     0.39481   1.00810   0.53551   0.00000  Uiso   1.00
N309   N     0.04144   0.41215   0.48472   0.00000  Uiso   1.00
N310   N     0.41312   0.39551   0.48901   0.00000  Uiso   1.00
N311   N     0.65806   0.04478   0.44754   0.00000  Uiso   1.00
N312   N     1.01031   0.64127   0.58589   0.00000  Uiso   1.00
C313   C     0.42407   0.44266   0.51355   0.00000  Uiso   1.00
C314   C     0.61110   1.00746   0.46556   0.00000  Uiso   1.00
C315   C     0.04450   0.63019   0.52699   0.00000  Uiso   1.00
C316   C     0.63037   0.61036   0.41455   0.00000  Uiso   1.00
C317   C     0.44200   0.04554   0.53915   0.00000  Uiso   1.00
C318   C     1.00723   0.42297   0.54562   0.00000  Uiso   1.00
H319   H     0.39491   0.45192   0.55084   0.00000  Uiso   1.00
H320   H     0.60230   0.96800   0.46433   0.00000  Uiso   1.00
H321   H     0.08066   0.65917   0.46953   0.00000  Uiso   1.00
H322   H     0.65948   0.60129   0.37443   0.00000  Uiso   1.00
H323   H     0.45073   0.08488   0.54983   0.00000  Uiso   1.00
H324   H     0.97095   0.39371   0.60130   0.00000  Uiso   1.00
loop_
_geom_bond_atom_site_label_1
_geom_bond_atom_site_label_2
_geom_bond_distance
_geom_bond_site_symmetry_2
_ccdc_geom_bond_type
C1     C5      1.418   .     S
C1     C6      1.415   1_655 D
C1     C10     1.414   .     S
C2     C4      1.415   .     D
C2     C6      1.415   1_545 S
C2     C11     1.415   .     S
C3     C4      1.415   1_655 S
C3     C5      1.415   1_545 D
C3     C12     1.417   .     S
C4     C3      1.415   1_455 S
C4     C7      1.414   .     S
C5     C3      1.415   1_565 D
C5     C8      1.415   .     S
C6     C1      1.415   1_455 D
C6     C2      1.415   1_565 S
C6     C9      1.417   .     S
C7     C16     1.418   1_455 D
C7     C23     1.418   .     S
C8     C17     1.420   .     D
C8     C24     1.423   .     S
C9     C18     1.419   1_565 D
C9     C22     1.419   .     S
C10    C13     1.422   1_655 D
C10    C20     1.420   .     S
C11    C14     1.419   .     D
C11    C21     1.418   .     S
C12    C15     1.420   1_545 D
C12    C19     1.418   .     S
C13    C10     1.422   1_455 D
C13    C22     1.422   .     S
C13    C28     1.412   .     S
C14    C23     1.417   .     S
C14    C29     1.411   .     S
C15    C12     1.420   1_565 D
C15    C24     1.423   .     S
C15    C30     1.418   .     S
C16    C7      1.418   1_655 D
C16    C19     1.418   .     S
C16    C25     1.411   .     S
C17    C20     1.419   .     S
C17    C26     1.412   .     S
C18    C9      1.419   1_545 D
C18    C21     1.417   .     S
C18    C27     1.413   .     S
C19    C40     1.411   .     D
C20    C41     1.412   .     D
C21    C42     1.411   .     D
C22    C37     1.416   .     D
C23    C38     1.412   .     D
C24    C39     1.413   .     D
C25    C34     1.393   1_655 D
C25    H48     1.077   .     S
C26    C35     1.391   .     D
C26    H46     1.076   .     S
C27    C36     1.393   1_545 D
C27    H47     1.076   .     S
C28    C31     1.392   1_455 D
C28    H45     1.074   .     S
C29    C32     1.394   .     D
C29    H43     1.077   .     S
C30    C33     1.396   1_565 D
C30    H44     1.071   .     S
C31    C28     1.392   1_655 D
C31    C41     1.392   .     S
C31    C58     1.489   .     S
C32    C42     1.393   .     S
C32    C59     1.490   .     S
C33    C30     1.396   1_545 D
C33    C40     1.393   .     S
C33    C60     1.498   .     S
C34    C25     1.393   1_455 D
C34    C38     1.394   .     S
C34    C55     1.490   .     S
C35    C39     1.391   .     S
C35    C56     1.488   .     S
C36    C27     1.393   1_565 D
C36    C37     1.396   .     S
C36    C57     1.498   .     S
C37    H53     1.071   .     S
C38    H54     1.077   .     S
C39    H52     1.073   .     S
C40    H50     1.076   .     S
C41    H51     1.076   .     S
C42    H49     1.077   .     S
C55    C73     1.407   .     D
C55    C81     1.407   1_455 S
C56    C74     1.407   .     D
C56    C79     1.407   .     S
C57    C75     1.410   .     D
C57    C80     1.410   1_565 S
C58    C76     1.406   .     D
C58    C84     1.407   1_655 S
C59    C77     1.407   .     D
C59    C82     1.407   .     S
C60    C78     1.409   .     D
C60    C83     1.410   1_545 S
C61    C70     1.398   .     D
C61    C90     1.407   1_655 S
C61    N150    1.437   .     S
C62    C71     1.397   .     D
C62    C88     1.407   .     S
C62    N148    1.436   .     S
C63    C72     1.397   .     D
C63    C89     1.406   1_545 S
C63    N149    1.438   .     S
C64    C67     1.398   .     D
C64    C87     1.407   1_455 S
C64    N147    1.437   .     S
C65    C68     1.397   .     D
C65    C85     1.408   .     S
C65    N145    1.436   .     S
C66    C69     1.396   .     D
C66    C86     1.406   1_565 S
C66    N146    1.437   .     S
C67    C73     1.398   .     S
C67    H103    1.082   .     S
C68    C74     1.396   .     S
C68    H104    1.082   .     S
C69    C75     1.398   .     S
C69    H105    1.082   .     S
C70    C76     1.399   .     S
C70    H106    1.082   .     S
C71    C77     1.397   .     S
C71    H107    1.082   .     S
C72    C78     1.399   .     S
C72    H108    1.082   .     S
C73    H109    1.082   .     S
C74    H110    1.082   .     S
C75    H111    1.081   .     S
C76    H112    1.082   .     S
C77    H113    1.082   .     S
C78    H114    1.082   .     S
C79    C85     1.399   .     D
C79    H92     1.082   .     S
C80    C57     1.410   1_545 S
C80    C86     1.401   .     D
C80    H93     1.082   .     S
C81    C55     1.407   1_655 S
C81    C87     1.397   .     D
C81    H91     1.082   .     S
C82    C88     1.399   .     D
C82    H95     1.082   .     S
C83    C60     1.410   1_565 S
C83    C89     1.399   .     D
C83    H96     1.082   .     S
C84    C58     1.407   1_455 S
C84    C90     1.397   .     D
C84    H94     1.083   .     S
C85    H97     1.078   .     S
C86    C66     1.406   1_545 S
C86    H98     1.079   .     S
C87    C64     1.407   1_655 S
C87    H99     1.077   .     S
C88    H100    1.078   .     S
C89    C63     1.406   1_565 S
C89    H101    1.079   .     S
C90    C61     1.407   1_455 S
C90    H102    1.077   .     S
C115   C122    1.405   .     S
C115   C132    1.402   .     D
C115   C151    1.475   .     S
C116   C123    1.405   1_565 D
C116   C130    1.403   .     S
C116   C152    1.478   .     S
C117   C121    1.405   1_455 S
C117   C131    1.403   .     D
C117   C153    1.475   .     S
C118   C125    1.406   .     D
C118   C129    1.402   .     S
C118   C154    1.475   .     S
C119   C126    1.405   1_545 S
C119   C127    1.404   .     D
C119   C155    1.479   .     S
C120   C124    1.405   1_655 D
C120   C128    1.403   .     S
C120   C156    1.475   .     S
C121   C117    1.405   1_655 S
C121   C128    1.398   .     D
C121   H135    1.083   .     S
C122   C129    1.398   .     D
C122   H133    1.083   .     S
C123   C116    1.405   1_545 D
C123   C127    1.400   .     S
C123   H134    1.083   .     S
C124   C120    1.405   1_455 D
C124   C131    1.397   .     S
C124   H138    1.082   .     S
C125   C132    1.397   .     S
C125   H136    1.083   .     S
C126   C119    1.405   1_565 S
C126   C130    1.399   .     D
C126   H137    1.083   .     S
C127   H141    1.082   .     S
C128   H139    1.083   .     S
C129   H140    1.082   .     S
C130   H144    1.082   .     S
C131   H142    1.083   .     S
C132   H143    1.083   .     S
N145   C154    1.299   .     D
N146   C155    1.301   1_565 D
N147   C156    1.300   1_455 D
N148   C151    1.300   .     D
N149   C152    1.301   1_545 D
N150   C153    1.301   1_655 D
C151   H157    1.080   .     S
C152   N149    1.301   1_565 D
C152   H158    1.081   .     S
C153   N150    1.301   1_455 D
C153   H159    1.079   .     S
C154   H160    1.080   .     S
C155   N146    1.301   1_545 D
C155   H161    1.081   .     S
C156   N147    1.300   1_655 D
C156   H162    1.079   .     S
C163   C167    1.418   .     D
C163   C168    1.415   1_655 S
C163   C172    1.414   .     S
C164   C166    1.416   .     S
C164   C168    1.415   1_545 D
C164   C173    1.414   .     S
C165   C166    1.415   1_655 D
C165   C167    1.415   1_545 S
C165   C174    1.417   .     S
C166   C165    1.415   1_455 D
C166   C169    1.414   .     S
C167   C165    1.415   1_565 S
C167   C170    1.414   .     S
C168   C163    1.415   1_455 S
C168   C164    1.415   1_565 D
C168   C171    1.417   .     S
C169   C178    1.418   1_455 D
C169   C185    1.418   .     S
C170   C179    1.420   .     D
C170   C186    1.423   .     S
C171   C180    1.419   1_565 D
C171   C184    1.419   .     S
C172   C175    1.422   1_655 D
C172   C182    1.420   .     S
C173   C176    1.418   .     D
C173   C183    1.418   .     S
C174   C177    1.420   1_545 D
C174   C181    1.419   .     S
C175   C172    1.422   1_455 D
C175   C184    1.422   .     S
C175   C190    1.412   .     S
C176   C185    1.417   .     S
C176   C191    1.411   .     S
C177   C174    1.420   1_565 D
C177   C186    1.423   .     S
C177   C192    1.417   .     S
C178   C169    1.418   1_655 D
C178   C181    1.417   .     S
C178   C187    1.412   .     S
C179   C182    1.419   .     S
C179   C188    1.411   .     S
C180   C171    1.419   1_545 D
C180   C183    1.417   .     S
C180   C189    1.412   .     S
C181   C202    1.411   .     D
C182   C203    1.413   .     D
C183   C204    1.412   .     D
C184   C199    1.417   .     D
C185   C200    1.412   .     D
C186   C201    1.413   .     D
C187   C196    1.393   1_655 D
C187   H210    1.077   .     S
C188   C197    1.391   .     D
C188   H208    1.076   .     S
C189   C198    1.394   1_545 D
C189   H209    1.076   .     S
C190   C193    1.392   1_455 D
C190   H207    1.074   .     S
C191   C194    1.394   .     D
C191   H205    1.077   .     S
C192   C195    1.396   1_565 D
C192   H206    1.071   .     S
C193   C190    1.392   1_655 D
C193   C203    1.392   .     S
C193   C220    1.489   .     S
C194   C204    1.393   .     S
C194   C221    1.490   .     S
C195   C192    1.396   1_545 D
C195   C202    1.393   .     S
C195   C222    1.498   .     S
C196   C187    1.393   1_455 D
C196   C200    1.394   .     S
C196   C217    1.490   .     S
C197   C201    1.392   .     S
C197   C218    1.488   .     S
C198   C189    1.394   1_565 D
C198   C199    1.396   .     S
C198   C219    1.498   .     S
C199   H215    1.071   .     S
C200   H216    1.077   .     S
C201   H214    1.073   .     S
C202   H212    1.076   .     S
C203   H213    1.076   .     S
C204   H211    1.077   .     S
C217   C235    1.407   .     D
C217   C243    1.408   1_455 S
C218   C236    1.407   .     D
C218   C241    1.407   .     S
C219   C237    1.410   .     D
C219   C242    1.410   1_565 S
C220   C238    1.406   .     D
C220   C246    1.407   1_655 S
C221   C239    1.407   .     D
C221   C244    1.407   .     S
C222   C240    1.409   .     D
C222   C245    1.410   1_545 S
C223   C232    1.398   .     D
C223   C252    1.407   1_655 S
C223   N312    1.438   .     S
C224   C233    1.396   .     D
C224   C250    1.407   .     S
C224   N310    1.436   .     S
C225   C234    1.397   .     D
C225   C251    1.406   1_545 S
C225   N311    1.438   .     S
C226   C229    1.398   .     D
C226   C249    1.407   1_455 S
C226   N309    1.437   .     S
C227   C230    1.396   .     D
C227   C247    1.408   .     S
C227   N307    1.436   .     S
C228   C231    1.396   .     D
C228   C248    1.406   1_565 S
C228   N308    1.437   .     S
C229   C235    1.398   .     S
C229   H265    1.082   .     S
C230   C236    1.396   .     S
C230   H266    1.082   .     S
C231   C237    1.398   .     S
C231   H267    1.082   .     S
C232   C238    1.398   .     S
C232   H268    1.082   .     S
C233   C239    1.397   .     S
C233   H269    1.082   .     S
C234   C240    1.399   .     S
C234   H270    1.082   .     S
C235   H271    1.082   .     S
C236   H272    1.082   .     S
C237   H273    1.081   .     S
C238   H274    1.082   .     S
C239   H275    1.082   .     S
C240   H276    1.082   .     S
C241   C247    1.399   .     D
C241   H254    1.082   .     S
C242   C219    1.410   1_545 S
C242   C248    1.401   .     D
C242   H255    1.082   .     S
C243   C217    1.408   1_655 S
C243   C249    1.397   .     D
C243   H253    1.082   .     S
C244   C250    1.399   .     D
C244   H257    1.082   .     S
C245   C222    1.410   1_565 S
C245   C251    1.400   .     D
C245   H258    1.081   .     S
C246   C220    1.407   1_455 S
C246   C252    1.397   .     D
C246   H256    1.082   .     S
C247   H259    1.077   .     S
C248   C228    1.406   1_545 S
C248   H260    1.079   .     S
C249   C226    1.407   1_655 S
C249   H261    1.077   .     S
C250   H262    1.078   .     S
C251   C225    1.406   1_565 S
C251   H263    1.079   .     S
C252   C223    1.407   1_455 S
C252   H264    1.077   .     S
C277   C284    1.405   .     S
C277   C294    1.402   .     D
C277   C313    1.475   .     S
C278   C285    1.405   1_565 S
C278   C292    1.403   .     D
C278   C314    1.478   .     S
C279   C283    1.405   1_455 D
C279   C293    1.403   .     S
C279   C315    1.475   .     S
C280   C287    1.405   .     D
C280   C291    1.402   .     S
C280   C316    1.475   .     S
C281   C288    1.405   1_545 D
C281   C289    1.404   .     S
C281   C317    1.479   .     S
C282   C286    1.405   1_655 S
C282   C290    1.403   .     D
C282   C318    1.475   .     S
C283   C279    1.405   1_655 D
C283   C290    1.398   .     S
C283   H297    1.083   .     S
C284   C291    1.398   .     D
C284   H295    1.083   .     S
C285   C278    1.405   1_545 S
C285   C289    1.400   .     D
C285   H296    1.083   .     S
C286   C282    1.405   1_455 S
C286   C293    1.397   .     D
C286   H300    1.083   .     S
C287   C294    1.398   .     S
C287   H298    1.083   .     S
C288   C281    1.405   1_565 D
C288   C292    1.399   .     S
C288   H299    1.083   .     S
C289   H303    1.083   .     S
C290   H301    1.083   .     S
C291   H302    1.083   .     S
C292   H306    1.083   .     S
C293   H304    1.083   .     S
C294   H305    1.083   .     S
N307   C316    1.300   .     D
N308   C317    1.301   1_565 D
N309   C318    1.301   1_455 D
N310   C313    1.300   .     D
N311   C314    1.301   1_545 D
N312   C315    1.301   1_655 D
C313   H319    1.080   .     S
C314   N311    1.301   1_565 D
C314   H320    1.081   .     S
C315   N312    1.301   1_455 D
C315   H321    1.079   .     S
C316   H322    1.079   .     S
C317   N308    1.301   1_545 D
C317   H323    1.081   .     S
C318   N309    1.301   1_655 D
C318   H324    1.079   .     S
