data_254
_audit_creation_date              2023-09-08
_audit_creation_method            'Materials Studio'
_symmetry_space_group_name_H-M    'P1'
_symmetry_Int_Tables_number       1
_symmetry_cell_setting            triclinic
loop_
_symmetry_equiv_pos_as_xyz
  x,y,z
_cell_length_a                    40.3774
_cell_length_b                    32.4872
_cell_length_c                    6.7263
_cell_angle_alpha                 90.0000
_cell_angle_beta                  90.0000
_cell_angle_gamma                 90.0000
loop_
_atom_site_label
_atom_site_type_symbol
_atom_site_fract_x
_atom_site_fract_y
_atom_site_fract_z
_atom_site_U_iso_or_equiv
_atom_site_adp_type
_atom_site_occupancy
C1     C     0.24802   0.79216   0.50000   0.00000  Uiso   1.00
C2     C     0.74802   0.29216   0.50000   0.00000  Uiso   1.00
C3     C     0.75198   0.20784   0.50000   0.00000  Uiso   1.00
C4     C     0.25198   0.70784   0.50000   0.00000  Uiso   1.00
C5     C     0.75198   0.79216   0.50000   0.00000  Uiso   1.00
C6     C     0.25198   0.29216   0.50000   0.00000  Uiso   1.00
C7     C     0.24802   0.20784   0.50000   0.00000  Uiso   1.00
C8     C     0.74802   0.70784   0.50000   0.00000  Uiso   1.00
C9     C     0.28164   0.72997   0.50000   0.00000  Uiso   1.00
C10    C     0.78165   0.22997   0.50000   0.00000  Uiso   1.00
C11    C     0.71836   0.27003   0.50000   0.00000  Uiso   1.00
C12    C     0.21836   0.77003   0.50000   0.00000  Uiso   1.00
C13    C     0.71836   0.72997   0.50000   0.00000  Uiso   1.00
C14    C     0.21836   0.22997   0.50000   0.00000  Uiso   1.00
C15    C     0.28164   0.27003   0.50000   0.00000  Uiso   1.00
C16    C     0.78165   0.77003   0.50000   0.00000  Uiso   1.00
C17    C     0.19306   0.69447   0.50000   0.00000  Uiso   1.00
C18    C     0.69306   0.19447   0.50000   0.00000  Uiso   1.00
C19    C     0.80694   0.30553   0.50000   0.00000  Uiso   1.00
C20    C     0.30694   0.80553   0.50000   0.00000  Uiso   1.00
C21    C     0.80694   0.69447   0.50000   0.00000  Uiso   1.00
C22    C     0.30694   0.19447   0.50000   0.00000  Uiso   1.00
C23    C     0.19306   0.30553   0.50000   0.00000  Uiso   1.00
C24    C     0.69306   0.80553   0.50000   0.00000  Uiso   1.00
C25    C     0.27981   0.77419   0.50000   0.00000  Uiso   1.00
C26    C     0.77981   0.27419   0.50000   0.00000  Uiso   1.00
C27    C     0.72020   0.22581   0.50000   0.00000  Uiso   1.00
C28    C     0.22020   0.72581   0.50000   0.00000  Uiso   1.00
C29    C     0.72020   0.77419   0.50000   0.00000  Uiso   1.00
C30    C     0.22020   0.27419   0.50000   0.00000  Uiso   1.00
C31    C     0.27981   0.22581   0.50000   0.00000  Uiso   1.00
C32    C     0.77981   0.72581   0.50000   0.00000  Uiso   1.00
N33    N     0.33808   0.79698   0.50000   0.00000  Uiso   1.00
N34    N     0.83808   0.29698   0.50000   0.00000  Uiso   1.00
N35    N     0.66192   0.20302   0.50000   0.00000  Uiso   1.00
N36    N     0.16192   0.70302   0.50000   0.00000  Uiso   1.00
N37    N     0.66192   0.79698   0.50000   0.00000  Uiso   1.00
N38    N     0.16192   0.29698   0.50000   0.00000  Uiso   1.00
N39    N     0.33808   0.20302   0.50000   0.00000  Uiso   1.00
N40    N     0.83808   0.70302   0.50000   0.00000  Uiso   1.00
N41    N     0.05691   0.50000   0.50000   0.00000  Uiso   1.00
N42    N     0.55691   0.00000   0.50000   0.00000  Uiso   1.00
N43    N     0.94309   0.50000   0.50000   0.00000  Uiso   1.00
N44    N     0.44309   0.00000   0.50000   0.00000  Uiso   1.00
H45    H     0.03316   0.50000   0.50000   0.00000  Uiso   1.00
H46    H     0.53316   0.00000   0.50000   0.00000  Uiso   1.00
H47    H     0.96684   0.50000   0.50000   0.00000  Uiso   1.00
H48    H     0.46684   0.00000   0.50000   0.00000  Uiso   1.00
C49    C     0.07501   0.46545   0.50000   0.00000  Uiso   1.00
C50    C     0.57501   0.96545   0.50000   0.00000  Uiso   1.00
C51    C     0.92499   0.53455   0.50000   0.00000  Uiso   1.00
C52    C     0.42499   0.03455   0.50000   0.00000  Uiso   1.00
C53    C     0.92499   0.46545   0.50000   0.00000  Uiso   1.00
C54    C     0.42499   0.96545   0.50000   0.00000  Uiso   1.00
C55    C     0.07501   0.53455   0.50000   0.00000  Uiso   1.00
C56    C     0.57501   0.03455   0.50000   0.00000  Uiso   1.00
C57    C     0.10784   0.47837   0.50000   0.00000  Uiso   1.00
C58    C     0.60784   0.97837   0.50000   0.00000  Uiso   1.00
C59    C     0.89216   0.52163   0.50000   0.00000  Uiso   1.00
C60    C     0.39216   0.02163   0.50000   0.00000  Uiso   1.00
C61    C     0.89216   0.47837   0.50000   0.00000  Uiso   1.00
C62    C     0.39216   0.97837   0.50000   0.00000  Uiso   1.00
C63    C     0.10784   0.52163   0.50000   0.00000  Uiso   1.00
C64    C     0.60784   0.02163   0.50000   0.00000  Uiso   1.00
H65    H     0.12948   0.45876   0.50000   0.00000  Uiso   1.00
H66    H     0.62948   0.95876   0.50000   0.00000  Uiso   1.00
H67    H     0.87052   0.54124   0.50000   0.00000  Uiso   1.00
H68    H     0.37052   0.04124   0.50000   0.00000  Uiso   1.00
H69    H     0.87052   0.45876   0.50000   0.00000  Uiso   1.00
H70    H     0.37052   0.95876   0.50000   0.00000  Uiso   1.00
H71    H     0.12948   0.54124   0.50000   0.00000  Uiso   1.00
H72    H     0.62948   0.04124   0.50000   0.00000  Uiso   1.00
N73    N     0.50000   0.93141   0.50000   0.00000  Uiso   1.00
N74    N     0.00000   0.43141   0.50000   0.00000  Uiso   1.00
N75    N     0.50000   0.06859   0.50000   0.00000  Uiso   1.00
N76    N     0.00000   0.56859   0.50000   0.00000  Uiso   1.00
C77    C     0.52915   0.90723   0.50000   0.00000  Uiso   1.00
C78    C     0.02915   0.40723   0.50000   0.00000  Uiso   1.00
C79    C     0.47085   0.09277   0.50000   0.00000  Uiso   1.00
C80    C     0.97085   0.59277   0.50000   0.00000  Uiso   1.00
C81    C     0.47085   0.90723   0.50000   0.00000  Uiso   1.00
C82    C     0.97085   0.40723   0.50000   0.00000  Uiso   1.00
C83    C     0.52915   0.09277   0.50000   0.00000  Uiso   1.00
C84    C     0.02915   0.59277   0.50000   0.00000  Uiso   1.00
C85    C     0.51672   0.86451   0.50000   0.00000  Uiso   1.00
C86    C     0.01672   0.36451   0.50000   0.00000  Uiso   1.00
C87    C     0.48328   0.13549   0.50000   0.00000  Uiso   1.00
C88    C     0.98328   0.63549   0.50000   0.00000  Uiso   1.00
C89    C     0.48328   0.86451   0.50000   0.00000  Uiso   1.00
C90    C     0.98328   0.36451   0.50000   0.00000  Uiso   1.00
C91    C     0.51672   0.13549   0.50000   0.00000  Uiso   1.00
C92    C     0.01672   0.63549   0.50000   0.00000  Uiso   1.00
H93    H     0.53190   0.83708   0.50000   0.00000  Uiso   1.00
H94    H     0.03190   0.33708   0.50000   0.00000  Uiso   1.00
H95    H     0.46810   0.16292   0.50000   0.00000  Uiso   1.00
H96    H     0.96810   0.66292   0.50000   0.00000  Uiso   1.00
H97    H     0.46810   0.83708   0.50000   0.00000  Uiso   1.00
H98    H     0.96810   0.33708   0.50000   0.00000  Uiso   1.00
H99    H     0.53190   0.16292   0.50000   0.00000  Uiso   1.00
H100   H     0.03190   0.66292   0.50000   0.00000  Uiso   1.00
C101   C     0.06182   0.42084   0.50000   0.00000  Uiso   1.00
C102   C     0.56182   0.92084   0.50000   0.00000  Uiso   1.00
C103   C     0.93818   0.57916   0.50000   0.00000  Uiso   1.00
C104   C     0.43818   0.07916   0.50000   0.00000  Uiso   1.00
C105   C     0.93818   0.42084   0.50000   0.00000  Uiso   1.00
C106   C     0.43818   0.92084   0.50000   0.00000  Uiso   1.00
C107   C     0.06182   0.57916   0.50000   0.00000  Uiso   1.00
C108   C     0.56182   0.07916   0.50000   0.00000  Uiso   1.00
C109   C     0.08762   0.38877   0.50000   0.00000  Uiso   1.00
C110   C     0.58762   0.88877   0.50000   0.00000  Uiso   1.00
C111   C     0.91238   0.61123   0.50000   0.00000  Uiso   1.00
C112   C     0.41238   0.11123   0.50000   0.00000  Uiso   1.00
C113   C     0.91238   0.38877   0.50000   0.00000  Uiso   1.00
C114   C     0.41238   0.88877   0.50000   0.00000  Uiso   1.00
C115   C     0.08762   0.61123   0.50000   0.00000  Uiso   1.00
C116   C     0.58762   0.11123   0.50000   0.00000  Uiso   1.00
C117   C     0.60000   0.87355   0.68027   0.00000  Uiso   1.00
C118   C     0.10000   0.37355   0.68027   0.00000  Uiso   1.00
C119   C     0.40000   0.12646   0.68027   0.00000  Uiso   1.00
C120   C     0.90000   0.62646   0.68027   0.00000  Uiso   1.00
C121   C     0.40000   0.87355   0.31972   0.00000  Uiso   1.00
C122   C     0.90000   0.37355   0.31972   0.00000  Uiso   1.00
C123   C     0.60000   0.12646   0.31972   0.00000  Uiso   1.00
C124   C     0.10000   0.62646   0.31972   0.00000  Uiso   1.00
C125   C     0.40000   0.12646   0.31972   0.00000  Uiso   1.00
C126   C     0.90000   0.62646   0.31972   0.00000  Uiso   1.00
C127   C     0.60000   0.87355   0.31972   0.00000  Uiso   1.00
C128   C     0.10000   0.37355   0.31972   0.00000  Uiso   1.00
C129   C     0.60000   0.12646   0.68027   0.00000  Uiso   1.00
C130   C     0.10000   0.62646   0.68027   0.00000  Uiso   1.00
C131   C     0.40000   0.87355   0.68027   0.00000  Uiso   1.00
C132   C     0.90000   0.37355   0.68027   0.00000  Uiso   1.00
H133   H     0.09054   0.38519   0.81992   0.00000  Uiso   1.00
H134   H     0.59054   0.88519   0.81992   0.00000  Uiso   1.00
H135   H     0.90946   0.61481   0.81992   0.00000  Uiso   1.00
H136   H     0.40946   0.11481   0.81992   0.00000  Uiso   1.00
H137   H     0.90946   0.38519   0.18008   0.00000  Uiso   1.00
H138   H     0.40946   0.88519   0.18008   0.00000  Uiso   1.00
H139   H     0.09054   0.61481   0.18008   0.00000  Uiso   1.00
H140   H     0.59054   0.11481   0.18008   0.00000  Uiso   1.00
H141   H     0.90946   0.61481   0.18008   0.00000  Uiso   1.00
H142   H     0.40946   0.11481   0.18008   0.00000  Uiso   1.00
H143   H     0.09054   0.38519   0.18008   0.00000  Uiso   1.00
H144   H     0.59054   0.88519   0.18008   0.00000  Uiso   1.00
H145   H     0.09054   0.61481   0.81992   0.00000  Uiso   1.00
H146   H     0.59054   0.11481   0.81992   0.00000  Uiso   1.00
H147   H     0.90946   0.38519   0.81992   0.00000  Uiso   1.00
H148   H     0.40946   0.88519   0.81992   0.00000  Uiso   1.00
C149   C     0.12462   0.34323   0.67993   0.00000  Uiso   1.00
C150   C     0.62462   0.84323   0.67993   0.00000  Uiso   1.00
C151   C     0.87538   0.65677   0.67993   0.00000  Uiso   1.00
C152   C     0.37538   0.15677   0.67993   0.00000  Uiso   1.00
C153   C     0.87538   0.34323   0.32006   0.00000  Uiso   1.00
C154   C     0.37538   0.84323   0.32006   0.00000  Uiso   1.00
C155   C     0.12462   0.65677   0.32006   0.00000  Uiso   1.00
C156   C     0.62462   0.15677   0.32006   0.00000  Uiso   1.00
C157   C     0.87538   0.65677   0.32006   0.00000  Uiso   1.00
C158   C     0.37538   0.15677   0.32006   0.00000  Uiso   1.00
C159   C     0.12462   0.34323   0.32006   0.00000  Uiso   1.00
C160   C     0.62462   0.84323   0.32006   0.00000  Uiso   1.00
C161   C     0.12462   0.65677   0.67993   0.00000  Uiso   1.00
C162   C     0.62462   0.15677   0.67993   0.00000  Uiso   1.00
C163   C     0.87538   0.34323   0.67993   0.00000  Uiso   1.00
C164   C     0.37538   0.84323   0.67993   0.00000  Uiso   1.00
H165   H     0.13420   0.33128   0.81845   0.00000  Uiso   1.00
H166   H     0.63420   0.83128   0.81845   0.00000  Uiso   1.00
H167   H     0.86580   0.66872   0.81845   0.00000  Uiso   1.00
H168   H     0.36580   0.16872   0.81845   0.00000  Uiso   1.00
H169   H     0.86580   0.33128   0.18154   0.00000  Uiso   1.00
H170   H     0.36580   0.83128   0.18154   0.00000  Uiso   1.00
H171   H     0.13420   0.66872   0.18154   0.00000  Uiso   1.00
H172   H     0.63420   0.16872   0.18154   0.00000  Uiso   1.00
H173   H     0.86580   0.66872   0.18154   0.00000  Uiso   1.00
H174   H     0.36580   0.16872   0.18154   0.00000  Uiso   1.00
H175   H     0.13420   0.33128   0.18154   0.00000  Uiso   1.00
H176   H     0.63420   0.83128   0.18154   0.00000  Uiso   1.00
H177   H     0.13420   0.66872   0.81845   0.00000  Uiso   1.00
H178   H     0.63420   0.16872   0.81845   0.00000  Uiso   1.00
H179   H     0.86580   0.33128   0.81845   0.00000  Uiso   1.00
H180   H     0.36580   0.83128   0.81845   0.00000  Uiso   1.00
C181   C     0.13705   0.32822   0.50000   0.00000  Uiso   1.00
C182   C     0.63705   0.82822   0.50000   0.00000  Uiso   1.00
C183   C     0.86295   0.67178   0.50000   0.00000  Uiso   1.00
C184   C     0.36295   0.17178   0.50000   0.00000  Uiso   1.00
C185   C     0.86295   0.32822   0.50000   0.00000  Uiso   1.00
C186   C     0.36295   0.82822   0.50000   0.00000  Uiso   1.00
C187   C     0.13705   0.67178   0.50000   0.00000  Uiso   1.00
C188   C     0.63705   0.17178   0.50000   0.00000  Uiso   1.00
H189   H     0.24553   0.82539   0.50000   0.00000  Uiso   1.00
O190   O     0.30917   0.70303   0.50000   0.00000  Uiso   1.00
H191   H     0.20004   0.66215   0.50000   0.00000  Uiso   1.00
C192   C     0.65847   0.71507   0.50000   0.00000  Uiso   1.00
C193   C     0.62921   0.72258   0.50000   0.00000  Uiso   1.00
H194   H     0.60367   0.72950   0.50000   0.00000  Uiso   1.00
H195   H     0.74553   0.32539   0.50000   0.00000  Uiso   1.00
O196   O     0.80917   0.20303   0.50000   0.00000  Uiso   1.00
H197   H     0.70004   0.16215   0.50000   0.00000  Uiso   1.00
C198   C     0.15847   0.21507   0.50000   0.00000  Uiso   1.00
C199   C     0.12921   0.22258   0.50000   0.00000  Uiso   1.00
H200   H     0.10367   0.22950   0.50000   0.00000  Uiso   1.00
H201   H     0.75448   0.17461   0.50000   0.00000  Uiso   1.00
O202   O     0.69084   0.29697   0.50000   0.00000  Uiso   1.00
H203   H     0.79996   0.33785   0.50000   0.00000  Uiso   1.00
C204   C     0.34153   0.28493   0.50000   0.00000  Uiso   1.00
C205   C     0.37079   0.27742   0.50000   0.00000  Uiso   1.00
H206   H     0.39633   0.27050   0.50000   0.00000  Uiso   1.00
H207   H     0.25448   0.67461   0.50000   0.00000  Uiso   1.00
O208   O     0.19084   0.79697   0.50000   0.00000  Uiso   1.00
H209   H     0.29996   0.83785   0.50000   0.00000  Uiso   1.00
C210   C     0.84153   0.78493   0.50000   0.00000  Uiso   1.00
C211   C     0.87079   0.77742   0.50000   0.00000  Uiso   1.00
H212   H     0.89633   0.77050   0.50000   0.00000  Uiso   1.00
H213   H     0.75448   0.82539   0.50000   0.00000  Uiso   1.00
O214   O     0.69084   0.70303   0.50000   0.00000  Uiso   1.00
H215   H     0.79996   0.66215   0.50000   0.00000  Uiso   1.00
C216   C     0.34153   0.71507   0.50000   0.00000  Uiso   1.00
C217   C     0.37079   0.72258   0.50000   0.00000  Uiso   1.00
H218   H     0.39633   0.72950   0.50000   0.00000  Uiso   1.00
H219   H     0.25448   0.32539   0.50000   0.00000  Uiso   1.00
O220   O     0.19084   0.20303   0.50000   0.00000  Uiso   1.00
H221   H     0.29996   0.16215   0.50000   0.00000  Uiso   1.00
C222   C     0.84153   0.21507   0.50000   0.00000  Uiso   1.00
C223   C     0.87079   0.22258   0.50000   0.00000  Uiso   1.00
H224   H     0.89633   0.22950   0.50000   0.00000  Uiso   1.00
H225   H     0.24553   0.17461   0.50000   0.00000  Uiso   1.00
O226   O     0.30917   0.29697   0.50000   0.00000  Uiso   1.00
H227   H     0.20004   0.33785   0.50000   0.00000  Uiso   1.00
C228   C     0.65847   0.28493   0.50000   0.00000  Uiso   1.00
C229   C     0.62921   0.27742   0.50000   0.00000  Uiso   1.00
H230   H     0.60367   0.27050   0.50000   0.00000  Uiso   1.00
H231   H     0.74553   0.67461   0.50000   0.00000  Uiso   1.00
O232   O     0.80917   0.79697   0.50000   0.00000  Uiso   1.00
H233   H     0.70004   0.83785   0.50000   0.00000  Uiso   1.00
C234   C     0.15847   0.78493   0.50000   0.00000  Uiso   1.00
C235   C     0.12921   0.77742   0.50000   0.00000  Uiso   1.00
H236   H     0.10367   0.77050   0.50000   0.00000  Uiso   1.00
H237   H     0.50000   0.96106   0.50000   0.00000  Uiso   1.00
H238   H     0.00000   0.46106   0.50000   0.00000  Uiso   1.00
H239   H     0.50000   0.03894   0.50000   0.00000  Uiso   1.00
H240   H     0.00000   0.53894   0.50000   0.00000  Uiso   1.00
loop_
_geom_bond_atom_site_label_1
_geom_bond_atom_site_label_2
_geom_bond_distance
_geom_bond_site_symmetry_2
_ccdc_geom_bond_type
C1     C12     1.397   .     D
C1     C25     1.410   .     S
C1     H189    1.084   .     S
C2     C11     1.397   .     S
C2     C26     1.410   .     D
C2     H195    1.084   .     S
C3     C10     1.397   .     D
C3     C27     1.410   .     S
C3     H201    1.084   .     S
C4     C9      1.397   .     S
C4     C28     1.410   .     D
C4     H207    1.084   .     S
C5     C16     1.397   .     S
C5     C29     1.410   .     D
C5     H213    1.084   .     S
C6     C15     1.397   .     S
C6     C30     1.410   .     D
C6     H219    1.084   .     S
C7     C14     1.397   .     D
C7     C31     1.410   .     S
C7     H225    1.084   .     S
C8     C13     1.397   .     D
C8     C32     1.410   .     S
C8     H231    1.084   .     S
C9     C25     1.438   .     D
C9     O190    1.414   .     S
C10    C26     1.438   .     S
C10    O196    1.414   .     S
C11    C27     1.438   .     D
C11    O202    1.414   .     S
C12    C28     1.438   .     S
C12    O208    1.414   .     S
C13    C29     1.438   .     S
C13    O214    1.414   .     S
C14    C30     1.438   .     S
C14    O220    1.414   .     S
C15    C31     1.438   .     D
C15    O226    1.414   .     S
C16    C32     1.438   .     D
C16    O232    1.414   .     S
C17    C28     1.496   .     S
C17    N36     1.288   .     D
C17    H191    1.087   .     S
C18    C27     1.496   .     S
C18    N35     1.288   .     D
C18    H197    1.087   .     S
C19    C26     1.496   .     S
C19    N34     1.288   .     D
C19    H203    1.087   .     S
C20    C25     1.496   .     S
C20    N33     1.288   .     D
C20    H209    1.087   .     S
C21    C32     1.496   .     S
C21    N40     1.288   .     D
C21    H215    1.087   .     S
C22    C31     1.496   .     S
C22    N39     1.288   .     D
C22    H221    1.087   .     S
C23    C30     1.496   .     S
C23    N38     1.288   .     D
C23    H227    1.087   .     S
C24    C29     1.496   .     S
C24    N37     1.288   .     D
C24    H233    1.087   .     S
N33    C186    1.428   .     S
N34    C185    1.428   .     S
N35    C188    1.428   .     S
N36    C187    1.428   .     S
N37    C182    1.428   .     S
N38    C181    1.428   .     S
N39    C184    1.428   .     S
N40    C183    1.428   .     S
N41    H45     0.959   .     S
N41    C49     1.339   .     S
N41    C55     1.339   .     S
N42    H46     0.959   .     S
N42    C50     1.339   1_545 S
N42    C56     1.339   .     S
N43    H47     0.959   .     S
N43    C51     1.339   .     S
N43    C53     1.339   .     S
N44    H48     0.959   .     S
N44    C52     1.339   .     S
N44    C54     1.339   1_545 S
C49    C57     1.390   .     D
C49    C101    1.544   .     S
C50    N42     1.339   1_565 S
C50    C58     1.390   .     S
C50    C102    1.544   .     D
C51    C59     1.390   .     D
C51    C103    1.544   .     S
C52    C60     1.390   .     S
C52    C104    1.544   .     D
C53    C61     1.390   .     D
C53    C105    1.544   .     S
C54    N44     1.339   1_565 S
C54    C62     1.390   .     S
C54    C106    1.544   .     D
C55    C63     1.390   .     D
C55    C107    1.544   .     S
C56    C64     1.390   .     S
C56    C108    1.544   .     D
C57    C63     1.405   .     S
C57    H65     1.081   .     S
C58    C64     1.405   1_565 D
C58    H66     1.081   .     S
C59    C61     1.405   .     S
C59    H67     1.081   .     S
C60    C62     1.405   1_545 D
C60    H68     1.081   .     S
C61    H69     1.081   .     S
C62    C60     1.405   1_565 D
C62    H70     1.081   .     S
C63    H71     1.081   .     S
C64    C58     1.405   1_545 D
C64    H72     1.081   .     S
N73    C77     1.415   .     S
N73    C81     1.415   .     S
N73    H237    0.963   .     S
N74    C78     1.415   .     S
N74    C82     1.415   1_455 S
N74    H238    0.963   .     S
N75    C79     1.415   .     S
N75    C83     1.415   .     S
N75    H239    0.963   .     S
N76    C80     1.415   1_455 S
N76    C84     1.415   .     S
N76    H240    0.963   .     S
C77    C85     1.476   .     D
C77    C102    1.391   .     S
C78    C86     1.476   .     S
C78    C101    1.391   .     D
C79    C87     1.476   .     D
C79    C104    1.391   .     S
C80    N76     1.415   1_655 S
C80    C88     1.476   .     S
C80    C103    1.391   .     D
C81    C89     1.476   .     D
C81    C106    1.391   .     S
C82    N74     1.415   1_655 S
C82    C90     1.476   .     S
C82    C105    1.391   .     D
C83    C91     1.476   .     D
C83    C108    1.391   .     S
C84    C92     1.476   .     S
C84    C107    1.391   .     D
C85    C89     1.350   .     S
C85    H93     1.082   .     S
C86    C90     1.350   1_455 D
C86    H94     1.082   .     S
C87    C91     1.350   .     S
C87    H95     1.082   .     S
C88    C92     1.350   1_655 D
C88    H96     1.082   .     S
C89    H97     1.082   .     S
C90    C86     1.350   1_655 D
C90    H98     1.082   .     S
C91    H99     1.082   .     S
C92    C88     1.350   1_455 D
C92    H100    1.082   .     S
C101   C109    1.473   .     S
C102   C110    1.473   .     S
C103   C111    1.473   .     S
C104   C112    1.473   .     S
C105   C113    1.473   .     S
C106   C114    1.473   .     S
C107   C115    1.473   .     S
C108   C116    1.473   .     S
C109   C118    1.402   .     D
C109   C128    1.402   .     S
C110   C117    1.402   .     D
C110   C127    1.402   .     S
C111   C120    1.402   .     D
C111   C126    1.402   .     S
C112   C119    1.402   .     D
C112   C125    1.402   .     S
C113   C122    1.402   .     D
C113   C132    1.402   .     S
C114   C121    1.402   .     S
C114   C131    1.402   .     D
C115   C124    1.402   .     D
C115   C130    1.402   .     S
C116   C123    1.402   .     D
C116   C129    1.402   .     S
C117   H134    1.082   .     S
C117   C150    1.399   .     S
C118   H133    1.082   .     S
C118   C149    1.399   .     S
C119   H136    1.082   .     S
C119   C152    1.399   .     S
C120   H135    1.082   .     S
C120   C151    1.399   .     S
C121   H138    1.082   .     S
C121   C154    1.399   .     D
C122   H137    1.082   .     S
C122   C153    1.399   .     S
C123   H140    1.082   .     S
C123   C156    1.399   .     S
C124   H139    1.082   .     S
C124   C155    1.399   .     S
C125   H142    1.082   .     S
C125   C158    1.399   .     D
C126   H141    1.082   .     S
C126   C157    1.399   .     D
C127   H144    1.082   .     S
C127   C160    1.399   .     D
C128   H143    1.082   .     S
C128   C159    1.399   .     D
C129   H146    1.082   .     S
C129   C162    1.399   .     D
C130   H145    1.082   .     S
C130   C161    1.399   .     D
C131   H148    1.082   .     S
C131   C164    1.399   .     S
C132   H147    1.082   .     S
C132   C163    1.399   .     D
C149   H165    1.081   .     S
C149   C181    1.398   .     D
C150   H166    1.081   .     S
C150   C182    1.398   .     D
C151   H167    1.081   .     S
C151   C183    1.398   .     D
C152   H168    1.081   .     S
C152   C184    1.398   .     D
C153   H169    1.081   .     S
C153   C185    1.398   .     D
C154   H170    1.081   .     S
C154   C186    1.398   .     S
C155   H171    1.081   .     S
C155   C187    1.398   .     D
C156   H172    1.081   .     S
C156   C188    1.398   .     D
C157   H173    1.081   .     S
C157   C183    1.398   .     S
C158   H174    1.081   .     S
C158   C184    1.398   .     S
C159   H175    1.081   .     S
C159   C181    1.398   .     S
C160   H176    1.081   .     S
C160   C182    1.398   .     S
C161   H177    1.081   .     S
C161   C187    1.398   .     S
C162   H178    1.081   .     S
C162   C188    1.398   .     S
C163   H179    1.081   .     S
C163   C185    1.398   .     S
C164   H180    1.081   .     S
C164   C186    1.398   .     D
O190   C216    1.364   .     S
C192   C193    1.206   .     T
C192   O214    1.364   .     S
C193   H194    1.055   .     S
O196   C222    1.364   .     S
C198   C199    1.206   .     T
C198   O220    1.364   .     S
C199   H200    1.055   .     S
O202   C228    1.364   .     S
C204   C205    1.206   .     T
C204   O226    1.364   .     S
C205   H206    1.055   .     S
O208   C234    1.364   .     S
C210   C211    1.206   .     T
C210   O232    1.364   .     S
C211   H212    1.055   .     S
C216   C217    1.206   .     T
C217   H218    1.055   .     S
C222   C223    1.206   .     T
C223   H224    1.056   .     S
C228   C229    1.206   .     T
C229   H230    1.055   .     S
C234   C235    1.206   .     T
C235   H236    1.055   .     S
