data_255
_audit_creation_date              2023-09-08
_audit_creation_method            'Materials Studio'
_symmetry_space_group_name_H-M    'P1'
_symmetry_Int_Tables_number       1
_symmetry_cell_setting            triclinic
loop_
_symmetry_equiv_pos_as_xyz
  x,y,z
_cell_length_a                    46.9090
_cell_length_b                    46.9090
_cell_length_c                    3.3690
_cell_angle_alpha                 90.0000
_cell_angle_beta                  90.0000
_cell_angle_gamma                 120.0000
loop_
_atom_site_label
_atom_site_type_symbol
_atom_site_fract_x
_atom_site_fract_y
_atom_site_fract_z
_atom_site_U_iso_or_equiv
_atom_site_adp_type
_atom_site_occupancy
C1     C     0.98099   0.49050   0.50000   0.00000  Uiso   1.00
C2     C     0.95083   0.47541   0.50000   0.00000  Uiso   1.00
C3     C     0.91465   0.45733   0.50000   0.00000  Uiso   1.00
C4     C     0.84434   0.42217   0.50000   0.00000  Uiso   1.00
B5     B     0.80494   0.40247   0.50000   0.00000  Uiso   1.00
C6     C     0.50950   0.49050   0.50000   0.00000  Uiso   1.00
C7     C     0.52458   0.47541   0.50000   0.00000  Uiso   1.00
C8     C     0.54267   0.45733   0.50000   0.00000  Uiso   1.00
C9     C     0.57783   0.42217   0.50000   0.00000  Uiso   1.00
B10    B     0.59753   0.40247   0.50000   0.00000  Uiso   1.00
C11    C     0.50950   0.01901   0.50000   0.00000  Uiso   1.00
C12    C     0.52458   0.04917   0.50000   0.00000  Uiso   1.00
C13    C     0.54267   0.08535   0.50000   0.00000  Uiso   1.00
C14    C     0.57783   0.15566   0.50000   0.00000  Uiso   1.00
B15    B     0.59753   0.19506   0.50000   0.00000  Uiso   1.00
C16    C     0.01901   0.50950   0.50000   0.00000  Uiso   1.00
C17    C     0.04917   0.52459   0.50000   0.00000  Uiso   1.00
C18    C     0.08535   0.54267   0.50000   0.00000  Uiso   1.00
C19    C     0.15566   0.57783   0.50000   0.00000  Uiso   1.00
B20    B     0.19506   0.59753   0.50000   0.00000  Uiso   1.00
C21    C     0.49050   0.50950   0.50000   0.00000  Uiso   1.00
C22    C     0.47541   0.52459   0.50000   0.00000  Uiso   1.00
C23    C     0.45733   0.54267   0.50000   0.00000  Uiso   1.00
C24    C     0.42217   0.57783   0.50000   0.00000  Uiso   1.00
B25    B     0.40247   0.59753   0.50000   0.00000  Uiso   1.00
C26    C     0.49050   0.98099   0.50000   0.00000  Uiso   1.00
C27    C     0.47541   0.95083   0.50000   0.00000  Uiso   1.00
C28    C     0.45733   0.91465   0.50000   0.00000  Uiso   1.00
C29    C     0.42217   0.84434   0.50000   0.00000  Uiso   1.00
B30    B     0.40247   0.80494   0.50000   0.00000  Uiso   1.00
C31    C     0.89680   0.47412   0.50000   0.00000  Uiso   1.00
C32    C     0.86209   0.45670   0.50000   0.00000  Uiso   1.00
C33    C     0.75551   0.39131   0.50000   0.00000  Uiso   1.00
C34    C     0.72604   0.39213   0.50000   0.00000  Uiso   1.00
C35    C     0.69536   0.36222   0.50000   0.00000  Uiso   1.00
O36    O     0.78501   0.36602   0.50000   0.00000  Uiso   1.00
H37    H     0.90983   0.50077   0.50000   0.00000  Uiso   1.00
H38    H     0.84904   0.47034   0.50000   0.00000  Uiso   1.00
H39    H     0.72964   0.41657   0.50000   0.00000  Uiso   1.00
C40    C     0.52588   0.42268   0.50000   0.00000  Uiso   1.00
C41    C     0.54331   0.40540   0.50000   0.00000  Uiso   1.00
C42    C     0.60869   0.36420   0.50000   0.00000  Uiso   1.00
C43    C     0.60787   0.33391   0.50000   0.00000  Uiso   1.00
C44    C     0.63778   0.33314   0.50000   0.00000  Uiso   1.00
O45    O     0.63398   0.41899   0.50000   0.00000  Uiso   1.00
H46    H     0.49923   0.40906   0.50000   0.00000  Uiso   1.00
H47    H     0.52966   0.37869   0.50000   0.00000  Uiso   1.00
H48    H     0.58343   0.31307   0.50000   0.00000  Uiso   1.00
C49    C     0.57732   0.10320   0.50000   0.00000  Uiso   1.00
C50    C     0.59460   0.13791   0.50000   0.00000  Uiso   1.00
C51    C     0.63580   0.24449   0.50000   0.00000  Uiso   1.00
C52    C     0.66609   0.27396   0.50000   0.00000  Uiso   1.00
C53    C     0.66686   0.30464   0.50000   0.00000  Uiso   1.00
O54    O     0.58101   0.21499   0.50000   0.00000  Uiso   1.00
H55    H     0.59095   0.09017   0.50000   0.00000  Uiso   1.00
H56    H     0.62131   0.15097   0.50000   0.00000  Uiso   1.00
H57    H     0.68693   0.27036   0.50000   0.00000  Uiso   1.00
C58    C     0.10320   0.52588   0.50000   0.00000  Uiso   1.00
C59    C     0.13791   0.54331   0.50000   0.00000  Uiso   1.00
C60    C     0.24449   0.60869   0.50000   0.00000  Uiso   1.00
C61    C     0.27396   0.60787   0.50000   0.00000  Uiso   1.00
C62    C     0.30464   0.63778   0.50000   0.00000  Uiso   1.00
O63    O     0.21499   0.63398   0.50000   0.00000  Uiso   1.00
H64    H     0.09017   0.49923   0.50000   0.00000  Uiso   1.00
H65    H     0.15097   0.52966   0.50000   0.00000  Uiso   1.00
H66    H     0.27036   0.58343   0.50000   0.00000  Uiso   1.00
C67    C     0.47412   0.57732   0.50000   0.00000  Uiso   1.00
C68    C     0.45669   0.59460   0.50000   0.00000  Uiso   1.00
C69    C     0.39131   0.63580   0.50000   0.00000  Uiso   1.00
C70    C     0.39213   0.66609   0.50000   0.00000  Uiso   1.00
C71    C     0.36222   0.66686   0.50000   0.00000  Uiso   1.00
O72    O     0.36602   0.58101   0.50000   0.00000  Uiso   1.00
H73    H     0.50077   0.59095   0.50000   0.00000  Uiso   1.00
H74    H     0.47034   0.62131   0.50000   0.00000  Uiso   1.00
H75    H     0.41657   0.68693   0.50000   0.00000  Uiso   1.00
C76    C     0.42268   0.89680   0.50000   0.00000  Uiso   1.00
C77    C     0.40540   0.86209   0.50000   0.00000  Uiso   1.00
C78    C     0.36420   0.75551   0.50000   0.00000  Uiso   1.00
C79    C     0.33391   0.72604   0.50000   0.00000  Uiso   1.00
C80    C     0.33314   0.69536   0.50000   0.00000  Uiso   1.00
O81    O     0.41899   0.78501   0.50000   0.00000  Uiso   1.00
H82    H     0.40906   0.90983   0.50000   0.00000  Uiso   1.00
H83    H     0.37869   0.84904   0.50000   0.00000  Uiso   1.00
H84    H     0.31307   0.72964   0.50000   0.00000  Uiso   1.00
C85    C     0.47412   0.89680   0.50000   0.00000  Uiso   1.00
C86    C     0.45669   0.86209   0.50000   0.00000  Uiso   1.00
C87    C     0.39131   0.75551   0.50000   0.00000  Uiso   1.00
C88    C     0.39213   0.72604   0.50000   0.00000  Uiso   1.00
C89    C     0.36222   0.69536   0.50000   0.00000  Uiso   1.00
O90    O     0.36602   0.78501   0.50000   0.00000  Uiso   1.00
H91    H     0.50077   0.90983   0.50000   0.00000  Uiso   1.00
H92    H     0.47034   0.84904   0.50000   0.00000  Uiso   1.00
H93    H     0.41657   0.72964   0.50000   0.00000  Uiso   1.00
C94    C     0.42268   0.52588   0.50000   0.00000  Uiso   1.00
C95    C     0.40540   0.54331   0.50000   0.00000  Uiso   1.00
C96    C     0.36420   0.60869   0.50000   0.00000  Uiso   1.00
C97    C     0.33391   0.60787   0.50000   0.00000  Uiso   1.00
C98    C     0.33314   0.63778   0.50000   0.00000  Uiso   1.00
O99    O     0.41899   0.63398   0.50000   0.00000  Uiso   1.00
H100   H     0.40906   0.49923   0.50000   0.00000  Uiso   1.00
H101   H     0.37869   0.52966   0.50000   0.00000  Uiso   1.00
H102   H     0.31307   0.58343   0.50000   0.00000  Uiso   1.00
C103   C     0.10320   0.57732   0.50000   0.00000  Uiso   1.00
C104   C     0.13791   0.59460   0.50000   0.00000  Uiso   1.00
C105   C     0.24449   0.63580   0.50000   0.00000  Uiso   1.00
C106   C     0.27396   0.66609   0.50000   0.00000  Uiso   1.00
C107   C     0.30464   0.66686   0.50000   0.00000  Uiso   1.00
O108   O     0.21499   0.58101   0.50000   0.00000  Uiso   1.00
H109   H     0.09017   0.59095   0.50000   0.00000  Uiso   1.00
H110   H     0.15097   0.62131   0.50000   0.00000  Uiso   1.00
H111   H     0.27036   0.68693   0.50000   0.00000  Uiso   1.00
C112   C     0.52588   0.10320   0.50000   0.00000  Uiso   1.00
C113   C     0.54331   0.13791   0.50000   0.00000  Uiso   1.00
C114   C     0.60869   0.24449   0.50000   0.00000  Uiso   1.00
C115   C     0.60787   0.27396   0.50000   0.00000  Uiso   1.00
C116   C     0.63778   0.30464   0.50000   0.00000  Uiso   1.00
O117   O     0.63398   0.21499   0.50000   0.00000  Uiso   1.00
H118   H     0.49923   0.09017   0.50000   0.00000  Uiso   1.00
H119   H     0.52966   0.15097   0.50000   0.00000  Uiso   1.00
H120   H     0.58343   0.27036   0.50000   0.00000  Uiso   1.00
C121   C     0.57732   0.47412   0.50000   0.00000  Uiso   1.00
C122   C     0.59460   0.45669   0.50000   0.00000  Uiso   1.00
C123   C     0.63580   0.39131   0.50000   0.00000  Uiso   1.00
C124   C     0.66609   0.39213   0.50000   0.00000  Uiso   1.00
C125   C     0.66686   0.36222   0.50000   0.00000  Uiso   1.00
O126   O     0.58101   0.36602   0.50000   0.00000  Uiso   1.00
H127   H     0.59095   0.50077   0.50000   0.00000  Uiso   1.00
H128   H     0.62131   0.47034   0.50000   0.00000  Uiso   1.00
H129   H     0.68693   0.41657   0.50000   0.00000  Uiso   1.00
C130   C     0.89680   0.42268   0.50000   0.00000  Uiso   1.00
C131   C     0.86209   0.40540   0.50000   0.00000  Uiso   1.00
C132   C     0.75551   0.36420   0.50000   0.00000  Uiso   1.00
C133   C     0.72604   0.33391   0.50000   0.00000  Uiso   1.00
C134   C     0.69536   0.33314   0.50000   0.00000  Uiso   1.00
O135   O     0.78501   0.41899   0.50000   0.00000  Uiso   1.00
H136   H     0.90983   0.40906   0.50000   0.00000  Uiso   1.00
H137   H     0.84904   0.37869   0.50000   0.00000  Uiso   1.00
H138   H     0.72964   0.31307   0.50000   0.00000  Uiso   1.00
loop_
_geom_bond_atom_site_label_1
_geom_bond_atom_site_label_2
_geom_bond_distance
_geom_bond_site_symmetry_2
_ccdc_geom_bond_type
C1     C2      1.225   .     T
C1     C16     1.544   1_655 S
C2     C3      1.470   .     S
C3     C31     1.408   .     S
C3     C130    1.408   .     D
C4     B5      1.601   .     S
C4     C32     1.403   .     S
C4     C131    1.403   .     D
B5     O36     1.483   .     S
B5     O135    1.483   .     S
C6     C7      1.225   .     T
C6     C21     1.544   .     S
C7     C8      1.470   .     S
C8     C40     1.408   .     S
C8     C121    1.408   .     D
C9     B10     1.601   .     S
C9     C41     1.403   .     S
C9     C122    1.403   .     D
B10    O45     1.483   .     S
B10    O126    1.483   .     S
C11    C12     1.225   .     T
C11    C26     1.544   1_545 S
C12    C13     1.470   .     S
C13    C49     1.408   .     S
C13    C112    1.408   .     D
C14    B15     1.601   .     S
C14    C50     1.403   .     S
C14    C113    1.403   .     D
B15    O54     1.483   .     S
B15    O117    1.483   .     S
C16    C1      1.544   1_455 S
C16    C17     1.225   .     T
C17    C18     1.470   .     S
C18    C58     1.408   .     S
C18    C103    1.408   .     D
C19    B20     1.601   .     S
C19    C59     1.403   .     S
C19    C104    1.403   .     D
B20    O63     1.483   .     S
B20    O108    1.483   .     S
C21    C22     1.225   .     T
C22    C23     1.470   .     S
C23    C67     1.408   .     S
C23    C94     1.408   .     D
C24    B25     1.601   .     S
C24    C68     1.403   .     S
C24    C95     1.403   .     D
B25    O72     1.483   .     S
B25    O99     1.483   .     S
C26    C11     1.544   1_565 S
C26    C27     1.225   .     T
C27    C28     1.470   .     S
C28    C76     1.408   .     D
C28    C85     1.408   .     S
C29    B30     1.601   .     S
C29    C77     1.403   .     D
C29    C86     1.403   .     S
B30    O81     1.483   .     S
B30    O90     1.483   .     S
C31    C32     1.410   .     D
C31    H37     1.083   .     S
C32    H38     1.085   .     S
C33    C34     1.402   .     D
C33    C132    1.271   .     S
C33    O135    1.343   .     S
C34    C35     1.421   .     S
C34    H39     1.072   .     S
C35    C125    1.337   .     S
C35    C134    1.364   .     D
O36    C132    1.343   .     S
C40    C41     1.410   .     D
C40    H46     1.083   .     S
C41    H47     1.085   .     S
C42    C43     1.402   .     S
C42    C123    1.271   .     D
C42    O126    1.343   .     S
C43    C44     1.421   .     D
C43    H48     1.072   .     S
C44    C116    1.337   .     S
C44    C125    1.364   .     S
O45    C123    1.343   .     S
C49    C50     1.410   .     D
C49    H55     1.083   .     S
C50    H56     1.085   .     S
C51    C52     1.402   .     D
C51    C114    1.271   .     S
C51    O117    1.343   .     S
C52    C53     1.421   .     S
C52    H57     1.072   .     S
C53    C116    1.364   .     D
C53    C134    1.337   .     S
O54    C114    1.343   .     S
C58    C59     1.410   .     D
C58    H64     1.083   .     S
C59    H65     1.085   .     S
C60    C61     1.402   .     D
C60    C105    1.271   .     S
C60    O108    1.343   .     S
C61    C62     1.421   .     S
C61    H66     1.072   .     S
C62    C98     1.337   .     S
C62    C107    1.364   .     D
O63    C105    1.343   .     S
C67    C68     1.410   .     D
C67    H73     1.083   .     S
C68    H74     1.085   .     S
C69    C70     1.402   .     S
C69    C96     1.271   .     D
C69    O99     1.343   .     S
C70    C71     1.421   .     D
C70    H75     1.072   .     S
C71    C89     1.337   .     S
C71    C98     1.364   .     S
O72    C96     1.343   .     S
C76    C77     1.410   .     S
C76    H82     1.083   .     S
C77    H83     1.085   .     S
C78    C79     1.402   .     D
C78    C87     1.271   .     S
C78    O90     1.343   .     S
C79    C80     1.421   .     S
C79    H84     1.072   .     S
C80    C89     1.364   .     D
C80    C107    1.337   .     S
O81    C87     1.343   .     S
C85    C86     1.410   .     D
C85    H91     1.083   .     S
C86    H92     1.085   .     S
C87    C88     1.402   .     D
C88    C89     1.421   .     S
C88    H93     1.072   .     S
C94    C95     1.410   .     S
C94    H100    1.083   .     S
C95    H101    1.085   .     S
C96    C97     1.402   .     S
C97    C98     1.421   .     D
C97    H102    1.072   .     S
C103   C104    1.410   .     S
C103   H109    1.083   .     S
C104   H110    1.085   .     S
C105   C106    1.402   .     D
C106   C107    1.421   .     S
C106   H111    1.072   .     S
C112   C113    1.410   .     S
C112   H118    1.083   .     S
C113   H119    1.085   .     S
C114   C115    1.402   .     D
C115   C116    1.421   .     S
C115   H120    1.072   .     S
C121   C122    1.410   .     S
C121   H127    1.083   .     S
C122   H128    1.085   .     S
C123   C124    1.402   .     S
C124   C125    1.421   .     D
C124   H129    1.072   .     S
C130   C131    1.410   .     S
C130   H136    1.083   .     S
C131   H137    1.085   .     S
C132   C133    1.402   .     D
C133   C134    1.421   .     S
C133   H138    1.072   .     S
