data_257
_audit_creation_date              2023-09-08
_audit_creation_method            'Materials Studio'
_symmetry_space_group_name_H-M    'P1'
_symmetry_Int_Tables_number       1
_symmetry_cell_setting            triclinic
loop_
_symmetry_equiv_pos_as_xyz
  x,y,z
_cell_length_a                    21.5700
_cell_length_b                    21.5700
_cell_length_c                    10.3400
_cell_angle_alpha                 90.0000
_cell_angle_beta                  90.0000
_cell_angle_gamma                 120.0000
loop_
_atom_site_label
_atom_site_type_symbol
_atom_site_fract_x
_atom_site_fract_y
_atom_site_fract_z
_atom_site_U_iso_or_equiv
_atom_site_adp_type
_atom_site_occupancy
C1     C     0.06211   0.06968   0.79506   0.00000  Uiso   1.00
C2     C     0.93032   0.99243   0.79506   0.00000  Uiso   1.00
C3     C     0.00757   0.93789   0.79506   0.00000  Uiso   1.00
C4     C     0.93789   0.93032   0.79506   0.00000  Uiso   1.00
C5     C     0.06968   0.00757   0.79506   0.00000  Uiso   1.00
C6     C     0.99243   0.06211   0.79506   0.00000  Uiso   1.00
C7     C     0.05381   0.85562   0.72211   0.00000  Uiso   1.00
C8     C     0.14438   0.19820   0.72211   0.00000  Uiso   1.00
C9     C     0.80180   0.94619   0.72211   0.00000  Uiso   1.00
C10    C     0.94619   0.14438   0.72211   0.00000  Uiso   1.00
C11    C     0.85562   0.80180   0.72211   0.00000  Uiso   1.00
C12    C     0.19820   0.05381   0.72211   0.00000  Uiso   1.00
C13    C     0.05983   0.79440   0.73834   0.00000  Uiso   1.00
C14    C     0.20560   0.26543   0.73834   0.00000  Uiso   1.00
C15    C     0.73457   0.94017   0.73834   0.00000  Uiso   1.00
C16    C     0.94017   0.20560   0.73834   0.00000  Uiso   1.00
C17    C     0.79440   0.73457   0.73834   0.00000  Uiso   1.00
C18    C     0.26543   0.05983   0.73834   0.00000  Uiso   1.00
C19    C     0.02553   0.74771   0.84116   0.00000  Uiso   1.00
C20    C     0.25229   0.27782   0.84116   0.00000  Uiso   1.00
C21    C     0.72218   0.97447   0.84116   0.00000  Uiso   1.00
C22    C     0.97447   0.25229   0.84116   0.00000  Uiso   1.00
C23    C     0.74771   0.72218   0.84116   0.00000  Uiso   1.00
C24    C     0.27782   0.02553   0.84116   0.00000  Uiso   1.00
C25    C     0.98867   0.76529   0.93239   0.00000  Uiso   1.00
C26    C     0.23471   0.22338   0.93239   0.00000  Uiso   1.00
C27    C     0.77662   0.01133   0.93239   0.00000  Uiso   1.00
C28    C     0.01133   0.23471   0.93239   0.00000  Uiso   1.00
C29    C     0.76529   0.77662   0.93239   0.00000  Uiso   1.00
C30    C     0.22338   0.98867   0.93239   0.00000  Uiso   1.00
C31    C     0.98552   0.82821   0.91796   0.00000  Uiso   1.00
C32    C     0.17179   0.15731   0.91796   0.00000  Uiso   1.00
C33    C     0.84269   0.01448   0.91796   0.00000  Uiso   1.00
C34    C     0.01448   0.17179   0.91796   0.00000  Uiso   1.00
C35    C     0.82821   0.84269   0.91796   0.00000  Uiso   1.00
C36    C     0.15731   0.98552   0.91796   0.00000  Uiso   1.00
C37    C     0.01513   0.87255   0.81020   0.00000  Uiso   1.00
C38    C     0.12745   0.14258   0.81020   0.00000  Uiso   1.00
C39    C     0.85742   0.98487   0.81020   0.00000  Uiso   1.00
C40    C     0.98487   0.12745   0.81020   0.00000  Uiso   1.00
C41    C     0.87255   0.85742   0.81020   0.00000  Uiso   1.00
C42    C     0.14258   0.01513   0.81020   0.00000  Uiso   1.00
C43    C     0.56937   0.00871   0.90225   0.00000  Uiso   1.00
C44    C     0.99129   0.56066   0.90225   0.00000  Uiso   1.00
C45    C     0.43934   0.43063   0.90225   0.00000  Uiso   1.00
C46    C     0.43063   0.99129   0.90225   0.00000  Uiso   1.00
C47    C     0.00871   0.43934   0.90225   0.00000  Uiso   1.00
C48    C     0.56066   0.56937   0.90225   0.00000  Uiso   1.00
C49    C     0.50864   0.93993   0.90254   0.00000  Uiso   1.00
C50    C     0.06007   0.56871   0.90254   0.00000  Uiso   1.00
C51    C     0.43129   0.49136   0.90254   0.00000  Uiso   1.00
C52    C     0.49136   0.06007   0.90254   0.00000  Uiso   1.00
C53    C     0.93993   0.43129   0.90254   0.00000  Uiso   1.00
C54    C     0.56871   0.50864   0.90254   0.00000  Uiso   1.00
C55    C     0.43982   0.93131   0.90418   0.00000  Uiso   1.00
C56    C     0.06869   0.50852   0.90418   0.00000  Uiso   1.00
C57    C     0.49148   0.56018   0.90418   0.00000  Uiso   1.00
C58    C     0.56018   0.06869   0.90418   0.00000  Uiso   1.00
C59    C     0.93131   0.49148   0.90418   0.00000  Uiso   1.00
C60    C     0.50852   0.43982   0.90418   0.00000  Uiso   1.00
H61    H     0.51478   0.89307   0.90170   0.00000  Uiso   1.00
H62    H     0.10693   0.62171   0.90170   0.00000  Uiso   1.00
H63    H     0.37829   0.48522   0.90170   0.00000  Uiso   1.00
H64    H     0.48522   0.10693   0.90170   0.00000  Uiso   1.00
H65    H     0.89307   0.37829   0.90170   0.00000  Uiso   1.00
H66    H     0.62171   0.51478   0.90170   0.00000  Uiso   1.00
H67    H     0.39372   0.87781   0.90406   0.00000  Uiso   1.00
H68    H     0.12219   0.51591   0.90406   0.00000  Uiso   1.00
H69    H     0.48409   0.60628   0.90406   0.00000  Uiso   1.00
H70    H     0.60628   0.12219   0.90406   0.00000  Uiso   1.00
H71    H     0.87781   0.48409   0.90406   0.00000  Uiso   1.00
H72    H     0.51591   0.39372   0.90406   0.00000  Uiso   1.00
H73    H     0.07989   0.88978   0.64194   0.00000  Uiso   1.00
H74    H     0.11022   0.19011   0.64194   0.00000  Uiso   1.00
H75    H     0.80989   0.92011   0.64194   0.00000  Uiso   1.00
H76    H     0.92011   0.11022   0.64194   0.00000  Uiso   1.00
H77    H     0.88978   0.80989   0.64194   0.00000  Uiso   1.00
H78    H     0.19011   0.07989   0.64194   0.00000  Uiso   1.00
H79    H     0.08975   0.78204   0.66911   0.00000  Uiso   1.00
H80    H     0.21796   0.30771   0.66911   0.00000  Uiso   1.00
H81    H     0.69229   0.91025   0.66911   0.00000  Uiso   1.00
H82    H     0.91025   0.21796   0.66911   0.00000  Uiso   1.00
H83    H     0.78204   0.69229   0.66911   0.00000  Uiso   1.00
H84    H     0.30771   0.08975   0.66911   0.00000  Uiso   1.00
H85    H     0.96436   0.73164   1.01606   0.00000  Uiso   1.00
H86    H     0.26836   0.23271   1.01606   0.00000  Uiso   1.00
H87    H     0.76729   0.03564   1.01606   0.00000  Uiso   1.00
H88    H     0.03564   0.26836   1.01606   0.00000  Uiso   1.00
H89    H     0.73164   0.76729   1.01606   0.00000  Uiso   1.00
H90    H     0.23271   0.96436   1.01606   0.00000  Uiso   1.00
H91    H     0.96093   0.84402   0.99046   0.00000  Uiso   1.00
H92    H     0.15598   0.11692   0.99046   0.00000  Uiso   1.00
H93    H     0.88308   0.03907   0.99046   0.00000  Uiso   1.00
H94    H     0.03907   0.15598   0.99046   0.00000  Uiso   1.00
H95    H     0.84402   0.88308   0.99046   0.00000  Uiso   1.00
H96    H     0.11692   0.96093   0.99046   0.00000  Uiso   1.00
N97    N     0.68443   0.65323   0.85253   0.00000  Uiso   1.00
N98    N     0.34677   0.03120   0.85253   0.00000  Uiso   1.00
N99    N     0.96880   0.31557   0.85253   0.00000  Uiso   1.00
N100   N     0.31557   0.34677   0.85253   0.00000  Uiso   1.00
N101   N     0.65323   0.96880   0.85253   0.00000  Uiso   1.00
N102   N     0.03120   0.68443   0.85253   0.00000  Uiso   1.00
C103   C     0.62358   0.64230   0.89814   0.00000  Uiso   1.00
C104   C     0.35770   0.98128   0.89814   0.00000  Uiso   1.00
C105   C     0.01872   0.37642   0.89814   0.00000  Uiso   1.00
C106   C     0.37642   0.35770   0.89814   0.00000  Uiso   1.00
C107   C     0.64230   0.01872   0.89814   0.00000  Uiso   1.00
C108   C     0.98128   0.62358   0.89814   0.00000  Uiso   1.00
H109   H     0.61678   0.68713   0.92501   0.00000  Uiso   1.00
H110   H     0.31287   0.92966   0.92501   0.00000  Uiso   1.00
H111   H     0.07034   0.38322   0.92501   0.00000  Uiso   1.00
H112   H     0.38322   0.31287   0.92501   0.00000  Uiso   1.00
H113   H     0.68713   0.07034   0.92501   0.00000  Uiso   1.00
H114   H     0.92966   0.61678   0.92501   0.00000  Uiso   1.00
C115   C     0.09920   0.10677   0.29506   0.00000  Uiso   1.00
C116   C     0.96741   1.02952   0.29506   0.00000  Uiso   1.00
C117   C     0.04466   0.97497   0.29506   0.00000  Uiso   1.00
C118   C     0.97497   0.96741   0.29506   0.00000  Uiso   1.00
C119   C     0.10677   0.04466   0.29506   0.00000  Uiso   1.00
C120   C     1.02952   0.09920   0.29506   0.00000  Uiso   1.00
C121   C     0.09090   0.89270   0.22211   0.00000  Uiso   1.00
C122   C     0.18147   0.23528   0.22211   0.00000  Uiso   1.00
C123   C     0.83889   0.98328   0.22211   0.00000  Uiso   1.00
C124   C     0.98328   0.18147   0.22211   0.00000  Uiso   1.00
C125   C     0.89270   0.83889   0.22211   0.00000  Uiso   1.00
C126   C     0.23528   0.09090   0.22211   0.00000  Uiso   1.00
C127   C     0.09691   0.83149   0.23834   0.00000  Uiso   1.00
C128   C     0.24269   0.30252   0.23834   0.00000  Uiso   1.00
C129   C     0.77166   0.97726   0.23834   0.00000  Uiso   1.00
C130   C     0.97726   0.24269   0.23834   0.00000  Uiso   1.00
C131   C     0.83149   0.77166   0.23834   0.00000  Uiso   1.00
C132   C     0.30252   0.09691   0.23834   0.00000  Uiso   1.00
C133   C     0.06262   0.78480   0.34116   0.00000  Uiso   1.00
C134   C     0.28938   0.31491   0.34116   0.00000  Uiso   1.00
C135   C     0.75927   1.01156   0.34116   0.00000  Uiso   1.00
C136   C     1.01156   0.28938   0.34116   0.00000  Uiso   1.00
C137   C     0.78480   0.75927   0.34116   0.00000  Uiso   1.00
C138   C     0.31491   0.06262   0.34116   0.00000  Uiso   1.00
C139   C     1.02576   0.80237   0.43239   0.00000  Uiso   1.00
C140   C     0.27180   0.26047   0.43239   0.00000  Uiso   1.00
C141   C     0.81371   0.04842   0.43239   0.00000  Uiso   1.00
C142   C     0.04842   0.27180   0.43239   0.00000  Uiso   1.00
C143   C     0.80237   0.81371   0.43239   0.00000  Uiso   1.00
C144   C     0.26047   1.02576   0.43239   0.00000  Uiso   1.00
C145   C     1.02260   0.86530   0.41796   0.00000  Uiso   1.00
C146   C     0.20888   0.19439   0.41796   0.00000  Uiso   1.00
C147   C     0.87978   0.05157   0.41796   0.00000  Uiso   1.00
C148   C     0.05157   0.20888   0.41796   0.00000  Uiso   1.00
C149   C     0.86530   0.87978   0.41796   0.00000  Uiso   1.00
C150   C     0.19439   1.02260   0.41796   0.00000  Uiso   1.00
C151   C     0.05222   0.90964   0.31020   0.00000  Uiso   1.00
C152   C     0.16454   0.17967   0.31020   0.00000  Uiso   1.00
C153   C     0.89450   1.02196   0.31020   0.00000  Uiso   1.00
C154   C     1.02196   0.16454   0.31020   0.00000  Uiso   1.00
C155   C     0.90964   0.89450   0.31020   0.00000  Uiso   1.00
C156   C     0.17967   0.05222   0.31020   0.00000  Uiso   1.00
C157   C     0.60645   0.04580   0.40225   0.00000  Uiso   1.00
C158   C     1.02838   0.59775   0.40225   0.00000  Uiso   1.00
C159   C     0.47643   0.46772   0.40225   0.00000  Uiso   1.00
C160   C     0.46772   1.02838   0.40225   0.00000  Uiso   1.00
C161   C     0.04580   0.47643   0.40225   0.00000  Uiso   1.00
C162   C     0.59775   0.60645   0.40225   0.00000  Uiso   1.00
C163   C     0.54572   0.97702   0.40254   0.00000  Uiso   1.00
C164   C     0.09716   0.60579   0.40254   0.00000  Uiso   1.00
C165   C     0.46838   0.52845   0.40254   0.00000  Uiso   1.00
C166   C     0.52845   0.09716   0.40254   0.00000  Uiso   1.00
C167   C     0.97702   0.46838   0.40254   0.00000  Uiso   1.00
C168   C     0.60579   0.54572   0.40254   0.00000  Uiso   1.00
C169   C     0.47691   0.96840   0.40418   0.00000  Uiso   1.00
C170   C     0.10578   0.54560   0.40418   0.00000  Uiso   1.00
C171   C     0.52857   0.59727   0.40418   0.00000  Uiso   1.00
C172   C     0.59727   0.10578   0.40418   0.00000  Uiso   1.00
C173   C     0.96840   0.52857   0.40418   0.00000  Uiso   1.00
C174   C     0.54560   0.47691   0.40418   0.00000  Uiso   1.00
H175   H     0.55187   0.93016   0.40170   0.00000  Uiso   1.00
H176   H     0.14402   0.65880   0.40170   0.00000  Uiso   1.00
H177   H     0.41538   0.52231   0.40170   0.00000  Uiso   1.00
H178   H     0.52231   0.14402   0.40170   0.00000  Uiso   1.00
H179   H     0.93016   0.41538   0.40170   0.00000  Uiso   1.00
H180   H     0.65880   0.55187   0.40170   0.00000  Uiso   1.00
H181   H     0.43081   0.91490   0.40406   0.00000  Uiso   1.00
H182   H     0.15928   0.55300   0.40406   0.00000  Uiso   1.00
H183   H     0.52118   0.64337   0.40406   0.00000  Uiso   1.00
H184   H     0.64337   0.15928   0.40406   0.00000  Uiso   1.00
H185   H     0.91490   0.52118   0.40406   0.00000  Uiso   1.00
H186   H     0.55300   0.43081   0.40406   0.00000  Uiso   1.00
H187   H     0.11698   0.92687   0.14194   0.00000  Uiso   1.00
H188   H     0.14731   0.22719   0.14194   0.00000  Uiso   1.00
H189   H     0.84698   0.95720   0.14194   0.00000  Uiso   1.00
H190   H     0.95720   0.14731   0.14194   0.00000  Uiso   1.00
H191   H     0.92687   0.84698   0.14194   0.00000  Uiso   1.00
H192   H     0.22719   0.11698   0.14194   0.00000  Uiso   1.00
H193   H     0.12683   0.81913   0.16911   0.00000  Uiso   1.00
H194   H     0.25505   0.34479   0.16911   0.00000  Uiso   1.00
H195   H     0.72938   0.94734   0.16911   0.00000  Uiso   1.00
H196   H     0.94734   0.25505   0.16911   0.00000  Uiso   1.00
H197   H     0.81913   0.72938   0.16911   0.00000  Uiso   1.00
H198   H     0.34479   0.12683   0.16911   0.00000  Uiso   1.00
H199   H     1.00145   0.76873   0.51606   0.00000  Uiso   1.00
H200   H     0.30544   0.26980   0.51606   0.00000  Uiso   1.00
H201   H     0.80438   0.07273   0.51606   0.00000  Uiso   1.00
H202   H     0.07273   0.30544   0.51606   0.00000  Uiso   1.00
H203   H     0.76873   0.80438   0.51606   0.00000  Uiso   1.00
H204   H     0.26980   1.00145   0.51606   0.00000  Uiso   1.00
H205   H     0.99802   0.88110   0.49046   0.00000  Uiso   1.00
H206   H     0.19307   0.15401   0.49046   0.00000  Uiso   1.00
H207   H     0.92017   0.07615   0.49046   0.00000  Uiso   1.00
H208   H     0.07615   0.19307   0.49046   0.00000  Uiso   1.00
H209   H     0.88110   0.92017   0.49046   0.00000  Uiso   1.00
H210   H     0.15401   0.99802   0.49046   0.00000  Uiso   1.00
N211   N     0.72152   0.69032   0.35253   0.00000  Uiso   1.00
N212   N     0.38386   0.06829   0.35253   0.00000  Uiso   1.00
N213   N     1.00588   0.35265   0.35253   0.00000  Uiso   1.00
N214   N     0.35265   0.38386   0.35253   0.00000  Uiso   1.00
N215   N     0.69032   1.00588   0.35253   0.00000  Uiso   1.00
N216   N     0.06829   0.72152   0.35253   0.00000  Uiso   1.00
C217   C     0.66067   0.67939   0.39814   0.00000  Uiso   1.00
C218   C     0.39479   1.01837   0.39814   0.00000  Uiso   1.00
C219   C     0.05581   0.41351   0.39814   0.00000  Uiso   1.00
C220   C     0.41351   0.39479   0.39814   0.00000  Uiso   1.00
C221   C     0.67939   0.05581   0.39814   0.00000  Uiso   1.00
C222   C     1.01837   0.66067   0.39814   0.00000  Uiso   1.00
H223   H     0.65387   0.72421   0.42501   0.00000  Uiso   1.00
H224   H     0.34996   0.96675   0.42501   0.00000  Uiso   1.00
H225   H     0.10743   0.42030   0.42501   0.00000  Uiso   1.00
H226   H     0.42030   0.34996   0.42501   0.00000  Uiso   1.00
H227   H     0.72421   0.10743   0.42501   0.00000  Uiso   1.00
H228   H     0.96675   0.65387   0.42501   0.00000  Uiso   1.00
loop_
_geom_bond_atom_site_label_1
_geom_bond_atom_site_label_2
_geom_bond_distance
_geom_bond_site_symmetry_2
_ccdc_geom_bond_type
C1     C5      1.428   .     D
C1     C6      1.428   1_455 S
C1     C38     1.506   .     S
C2     C4      1.428   .     D
C2     C6      1.428   1_565 S
C2     C39     1.506   .     S
C3     C4      1.428   1_455 S
C3     C5      1.428   1_565 S
C3     C37     1.506   .     D
C4     C3      1.428   1_655 S
C4     C41     1.506   .     S
C5     C3      1.428   1_545 S
C5     C42     1.506   .     S
C6     C2      1.428   1_545 S
C6     C1      1.428   1_655 S
C6     C40     1.506   .     D
C7     C13     1.400   .     D
C7     C37     1.401   .     S
C7     H73     1.064   .     S
C8     C14     1.400   .     S
C8     C38     1.402   .     D
C8     H74     1.064   .     S
C9     C15     1.400   .     S
C9     C39     1.401   .     D
C9     H75     1.064   .     S
C10    C16     1.400   .     D
C10    C40     1.401   .     S
C10    H76     1.064   .     S
C11    C17     1.400   .     S
C11    C41     1.402   .     D
C11    H77     1.064   .     S
C12    C18     1.400   .     S
C12    C42     1.401   .     D
C12    H78     1.064   .     S
C13    C19     1.395   .     S
C13    H79     1.083   .     S
C14    C20     1.395   .     D
C14    H80     1.083   .     S
C15    C21     1.395   .     D
C15    H81     1.083   .     S
C16    C22     1.395   .     S
C16    H82     1.083   .     S
C17    C23     1.395   .     D
C17    H83     1.083   .     S
C18    C24     1.395   .     D
C18    H84     1.083   .     S
C19    C25     1.403   1_455 S
C19    N102    1.435   .     D
C20    C26     1.403   .     S
C20    N100    1.435   .     S
C21    C27     1.403   1_565 S
C21    N101    1.435   .     S
C22    C28     1.403   1_655 S
C22    N99     1.435   .     D
C23    C29     1.403   .     S
C23    N97     1.435   .     S
C24    C30     1.403   1_545 S
C24    N98     1.435   .     S
C25    C19     1.403   1_655 S
C25    C31     1.400   .     D
C25    H85     1.082   .     S
C26    C32     1.400   .     D
C26    H86     1.082   .     S
C27    C21     1.403   1_545 S
C27    C33     1.400   .     D
C27    H87     1.081   .     S
C28    C22     1.403   1_455 S
C28    C34     1.400   .     D
C28    H88     1.082   .     S
C29    C35     1.400   .     D
C29    H89     1.082   .     S
C30    C24     1.403   1_565 S
C30    C36     1.400   .     D
C30    H90     1.081   .     S
C31    C37     1.398   1_655 S
C31    H91     1.068   .     S
C32    C38     1.398   .     S
C32    H92     1.068   .     S
C33    C39     1.398   1_545 S
C33    H93     1.068   .     S
C34    C40     1.398   1_455 S
C34    H94     1.068   .     S
C35    C41     1.398   .     S
C35    H95     1.068   .     S
C36    C42     1.398   1_565 S
C36    H96     1.068   .     S
C37    C31     1.398   1_455 S
C39    C33     1.398   1_565 S
C40    C34     1.398   1_655 S
C42    C36     1.398   1_545 S
C43    C49     1.405   1_545 D
C43    C58     1.404   .     S
C43    C107    1.478   .     S
C44    C50     1.405   1_655 S
C44    C59     1.404   .     S
C44    C108    1.478   .     D
C45    C51     1.405   .     S
C45    C60     1.404   .     D
C45    C106    1.478   .     S
C46    C52     1.405   1_565 S
C46    C55     1.404   .     D
C46    C104    1.478   .     S
C47    C53     1.405   1_455 S
C47    C56     1.404   .     S
C47    C105    1.478   .     D
C48    C54     1.405   .     D
C48    C57     1.404   .     S
C48    C103    1.478   .     S
C49    C43     1.405   1_565 D
C49    C55     1.401   .     S
C49    H61     1.083   .     S
C50    C44     1.405   1_455 S
C50    C56     1.401   .     D
C50    H62     1.083   .     S
C51    C57     1.401   .     D
C51    H63     1.083   .     S
C52    C46     1.405   1_545 S
C52    C58     1.401   .     D
C52    H64     1.083   .     S
C53    C47     1.405   1_655 S
C53    C59     1.401   .     D
C53    H65     1.083   .     S
C54    C60     1.401   .     S
C54    H66     1.083   .     S
C55    H67     1.083   .     S
C56    H68     1.083   .     S
C57    H69     1.083   .     S
C58    H70     1.083   .     S
C59    H71     1.083   .     S
C60    H72     1.083   .     S
N97    C103    1.300   .     D
N98    C104    1.300   1_545 D
N99    C105    1.300   1_655 S
N100   C106    1.300   .     D
N101   C107    1.300   1_565 D
N102   C108    1.300   1_455 S
C103   H109    1.084   .     S
C104   N98     1.300   1_565 D
C104   H110    1.084   .     S
C105   N99     1.300   1_455 S
C105   H111    1.084   .     S
C106   H112    1.084   .     S
C107   N101    1.300   1_545 D
C107   H113    1.084   .     S
C108   N102    1.300   1_655 S
C108   H114    1.084   .     S
C115   C119    1.428   .     S
C115   C120    1.428   1_455 D
C115   C152    1.506   .     S
C116   C118    1.428   .     D
C116   C120    1.428   1_565 S
C116   C153    1.506   .     S
C117   C118    1.429   1_455 S
C117   C119    1.428   1_565 D
C117   C151    1.506   .     S
C118   C117    1.429   1_655 S
C118   C155    1.506   .     S
C119   C117    1.428   1_545 D
C119   C156    1.506   .     S
C120   C116    1.428   1_545 S
C120   C115    1.428   1_655 D
C120   C154    1.506   .     S
C121   C127    1.400   .     S
C121   C151    1.401   .     D
C121   H187    1.064   .     S
C122   C128    1.400   .     S
C122   C152    1.401   .     D
C122   H188    1.064   .     S
C123   C129    1.400   .     S
C123   C153    1.401   .     D
C123   H189    1.064   .     S
C124   C130    1.400   .     S
C124   C154    1.401   .     D
C124   H190    1.064   .     S
C125   C131    1.400   .     S
C125   C155    1.401   .     D
C125   H191    1.064   .     S
C126   C132    1.400   .     S
C126   C156    1.401   .     D
C126   H192    1.064   .     S
C127   C133    1.395   .     D
C127   H193    1.083   .     S
C128   C134    1.395   .     D
C128   H194    1.082   .     S
C129   C135    1.395   .     D
C129   H195    1.083   .     S
C130   C136    1.395   .     D
C130   H196    1.083   .     S
C131   C137    1.395   .     D
C131   H197    1.083   .     S
C132   C138    1.395   .     D
C132   H198    1.083   .     S
C133   C139    1.402   1_455 S
C133   N216    1.435   .     S
C134   C140    1.403   .     S
C134   N214    1.435   .     S
C135   C141    1.403   1_565 S
C135   N215    1.435   .     S
C136   C142    1.403   1_655 S
C136   N213    1.435   .     S
C137   C143    1.403   .     S
C137   N211    1.435   .     S
C138   C144    1.403   1_545 S
C138   N212    1.435   .     S
C139   C133    1.402   1_655 S
C139   C145    1.401   .     D
C139   H199    1.081   .     S
C140   C146    1.400   .     D
C140   H200    1.081   .     S
C141   C135    1.403   1_545 S
C141   C147    1.400   .     D
C141   H201    1.081   .     S
C142   C136    1.403   1_455 S
C142   C148    1.400   .     D
C142   H202    1.081   .     S
C143   C149    1.400   .     D
C143   H203    1.081   .     S
C144   C138    1.403   1_565 S
C144   C150    1.400   .     D
C144   H204    1.081   .     S
C145   C151    1.398   1_655 S
C145   H205    1.068   .     S
C146   C152    1.398   .     S
C146   H206    1.068   .     S
C147   C153    1.398   1_545 S
C147   H207    1.068   .     S
C148   C154    1.398   1_455 S
C148   H208    1.068   .     S
C149   C155    1.398   .     S
C149   H209    1.068   .     S
C150   C156    1.398   1_565 S
C150   H210    1.068   .     S
C151   C145    1.398   1_455 S
C153   C147    1.398   1_565 S
C154   C148    1.398   1_655 S
C156   C150    1.398   1_545 S
C157   C163    1.405   1_545 D
C157   C172    1.403   .     S
C157   C221    1.478   .     S
C158   C164    1.405   1_655 D
C158   C173    1.404   .     S
C158   C222    1.478   .     S
C159   C165    1.405   .     S
C159   C174    1.404   .     D
C159   C220    1.478   .     S
C160   C166    1.405   1_565 S
C160   C169    1.404   .     D
C160   C218    1.478   .     S
C161   C167    1.405   1_455 S
C161   C170    1.404   .     D
C161   C219    1.478   .     S
C162   C168    1.405   .     D
C162   C171    1.404   .     S
C162   C217    1.478   .     S
C163   C157    1.405   1_565 D
C163   C169    1.401   .     S
C163   H175    1.083   .     S
C164   C158    1.405   1_455 D
C164   C170    1.401   .     S
C164   H176    1.083   .     S
C165   C171    1.401   .     D
C165   H177    1.083   .     S
C166   C160    1.405   1_545 S
C166   C172    1.401   .     D
C166   H178    1.083   .     S
C167   C161    1.405   1_655 S
C167   C173    1.401   .     D
C167   H179    1.083   .     S
C168   C174    1.401   .     S
C168   H180    1.083   .     S
C169   H181    1.083   .     S
C170   H182    1.083   .     S
C171   H183    1.083   .     S
C172   H184    1.083   .     S
C173   H185    1.083   .     S
C174   H186    1.083   .     S
N211   C217    1.300   .     D
N212   C218    1.300   1_545 D
N213   C219    1.301   1_655 D
N214   C220    1.301   .     D
N215   C221    1.301   1_565 D
N216   C222    1.300   1_455 D
C217   H223    1.084   .     S
C218   N212    1.300   1_565 D
C218   H224    1.084   .     S
C219   N213    1.301   1_455 D
C219   H225    1.084   .     S
C220   H226    1.084   .     S
C221   N215    1.301   1_545 D
C221   H227    1.084   .     S
C222   N216    1.300   1_655 D
C222   H228    1.084   .     S
