data_258
_audit_creation_date              2023-09-08
_audit_creation_method            'Materials Studio'
_symmetry_space_group_name_H-M    'P1'
_symmetry_Int_Tables_number       1
_symmetry_cell_setting            triclinic
loop_
_symmetry_equiv_pos_as_xyz
  x,y,z
_cell_length_a                    35.0000
_cell_length_b                    35.0000
_cell_length_c                    3.4400
_cell_angle_alpha                 90.0000
_cell_angle_beta                  90.0000
_cell_angle_gamma                 120.0000
loop_
_atom_site_label
_atom_site_type_symbol
_atom_site_fract_x
_atom_site_fract_y
_atom_site_fract_z
_atom_site_U_iso_or_equiv
_atom_site_adp_type
_atom_site_occupancy
H1     H     0.68877   0.82235   0.00000   0.00000  Uiso   1.00
C2     C     0.72279   0.82975   0.00000   0.00000  Uiso   1.00
N3     N     0.75428   0.87048   0.00000   0.00000  Uiso   1.00
N4     N     0.74473   0.90482   0.00000   0.00000  Uiso   1.00
H5     H     0.81017   0.95318   0.00000   0.00000  Uiso   1.00
C6     C     0.77610   0.94560   0.00000   0.00000  Uiso   1.00
C7     C     0.76630   0.98206   0.00000   0.00000  Uiso   1.00
C8     C     0.72267   0.97389   0.00000   0.00000  Uiso   1.00
H9     H     0.69691   0.93995   0.00000   0.00000  Uiso   1.00
C10    C     0.66587   0.99971   0.00000   0.00000  Uiso   1.00
H11    H     0.63285   0.92734   0.00000   0.00000  Uiso   1.00
C12    C     0.62934   0.95614   0.00000   0.00000  Uiso   1.00
C13    C     0.58599   0.94801   0.00000   0.00000  Uiso   1.00
H14    H     0.55907   0.91419   0.00000   0.00000  Uiso   1.00
C15    C     0.57729   0.98282   0.00000   0.00000  Uiso   1.00
C16    C     0.53115   0.97322   0.00000   0.00000  Uiso   1.00
H17    H     0.50458   0.93918   0.00000   0.00000  Uiso   1.00
N18    N     0.47807   0.99528   0.00000   0.00000  Uiso   1.00
H19    H     0.39296   0.94618   0.00000   0.00000  Uiso   1.00
C20    C     0.38725   0.97386   0.00000   0.00000  Uiso   1.00
C21    C     0.34382   0.96551   0.00000   0.00000  Uiso   1.00
H22    H     0.31870   0.93128   0.00000   0.00000  Uiso   1.00
C23    C     0.28693   0.99130   0.00000   0.00000  Uiso   1.00
H24    H     0.25483   0.91939   0.00000   0.00000  Uiso   1.00
C25    C     0.25051   0.94772   0.00000   0.00000  Uiso   1.00
C26    C     0.20688   0.93921   0.00000   0.00000  Uiso   1.00
C27    C     0.19875   0.97379   0.00000   0.00000  Uiso   1.00
H28    H     0.16515   0.96826   0.00000   0.00000  Uiso   1.00
H29    H     0.17765   0.86642   0.00000   0.00000  Uiso   1.00
C30    C     0.17025   0.89304   0.00000   0.00000  Uiso   1.00
N31    N     0.12952   0.88380   0.00000   0.00000  Uiso   1.00
N32    N     0.09518   0.83991   0.00000   0.00000  Uiso   1.00
H33    H     0.04682   0.85699   0.00000   0.00000  Uiso   1.00
C34    C     0.05440   0.83050   0.00000   0.00000  Uiso   1.00
C35    C     0.01794   0.78424   0.00000   0.00000  Uiso   1.00
C36    C     0.02611   0.74878   0.00000   0.00000  Uiso   1.00
H37    H     0.06005   0.75696   0.00000   0.00000  Uiso   1.00
C38    C     0.00029   0.66616   0.00000   0.00000  Uiso   1.00
H39    H     0.07266   0.70551   0.00000   0.00000  Uiso   1.00
C40    C     0.04386   0.67320   0.00000   0.00000  Uiso   1.00
C41    C     0.05199   0.63798   0.00000   0.00000  Uiso   1.00
H42    H     0.08581   0.64488   0.00000   0.00000  Uiso   1.00
C43    C     0.01718   0.59447   0.00000   0.00000  Uiso   1.00
C44    C     0.02678   0.55793   0.00000   0.00000  Uiso   1.00
H45    H     0.06082   0.56540   0.00000   0.00000  Uiso   1.00
N46    N     0.00472   0.48279   0.00000   0.00000  Uiso   1.00
H47    H     0.05382   0.44678   0.00000   0.00000  Uiso   1.00
C48    C     0.02614   0.41339   0.00000   0.00000  Uiso   1.00
C49    C     0.03449   0.37831   0.00000   0.00000  Uiso   1.00
H50    H     0.06872   0.38742   0.00000   0.00000  Uiso   1.00
C51    C     0.00870   0.29563   0.00000   0.00000  Uiso   1.00
H52    H     0.08061   0.33544   0.00000   0.00000  Uiso   1.00
C53    C     0.05228   0.30279   0.00000   0.00000  Uiso   1.00
C54    C     0.06079   0.26767   0.00000   0.00000  Uiso   1.00
C55    C     0.02621   0.22496   0.00000   0.00000  Uiso   1.00
H56    H     0.03174   0.19689   0.00000   0.00000  Uiso   1.00
H57    H     0.13358   0.31123   0.00000   0.00000  Uiso   1.00
C58    C     0.10696   0.27721   0.00000   0.00000  Uiso   1.00
N59    N     0.11620   0.24572   0.00000   0.00000  Uiso   1.00
N60    N     0.16009   0.25527   0.00000   0.00000  Uiso   1.00
H61    H     0.14301   0.18983   0.00000   0.00000  Uiso   1.00
C62    C     0.16950   0.22390   0.00000   0.00000  Uiso   1.00
C63    C     0.21576   0.23370   0.00000   0.00000  Uiso   1.00
C64    C     0.25122   0.27733   0.00000   0.00000  Uiso   1.00
H65    H     0.24304   0.30309   0.00000   0.00000  Uiso   1.00
C66    C     0.33384   0.33413   0.00000   0.00000  Uiso   1.00
H67    H     0.29449   0.36715   0.00000   0.00000  Uiso   1.00
C68    C     0.32680   0.37066   0.00000   0.00000  Uiso   1.00
C69    C     0.36202   0.41401   0.00000   0.00000  Uiso   1.00
H70    H     0.35512   0.44093   0.00000   0.00000  Uiso   1.00
C71    C     0.40553   0.42271   0.00000   0.00000  Uiso   1.00
C72    C     0.44207   0.46885   0.00000   0.00000  Uiso   1.00
H73    H     0.43460   0.49542   0.00000   0.00000  Uiso   1.00
N74    N     0.51721   0.52193   0.00000   0.00000  Uiso   1.00
H75    H     0.55322   0.60704   0.00000   0.00000  Uiso   1.00
C76    C     0.58661   0.61275   0.00000   0.00000  Uiso   1.00
C77    C     0.62169   0.65618   0.00000   0.00000  Uiso   1.00
H78    H     0.61258   0.68130   0.00000   0.00000  Uiso   1.00
C79    C     0.70437   0.71307   0.00000   0.00000  Uiso   1.00
H80    H     0.66456   0.74517   0.00000   0.00000  Uiso   1.00
C81    C     0.69721   0.74949   0.00000   0.00000  Uiso   1.00
C82    C     0.73233   0.79312   0.00000   0.00000  Uiso   1.00
C83    C     0.77504   0.80125   0.00000   0.00000  Uiso   1.00
H84    H     0.80311   0.83485   0.00000   0.00000  Uiso   1.00
H85    H     0.31123   0.17765   0.00000   0.00000  Uiso   1.00
C86    C     0.27721   0.17025   0.00000   0.00000  Uiso   1.00
N87    N     0.24572   0.12952   0.00000   0.00000  Uiso   1.00
N88    N     0.25527   0.09518   0.00000   0.00000  Uiso   1.00
H89    H     0.18983   0.04682   0.00000   0.00000  Uiso   1.00
C90    C     0.22390   0.05440   0.00000   0.00000  Uiso   1.00
C91    C     0.23370   0.01794   0.00000   0.00000  Uiso   1.00
C92    C     0.27733   0.02611   0.00000   0.00000  Uiso   1.00
H93    H     0.30309   0.06005   0.00000   0.00000  Uiso   1.00
C94    C     0.33413   0.00029   0.00000   0.00000  Uiso   1.00
H95    H     0.36715   0.07266   0.00000   0.00000  Uiso   1.00
C96    C     0.37066   0.04386   0.00000   0.00000  Uiso   1.00
C97    C     0.41401   0.05199   0.00000   0.00000  Uiso   1.00
H98    H     0.44093   0.08581   0.00000   0.00000  Uiso   1.00
C99    C     0.42271   0.01718   0.00000   0.00000  Uiso   1.00
C100   C     0.46885   0.02678   0.00000   0.00000  Uiso   1.00
H101   H     0.49542   0.06082   0.00000   0.00000  Uiso   1.00
N102   N     0.52193   0.00472   0.00000   0.00000  Uiso   1.00
H103   H     0.60704   0.05382   0.00000   0.00000  Uiso   1.00
C104   C     0.61275   0.02614   0.00000   0.00000  Uiso   1.00
C105   C     0.65618   0.03449   0.00000   0.00000  Uiso   1.00
H106   H     0.68130   0.06872   0.00000   0.00000  Uiso   1.00
C107   C     0.71307   0.00870   0.00000   0.00000  Uiso   1.00
H108   H     0.74517   0.08061   0.00000   0.00000  Uiso   1.00
C109   C     0.74949   0.05228   0.00000   0.00000  Uiso   1.00
C110   C     0.79312   0.06079   0.00000   0.00000  Uiso   1.00
C111   C     0.80125   0.02621   0.00000   0.00000  Uiso   1.00
H112   H     0.83485   0.03174   0.00000   0.00000  Uiso   1.00
H113   H     0.82235   0.13358   0.00000   0.00000  Uiso   1.00
C114   C     0.82975   0.10696   0.00000   0.00000  Uiso   1.00
N115   N     0.87048   0.11620   0.00000   0.00000  Uiso   1.00
N116   N     0.90482   0.16009   0.00000   0.00000  Uiso   1.00
H117   H     0.95318   0.14301   0.00000   0.00000  Uiso   1.00
C118   C     0.94560   0.16950   0.00000   0.00000  Uiso   1.00
C119   C     0.98206   0.21576   0.00000   0.00000  Uiso   1.00
C120   C     0.97389   0.25122   0.00000   0.00000  Uiso   1.00
H121   H     0.93995   0.24304   0.00000   0.00000  Uiso   1.00
C122   C     0.99971   0.33384   0.00000   0.00000  Uiso   1.00
H123   H     0.92734   0.29449   0.00000   0.00000  Uiso   1.00
C124   C     0.95614   0.32680   0.00000   0.00000  Uiso   1.00
C125   C     0.94801   0.36202   0.00000   0.00000  Uiso   1.00
H126   H     0.91419   0.35512   0.00000   0.00000  Uiso   1.00
C127   C     0.98282   0.40553   0.00000   0.00000  Uiso   1.00
C128   C     0.97322   0.44207   0.00000   0.00000  Uiso   1.00
H129   H     0.93918   0.43460   0.00000   0.00000  Uiso   1.00
N130   N     0.99528   0.51721   0.00000   0.00000  Uiso   1.00
H131   H     0.94618   0.55322   0.00000   0.00000  Uiso   1.00
C132   C     0.97386   0.58661   0.00000   0.00000  Uiso   1.00
C133   C     0.96551   0.62169   0.00000   0.00000  Uiso   1.00
H134   H     0.93128   0.61258   0.00000   0.00000  Uiso   1.00
C135   C     0.99130   0.70437   0.00000   0.00000  Uiso   1.00
H136   H     0.91939   0.66456   0.00000   0.00000  Uiso   1.00
C137   C     0.94772   0.69721   0.00000   0.00000  Uiso   1.00
C138   C     0.93921   0.73233   0.00000   0.00000  Uiso   1.00
C139   C     0.97379   0.77504   0.00000   0.00000  Uiso   1.00
H140   H     0.96826   0.80311   0.00000   0.00000  Uiso   1.00
H141   H     0.86642   0.68877   0.00000   0.00000  Uiso   1.00
C142   C     0.89304   0.72279   0.00000   0.00000  Uiso   1.00
N143   N     0.88380   0.75428   0.00000   0.00000  Uiso   1.00
N144   N     0.83991   0.74473   0.00000   0.00000  Uiso   1.00
H145   H     0.85699   0.81017   0.00000   0.00000  Uiso   1.00
C146   C     0.83050   0.77610   0.00000   0.00000  Uiso   1.00
C147   C     0.78424   0.76630   0.00000   0.00000  Uiso   1.00
C148   C     0.74878   0.72267   0.00000   0.00000  Uiso   1.00
H149   H     0.75696   0.69691   0.00000   0.00000  Uiso   1.00
C150   C     0.66616   0.66587   0.00000   0.00000  Uiso   1.00
H151   H     0.70551   0.63285   0.00000   0.00000  Uiso   1.00
C152   C     0.67320   0.62934   0.00000   0.00000  Uiso   1.00
C153   C     0.63798   0.58599   0.00000   0.00000  Uiso   1.00
H154   H     0.64488   0.55907   0.00000   0.00000  Uiso   1.00
C155   C     0.59447   0.57729   0.00000   0.00000  Uiso   1.00
C156   C     0.55793   0.53115   0.00000   0.00000  Uiso   1.00
H157   H     0.56540   0.50458   0.00000   0.00000  Uiso   1.00
N158   N     0.48279   0.47807   0.00000   0.00000  Uiso   1.00
H159   H     0.44678   0.39296   0.00000   0.00000  Uiso   1.00
C160   C     0.41339   0.38725   0.00000   0.00000  Uiso   1.00
C161   C     0.37831   0.34382   0.00000   0.00000  Uiso   1.00
H162   H     0.38742   0.31870   0.00000   0.00000  Uiso   1.00
C163   C     0.29563   0.28693   0.00000   0.00000  Uiso   1.00
H164   H     0.33544   0.25483   0.00000   0.00000  Uiso   1.00
C165   C     0.30279   0.25051   0.00000   0.00000  Uiso   1.00
C166   C     0.26767   0.20688   0.00000   0.00000  Uiso   1.00
C167   C     0.22496   0.19875   0.00000   0.00000  Uiso   1.00
H168   H     0.19689   0.16515   0.00000   0.00000  Uiso   1.00
loop_
_geom_bond_atom_site_label_1
_geom_bond_atom_site_label_2
_geom_bond_distance
_geom_bond_site_symmetry_2
_ccdc_geom_bond_type
H1     C2      1.085   .     S
C2     N3      1.295   .     D
C2     C82     1.478   .     S
N3     N4      1.399   .     S
N4     C6      1.294   .     D
H5     C6      1.084   .     S
C6     C7      1.478   .     S
C7     C8      1.406   .     S
C7     C111    1.412   1_565 D
C8     H9      1.074   .     S
C8     C107    1.417   1_565 D
C10    C12     1.418   .     D
C10    C105    1.418   1_565 S
C10    C107    1.519   1_565 S
H11    C12     1.075   .     S
C12    C13     1.397   .     S
C13    H14     1.083   .     S
C13    C15     1.396   .     D
C15    C16     1.476   .     S
C15    C104    1.399   1_565 S
C16    H17     1.085   .     S
C16    N102    1.294   1_565 D
N18    C100    1.294   1_565 D
N18    N102    1.399   1_565 S
H19    C20     1.083   .     S
C20    C21     1.397   .     S
C20    C99     1.399   1_565 D
C21    H22     1.075   .     S
C21    C94     1.418   1_565 D
C23    C25     1.417   .     S
C23    C92     1.417   1_565 D
C23    C94     1.519   1_565 S
H24    C25     1.075   .     S
C25    C26     1.402   .     D
C26    C27     1.375   .     S
C26    C30     1.478   .     S
C27    H28     1.092   .     S
C27    C91     1.412   1_565 D
H29    C30     1.085   .     S
C30    N31     1.295   .     D
N31    N32     1.399   .     S
N32    C34     1.294   .     D
H33    C34     1.084   .     S
C34    C35     1.478   .     S
C35    C36     1.406   .     S
C35    C139    1.412   1_455 D
C36    H37     1.074   .     S
C36    C135    1.417   1_455 D
C38    C40     1.418   .     S
C38    C133    1.418   1_455 D
C38    C135    1.519   1_455 S
H39    C40     1.075   .     S
C40    C41     1.397   .     D
C41    H42     1.083   .     S
C41    C43     1.396   .     S
C43    C44     1.476   .     S
C43    C132    1.399   1_455 D
C44    H45     1.085   .     S
C44    N130    1.294   1_455 D
N46    C128    1.294   1_455 D
N46    N130    1.399   1_455 S
H47    C48     1.083   .     S
C48    C49     1.397   .     S
C48    C127    1.399   1_455 D
C49    H50     1.075   .     S
C49    C122    1.418   1_455 D
C51    C53     1.417   .     D
C51    C120    1.417   1_455 S
C51    C122    1.519   1_455 S
H52    C53     1.075   .     S
C53    C54     1.402   .     S
C54    C55     1.375   .     D
C54    C58     1.478   .     S
C55    H56     1.092   .     S
C55    C119    1.412   1_455 S
H57    C58     1.085   .     S
C58    N59     1.295   .     D
N59    N60     1.399   .     S
N60    C62     1.294   .     D
H61    C62     1.084   .     S
C62    C63     1.478   .     S
C63    C64     1.406   .     S
C63    C167    1.412   .     D
C64    H65     1.074   .     S
C64    C163    1.417   .     D
C66    C68     1.418   .     D
C66    C161    1.418   .     S
C66    C163    1.519   .     S
H67    C68     1.075   .     S
C68    C69     1.397   .     S
C69    H70     1.083   .     S
C69    C71     1.396   .     D
C71    C72     1.476   .     S
C71    C160    1.399   .     S
C72    H73     1.085   .     S
C72    N158    1.294   .     D
N74    C156    1.294   .     D
N74    N158    1.399   .     S
H75    C76     1.083   .     S
C76    C77     1.397   .     D
C76    C155    1.399   .     S
C77    H78     1.075   .     S
C77    C150    1.418   .     S
C79    C81     1.417   .     D
C79    C148    1.417   .     S
C79    C150    1.519   .     S
H80    C81     1.075   .     S
C81    C82     1.402   .     S
C82    C83     1.375   .     D
C83    H84     1.092   .     S
C83    C147    1.412   .     S
H85    C86     1.085   .     S
C86    N87     1.295   .     D
C86    C166    1.478   .     S
N87    N88     1.399   .     S
N88    C90     1.294   .     D
H89    C90     1.084   .     S
C90    C91     1.478   .     S
C91    C27     1.412   1_545 D
C91    C92     1.406   .     S
C92    C23     1.417   1_545 D
C92    H93     1.074   .     S
C94    C23     1.519   1_545 S
C94    C21     1.418   1_545 D
C94    C96     1.418   .     S
H95    C96     1.075   .     S
C96    C97     1.397   .     D
C97    H98     1.083   .     S
C97    C99     1.396   .     S
C99    C20     1.399   1_545 D
C99    C100    1.476   .     S
C100   N18     1.294   1_545 D
C100   H101    1.085   .     S
N102   C16     1.294   1_545 D
N102   N18     1.399   1_545 S
H103   C104    1.083   .     S
C104   C15     1.399   1_545 S
C104   C105    1.397   .     D
C105   C10     1.418   1_545 S
C105   H106    1.075   .     S
C107   C10     1.519   1_545 S
C107   C8      1.417   1_545 D
C107   C109    1.417   .     S
H108   C109    1.075   .     S
C109   C110    1.402   .     D
C110   C111    1.375   .     S
C110   C114    1.478   .     S
C111   C7      1.412   1_545 D
C111   H112    1.092   .     S
H113   C114    1.085   .     S
C114   N115    1.295   .     D
N115   N116    1.399   .     S
N116   C118    1.294   .     D
H117   C118    1.084   .     S
C118   C119    1.478   .     S
C119   C55     1.412   1_655 S
C119   C120    1.406   .     D
C120   C51     1.417   1_655 S
C120   H121    1.074   .     S
C122   C49     1.418   1_655 D
C122   C51     1.519   1_655 S
C122   C124    1.418   .     S
H123   C124    1.075   .     S
C124   C125    1.397   .     D
C125   H126    1.083   .     S
C125   C127    1.396   .     S
C127   C48     1.399   1_655 D
C127   C128    1.476   .     S
C128   N46     1.294   1_655 D
C128   H129    1.085   .     S
N130   C44     1.294   1_655 D
N130   N46     1.399   1_655 S
H131   C132    1.083   .     S
C132   C43     1.399   1_655 D
C132   C133    1.397   .     S
C133   C38     1.418   1_655 D
C133   H134    1.075   .     S
C135   C36     1.417   1_655 D
C135   C38     1.519   1_655 S
C135   C137    1.417   .     S
H136   C137    1.075   .     S
C137   C138    1.402   .     D
C138   C139    1.375   .     S
C138   C142    1.478   .     S
C139   C35     1.412   1_655 D
C139   H140    1.092   .     S
H141   C142    1.085   .     S
C142   N143    1.295   .     D
N143   N144    1.399   .     S
N144   C146    1.294   .     D
H145   C146    1.084   .     S
C146   C147    1.478   .     S
C147   C148    1.406   .     D
C148   H149    1.074   .     S
C150   C152    1.418   .     D
H151   C152    1.075   .     S
C152   C153    1.397   .     S
C153   H154    1.083   .     S
C153   C155    1.396   .     D
C155   C156    1.476   .     S
C156   H157    1.085   .     S
H159   C160    1.083   .     S
C160   C161    1.397   .     D
C161   H162    1.075   .     S
C163   C165    1.417   .     S
H164   C165    1.075   .     S
C165   C166    1.402   .     D
C166   C167    1.375   .     S
C167   H168    1.092   .     S
