data_259
_audit_creation_date              2023-09-08
_audit_creation_method            'Materials Studio'
_symmetry_space_group_name_H-M    'P1'
_symmetry_Int_Tables_number       1
_symmetry_cell_setting            triclinic
loop_
_symmetry_equiv_pos_as_xyz
  x,y,z
_cell_length_a                    39.8900
_cell_length_b                    39.8900
_cell_length_c                    3.4700
_cell_angle_alpha                 90.0000
_cell_angle_beta                  90.0000
_cell_angle_gamma                 120.0000
loop_
_atom_site_label
_atom_site_type_symbol
_atom_site_fract_x
_atom_site_fract_y
_atom_site_fract_z
_atom_site_U_iso_or_equiv
_atom_site_adp_type
_atom_site_occupancy
H1     H     0.72600   0.84920   0.00000   0.00000  Uiso   1.00
C2     C     0.75564   0.85506   0.00000   0.00000  Uiso   1.00
N3     N     0.78383   0.89053   0.00000   0.00000  Uiso   1.00
N4     N     0.77644   0.92133   0.00000   0.00000  Uiso   1.00
H5     H     0.83428   0.96262   0.00000   0.00000  Uiso   1.00
C6     C     0.80464   0.95679   0.00000   0.00000  Uiso   1.00
C7     C     0.79719   0.98949   0.00000   0.00000  Uiso   1.00
C8     C     0.75929   0.98333   0.00000   0.00000  Uiso   1.00
H9     H     0.73468   0.95418   0.00000   0.00000  Uiso   1.00
C10    C     0.64265   0.99613   0.00000   0.00000  Uiso   1.00
H11    H     0.61594   0.93382   0.00000   0.00000  Uiso   1.00
C12    C     0.61122   0.95830   0.00000   0.00000  Uiso   1.00
C13    C     0.57340   0.95185   0.00000   0.00000  Uiso   1.00
H14    H     0.54941   0.92238   0.00000   0.00000  Uiso   1.00
C15    C     0.56663   0.98315   0.00000   0.00000  Uiso   1.00
C16    C     0.52644   0.97558   0.00000   0.00000  Uiso   1.00
H17    H     0.50272   0.94593   0.00000   0.00000  Uiso   1.00
N18    N     0.48089   0.99626   0.00000   0.00000  Uiso   1.00
H19    H     0.40595   0.95417   0.00000   0.00000  Uiso   1.00
C20    C     0.40163   0.97888   0.00000   0.00000  Uiso   1.00
C21    C     0.36383   0.97249   0.00000   0.00000  Uiso   1.00
H22    H     0.33968   0.94310   0.00000   0.00000  Uiso   1.00
C23    C     0.31847   0.99726   0.00000   0.00000  Uiso   1.00
C24    C     0.28589   0.99174   0.00000   0.00000  Uiso   1.00
C25    C     0.24703   0.98520   0.00000   0.00000  Uiso   1.00
H26    H     0.22074   0.92315   0.00000   0.00000  Uiso   1.00
C27    C     0.21560   0.94739   0.00000   0.00000  Uiso   1.00
C28    C     0.17760   0.94075   0.00000   0.00000  Uiso   1.00
C29    C     0.17142   0.97250   0.00000   0.00000  Uiso   1.00
H30    H     0.14220   0.96774   0.00000   0.00000  Uiso   1.00
H31    H     0.15080   0.87680   0.00000   0.00000  Uiso   1.00
C32    C     0.14494   0.90058   0.00000   0.00000  Uiso   1.00
N33    N     0.10947   0.89330   0.00000   0.00000  Uiso   1.00
N34    N     0.07867   0.85511   0.00000   0.00000  Uiso   1.00
H35    H     0.03738   0.87166   0.00000   0.00000  Uiso   1.00
C36    C     0.04321   0.84785   0.00000   0.00000  Uiso   1.00
C37    C     0.01051   0.80770   0.00000   0.00000  Uiso   1.00
C38    C     0.01667   0.77596   0.00000   0.00000  Uiso   1.00
H39    H     0.04582   0.78050   0.00000   0.00000  Uiso   1.00
C40    C     0.00387   0.64652   0.00000   0.00000  Uiso   1.00
H41    H     0.06618   0.68212   0.00000   0.00000  Uiso   1.00
C42    C     0.04170   0.65292   0.00000   0.00000  Uiso   1.00
C43    C     0.04815   0.62155   0.00000   0.00000  Uiso   1.00
H44    H     0.07762   0.62703   0.00000   0.00000  Uiso   1.00
C45    C     0.01685   0.58348   0.00000   0.00000  Uiso   1.00
C46    C     0.02442   0.55086   0.00000   0.00000  Uiso   1.00
H47    H     0.05407   0.55679   0.00000   0.00000  Uiso   1.00
N48    N     0.00374   0.48463   0.00000   0.00000  Uiso   1.00
H49    H     0.04583   0.45178   0.00000   0.00000  Uiso   1.00
C50    C     0.02112   0.42275   0.00000   0.00000  Uiso   1.00
C51    C     0.02751   0.39134   0.00000   0.00000  Uiso   1.00
H52    H     0.05690   0.39658   0.00000   0.00000  Uiso   1.00
C53    C     0.00274   0.32121   0.00000   0.00000  Uiso   1.00
C54    C     0.00826   0.29415   0.00000   0.00000  Uiso   1.00
C55    C     0.01480   0.26183   0.00000   0.00000  Uiso   1.00
H56    H     0.07685   0.29759   0.00000   0.00000  Uiso   1.00
C57    C     0.05261   0.26821   0.00000   0.00000  Uiso   1.00
C58    C     0.05925   0.23685   0.00000   0.00000  Uiso   1.00
C59    C     0.02750   0.19892   0.00000   0.00000  Uiso   1.00
H60    H     0.03226   0.17446   0.00000   0.00000  Uiso   1.00
H61    H     0.12320   0.27400   0.00000   0.00000  Uiso   1.00
C62    C     0.09942   0.24436   0.00000   0.00000  Uiso   1.00
N63    N     0.10670   0.21617   0.00000   0.00000  Uiso   1.00
N64    N     0.14489   0.22356   0.00000   0.00000  Uiso   1.00
H65    H     0.12834   0.16572   0.00000   0.00000  Uiso   1.00
C66    C     0.15215   0.19536   0.00000   0.00000  Uiso   1.00
C67    C     0.19230   0.20281   0.00000   0.00000  Uiso   1.00
C68    C     0.22404   0.24071   0.00000   0.00000  Uiso   1.00
H69    H     0.21950   0.26532   0.00000   0.00000  Uiso   1.00
C70    C     0.35348   0.35735   0.00000   0.00000  Uiso   1.00
H71    H     0.31788   0.38406   0.00000   0.00000  Uiso   1.00
C72    C     0.34708   0.38878   0.00000   0.00000  Uiso   1.00
C73    C     0.37845   0.42660   0.00000   0.00000  Uiso   1.00
H74    H     0.37297   0.45059   0.00000   0.00000  Uiso   1.00
C75    C     0.41652   0.43337   0.00000   0.00000  Uiso   1.00
C76    C     0.44914   0.47356   0.00000   0.00000  Uiso   1.00
H77    H     0.44321   0.49728   0.00000   0.00000  Uiso   1.00
N78    N     0.51537   0.51911   0.00000   0.00000  Uiso   1.00
H79    H     0.54822   0.59405   0.00000   0.00000  Uiso   1.00
C80    C     0.57725   0.59837   0.00000   0.00000  Uiso   1.00
C81    C     0.60866   0.63617   0.00000   0.00000  Uiso   1.00
H82    H     0.60342   0.66032   0.00000   0.00000  Uiso   1.00
C83    C     0.67879   0.68153   0.00000   0.00000  Uiso   1.00
C84    C     0.70585   0.71411   0.00000   0.00000  Uiso   1.00
C85    C     0.73817   0.75297   0.00000   0.00000  Uiso   1.00
H86    H     0.70241   0.77926   0.00000   0.00000  Uiso   1.00
C87    C     0.73179   0.78440   0.00000   0.00000  Uiso   1.00
C88    C     0.76315   0.82240   0.00000   0.00000  Uiso   1.00
C89    C     0.80108   0.82858   0.00000   0.00000  Uiso   1.00
H90    H     0.82554   0.85780   0.00000   0.00000  Uiso   1.00
H91    H     0.27400   0.15080   0.00000   0.00000  Uiso   1.00
C92    C     0.24436   0.14494   0.00000   0.00000  Uiso   1.00
N93    N     0.21617   0.10947   0.00000   0.00000  Uiso   1.00
N94    N     0.22356   0.07867   0.00000   0.00000  Uiso   1.00
H95    H     0.16572   0.03738   0.00000   0.00000  Uiso   1.00
C96    C     0.19536   0.04321   0.00000   0.00000  Uiso   1.00
C97    C     0.20281   0.01051   0.00000   0.00000  Uiso   1.00
C98    C     0.24071   0.01667   0.00000   0.00000  Uiso   1.00
H99    H     0.26532   0.04582   0.00000   0.00000  Uiso   1.00
C100   C     0.35735   0.00387   0.00000   0.00000  Uiso   1.00
H101   H     0.38406   0.06618   0.00000   0.00000  Uiso   1.00
C102   C     0.38878   0.04170   0.00000   0.00000  Uiso   1.00
C103   C     0.42660   0.04815   0.00000   0.00000  Uiso   1.00
H104   H     0.45059   0.07762   0.00000   0.00000  Uiso   1.00
C105   C     0.43337   0.01685   0.00000   0.00000  Uiso   1.00
C106   C     0.47356   0.02442   0.00000   0.00000  Uiso   1.00
H107   H     0.49728   0.05407   0.00000   0.00000  Uiso   1.00
N108   N     0.51911   0.00374   0.00000   0.00000  Uiso   1.00
H109   H     0.59405   0.04583   0.00000   0.00000  Uiso   1.00
C110   C     0.59837   0.02112   0.00000   0.00000  Uiso   1.00
C111   C     0.63617   0.02751   0.00000   0.00000  Uiso   1.00
H112   H     0.66032   0.05690   0.00000   0.00000  Uiso   1.00
C113   C     0.68153   0.00274   0.00000   0.00000  Uiso   1.00
C114   C     0.71411   0.00826   0.00000   0.00000  Uiso   1.00
C115   C     0.75297   0.01480   0.00000   0.00000  Uiso   1.00
H116   H     0.77926   0.07685   0.00000   0.00000  Uiso   1.00
C117   C     0.78440   0.05261   0.00000   0.00000  Uiso   1.00
C118   C     0.82240   0.05925   0.00000   0.00000  Uiso   1.00
C119   C     0.82858   0.02750   0.00000   0.00000  Uiso   1.00
H120   H     0.85780   0.03226   0.00000   0.00000  Uiso   1.00
H121   H     0.84920   0.12320   0.00000   0.00000  Uiso   1.00
C122   C     0.85506   0.09942   0.00000   0.00000  Uiso   1.00
N123   N     0.89053   0.10670   0.00000   0.00000  Uiso   1.00
N124   N     0.92133   0.14489   0.00000   0.00000  Uiso   1.00
H125   H     0.96262   0.12834   0.00000   0.00000  Uiso   1.00
C126   C     0.95679   0.15215   0.00000   0.00000  Uiso   1.00
C127   C     0.98949   0.19230   0.00000   0.00000  Uiso   1.00
C128   C     0.98333   0.22404   0.00000   0.00000  Uiso   1.00
H129   H     0.95418   0.21950   0.00000   0.00000  Uiso   1.00
C130   C     0.99613   0.35348   0.00000   0.00000  Uiso   1.00
H131   H     0.93382   0.31788   0.00000   0.00000  Uiso   1.00
C132   C     0.95830   0.34708   0.00000   0.00000  Uiso   1.00
C133   C     0.95185   0.37845   0.00000   0.00000  Uiso   1.00
H134   H     0.92238   0.37297   0.00000   0.00000  Uiso   1.00
C135   C     0.98315   0.41652   0.00000   0.00000  Uiso   1.00
C136   C     0.97558   0.44914   0.00000   0.00000  Uiso   1.00
H137   H     0.94593   0.44321   0.00000   0.00000  Uiso   1.00
N138   N     0.99626   0.51537   0.00000   0.00000  Uiso   1.00
H139   H     0.95417   0.54822   0.00000   0.00000  Uiso   1.00
C140   C     0.97888   0.57725   0.00000   0.00000  Uiso   1.00
C141   C     0.97249   0.60866   0.00000   0.00000  Uiso   1.00
H142   H     0.94310   0.60342   0.00000   0.00000  Uiso   1.00
C143   C     0.99726   0.67879   0.00000   0.00000  Uiso   1.00
C144   C     0.99174   0.70585   0.00000   0.00000  Uiso   1.00
C145   C     0.98520   0.73817   0.00000   0.00000  Uiso   1.00
H146   H     0.92315   0.70241   0.00000   0.00000  Uiso   1.00
C147   C     0.94739   0.73179   0.00000   0.00000  Uiso   1.00
C148   C     0.94075   0.76315   0.00000   0.00000  Uiso   1.00
C149   C     0.97250   0.80108   0.00000   0.00000  Uiso   1.00
H150   H     0.96774   0.82554   0.00000   0.00000  Uiso   1.00
H151   H     0.87680   0.72600   0.00000   0.00000  Uiso   1.00
C152   C     0.90058   0.75564   0.00000   0.00000  Uiso   1.00
N153   N     0.89330   0.78383   0.00000   0.00000  Uiso   1.00
N154   N     0.85511   0.77644   0.00000   0.00000  Uiso   1.00
H155   H     0.87166   0.83428   0.00000   0.00000  Uiso   1.00
C156   C     0.84785   0.80464   0.00000   0.00000  Uiso   1.00
C157   C     0.80770   0.79719   0.00000   0.00000  Uiso   1.00
C158   C     0.77596   0.75929   0.00000   0.00000  Uiso   1.00
H159   H     0.78050   0.73468   0.00000   0.00000  Uiso   1.00
C160   C     0.64652   0.64265   0.00000   0.00000  Uiso   1.00
H161   H     0.68212   0.61594   0.00000   0.00000  Uiso   1.00
C162   C     0.65292   0.61122   0.00000   0.00000  Uiso   1.00
C163   C     0.62155   0.57340   0.00000   0.00000  Uiso   1.00
H164   H     0.62703   0.54941   0.00000   0.00000  Uiso   1.00
C165   C     0.58348   0.56663   0.00000   0.00000  Uiso   1.00
C166   C     0.55086   0.52644   0.00000   0.00000  Uiso   1.00
H167   H     0.55679   0.50272   0.00000   0.00000  Uiso   1.00
N168   N     0.48463   0.48089   0.00000   0.00000  Uiso   1.00
H169   H     0.45178   0.40595   0.00000   0.00000  Uiso   1.00
C170   C     0.42275   0.40163   0.00000   0.00000  Uiso   1.00
C171   C     0.39134   0.36383   0.00000   0.00000  Uiso   1.00
H172   H     0.39658   0.33968   0.00000   0.00000  Uiso   1.00
C173   C     0.32121   0.31847   0.00000   0.00000  Uiso   1.00
C174   C     0.29415   0.28589   0.00000   0.00000  Uiso   1.00
C175   C     0.26183   0.24703   0.00000   0.00000  Uiso   1.00
H176   H     0.29759   0.22074   0.00000   0.00000  Uiso   1.00
C177   C     0.26821   0.21560   0.00000   0.00000  Uiso   1.00
C178   C     0.23685   0.17760   0.00000   0.00000  Uiso   1.00
C179   C     0.19892   0.17142   0.00000   0.00000  Uiso   1.00
H180   H     0.17446   0.14220   0.00000   0.00000  Uiso   1.00
loop_
_geom_bond_atom_site_label_1
_geom_bond_atom_site_label_2
_geom_bond_distance
_geom_bond_site_symmetry_2
_ccdc_geom_bond_type
H1     C2      1.085   .     S
C2     N3      1.294   .     D
C2     C88     1.476   .     S
N3     N4      1.399   .     S
N4     C6      1.294   .     D
H5     C6      1.085   .     S
C6     C7      1.476   .     S
C7     C8      1.405   .     S
C7     C119    1.403   1_565 D
C8     H9      1.084   .     S
C8     C115    1.399   1_565 D
C10    C12     1.399   .     D
C10    C111    1.399   1_565 S
C10    C113    1.437   1_565 S
H11    C12     1.083   .     S
C12    C13     1.398   .     S
C13    H14     1.083   .     S
C13    C15     1.403   .     D
C15    C16     1.476   .     S
C15    C110    1.407   1_565 S
C16    H17     1.084   .     S
C16    N108    1.295   1_565 D
N18    C106    1.295   1_565 D
N18    N108    1.399   1_565 S
H19    C20     1.082   .     S
C20    C21     1.398   .     S
C20    C105    1.407   1_565 D
C21    H22     1.083   .     S
C21    C100    1.399   1_565 D
C23    C24     1.205   .     T
C23    C100    1.437   1_565 S
C24    C25     1.438   .     S
C25    C27     1.398   .     S
C25    C98     1.399   1_565 D
H26    C27     1.084   .     S
C27    C28     1.402   .     D
C28    C29     1.406   .     S
C28    C32     1.476   .     S
C29    H30     1.083   .     S
C29    C97     1.403   1_565 D
H31    C32     1.085   .     S
C32    N33     1.294   .     D
N33    N34     1.399   .     S
N34    C36     1.294   .     D
H35    C36     1.085   .     S
C36    C37     1.476   .     S
C37    C38     1.405   .     S
C37    C149    1.403   1_455 D
C38    H39     1.084   .     S
C38    C145    1.399   1_455 D
C40    C42     1.399   .     S
C40    C141    1.399   1_455 D
C40    C143    1.437   1_455 S
H41    C42     1.083   .     S
C42    C43     1.398   .     D
C43    H44     1.083   .     S
C43    C45     1.403   .     S
C45    C46     1.476   .     S
C45    C140    1.407   1_455 D
C46    H47     1.084   .     S
C46    N138    1.295   1_455 D
N48    C136    1.295   1_455 D
N48    N138    1.399   1_455 S
H49    C50     1.082   .     S
C50    C51     1.398   .     S
C50    C135    1.407   1_455 D
C51    H52     1.083   .     S
C51    C130    1.399   1_455 D
C53    C54     1.205   .     T
C53    C130    1.437   1_455 S
C54    C55     1.438   .     S
C55    C57     1.398   .     D
C55    C128    1.399   1_455 S
H56    C57     1.084   .     S
C57    C58     1.402   .     S
C58    C59     1.406   .     D
C58    C62     1.476   .     S
C59    H60     1.083   .     S
C59    C127    1.403   1_455 S
H61    C62     1.085   .     S
C62    N63     1.294   .     D
N63    N64     1.399   .     S
N64    C66     1.294   .     D
H65    C66     1.085   .     S
C66    C67     1.476   .     S
C67    C68     1.405   .     S
C67    C179    1.403   .     D
C68    H69     1.084   .     S
C68    C175    1.399   .     D
C70    C72     1.399   .     D
C70    C171    1.399   .     S
C70    C173    1.437   .     S
H71    C72     1.083   .     S
C72    C73     1.398   .     S
C73    H74     1.083   .     S
C73    C75     1.403   .     D
C75    C76     1.476   .     S
C75    C170    1.407   .     S
C76    H77     1.084   .     S
C76    N168    1.295   .     D
N78    C166    1.295   .     D
N78    N168    1.399   .     S
H79    C80     1.082   .     S
C80    C81     1.398   .     S
C80    C165    1.407   .     D
C81    H82     1.083   .     S
C81    C160    1.399   .     D
C83    C84     1.205   .     T
C83    C160    1.437   .     S
C84    C85     1.438   .     S
C85    C87     1.398   .     D
C85    C158    1.399   .     S
H86    C87     1.084   .     S
C87    C88     1.402   .     S
C88    C89     1.406   .     D
C89    H90     1.083   .     S
C89    C157    1.403   .     S
H91    C92     1.085   .     S
C92    N93     1.294   .     D
C92    C178    1.476   .     S
N93    N94     1.399   .     S
N94    C96     1.294   .     D
H95    C96     1.085   .     S
C96    C97     1.476   .     S
C97    C29     1.403   1_545 D
C97    C98     1.405   .     S
C98    C25     1.399   1_545 D
C98    H99     1.084   .     S
C100   C23     1.437   1_545 S
C100   C21     1.399   1_545 D
C100   C102    1.399   .     S
H101   C102    1.083   .     S
C102   C103    1.398   .     D
C103   H104    1.083   .     S
C103   C105    1.403   .     S
C105   C20     1.407   1_545 D
C105   C106    1.476   .     S
C106   N18     1.295   1_545 D
C106   H107    1.084   .     S
N108   N18     1.399   1_545 S
N108   C16     1.295   1_545 D
H109   C110    1.082   .     S
C110   C15     1.407   1_545 S
C110   C111    1.398   .     D
C111   C10     1.399   1_545 S
C111   H112    1.083   .     S
C113   C10     1.437   1_545 S
C113   C114    1.205   .     T
C114   C115    1.438   .     S
C115   C8      1.399   1_545 D
C115   C117    1.398   .     S
H116   C117    1.084   .     S
C117   C118    1.402   .     D
C118   C119    1.406   .     S
C118   C122    1.476   .     S
C119   C7      1.403   1_545 D
C119   H120    1.083   .     S
H121   C122    1.085   .     S
C122   N123    1.294   .     D
N123   N124    1.399   .     S
N124   C126    1.294   .     D
H125   C126    1.085   .     S
C126   C127    1.476   .     S
C127   C59     1.403   1_655 S
C127   C128    1.405   .     D
C128   C55     1.399   1_655 S
C128   H129    1.084   .     S
C130   C51     1.399   1_655 D
C130   C53     1.437   1_655 S
C130   C132    1.399   .     S
H131   C132    1.083   .     S
C132   C133    1.398   .     D
C133   H134    1.083   .     S
C133   C135    1.403   .     S
C135   C50     1.407   1_655 D
C135   C136    1.476   .     S
C136   N48     1.295   1_655 D
C136   H137    1.084   .     S
N138   C46     1.295   1_655 D
N138   N48     1.399   1_655 S
H139   C140    1.082   .     S
C140   C45     1.407   1_655 D
C140   C141    1.398   .     S
C141   C40     1.399   1_655 D
C141   H142    1.083   .     S
C143   C40     1.437   1_655 S
C143   C144    1.205   .     T
C144   C145    1.438   .     S
C145   C38     1.399   1_655 D
C145   C147    1.398   .     S
H146   C147    1.084   .     S
C147   C148    1.402   .     D
C148   C149    1.406   .     S
C148   C152    1.476   .     S
C149   C37     1.403   1_655 D
C149   H150    1.083   .     S
H151   C152    1.085   .     S
C152   N153    1.294   .     D
N153   N154    1.399   .     S
N154   C156    1.294   .     D
H155   C156    1.085   .     S
C156   C157    1.476   .     S
C157   C158    1.405   .     D
C158   H159    1.084   .     S
C160   C162    1.399   .     S
H161   C162    1.083   .     S
C162   C163    1.398   .     D
C163   H164    1.083   .     S
C163   C165    1.403   .     S
C165   C166    1.476   .     S
C166   H167    1.084   .     S
H169   C170    1.082   .     S
C170   C171    1.398   .     D
C171   H172    1.083   .     S
C173   C174    1.205   .     T
C174   C175    1.438   .     S
C175   C177    1.398   .     S
H176   C177    1.084   .     S
C177   C178    1.402   .     D
C178   C179    1.406   .     S
C179   H180    1.083   .     S
