data_26
_audit_creation_date              2023-09-08
_audit_creation_method            'Materials Studio'
_symmetry_space_group_name_H-M    'P1'
_symmetry_Int_Tables_number       1
_symmetry_cell_setting            triclinic
loop_
_symmetry_equiv_pos_as_xyz
  x,y,z
_cell_length_a                    54.8382
_cell_length_b                    54.8382
_cell_length_c                    15.0000
_cell_angle_alpha                 90.0000
_cell_angle_beta                  90.0000
_cell_angle_gamma                 120.0000
loop_
_atom_site_label
_atom_site_type_symbol
_atom_site_fract_x
_atom_site_fract_y
_atom_site_fract_z
_atom_site_U_iso_or_equiv
_atom_site_adp_type
_atom_site_occupancy
C1     C     0.48720   0.48790   0.16011   0.00000  Uiso   1.00
C2     C     0.46012   0.48749   0.16171   0.00000  Uiso   1.00
C3     C     0.43755   0.46772   0.10968   0.00000  Uiso   1.00
C4     C     0.41198   0.46681   0.10871   0.00000  Uiso   1.00
C5     C     0.40836   0.48626   0.15967   0.00000  Uiso   1.00
C6     C     0.43061   0.50592   0.21270   0.00000  Uiso   1.00
C7     C     0.45570   0.50613   0.21435   0.00000  Uiso   1.00
C8     C     0.48372   0.45958   0.15873   0.00000  Uiso   1.00
C9     C     0.46240   0.43831   0.21082   0.00000  Uiso   1.00
C10    C     0.45805   0.41135   0.21125   0.00000  Uiso   1.00
C11    C     0.47563   0.40501   0.16070   0.00000  Uiso   1.00
C12    C     0.49691   0.42598   0.10810   0.00000  Uiso   1.00
C13    C     0.50061   0.45267   0.10661   0.00000  Uiso   1.00
C14    C     0.36002   0.46619   0.17683   0.00000  Uiso   1.00
C15    C     0.33423   0.46707   0.16493   0.00000  Uiso   1.00
C16    C     0.31016   0.44820   0.21243   0.00000  Uiso   1.00
C17    C     0.28648   0.45099   0.21020   0.00000  Uiso   1.00
C18    C     0.28657   0.47245   0.15940   0.00000  Uiso   1.00
C19    C     0.31044   0.49051   0.10877   0.00000  Uiso   1.00
C20    C     0.33401   0.48782   0.11090   0.00000  Uiso   1.00
C21    C     0.26218   0.47634   0.15956   0.00000  Uiso   1.00
C22    C     0.49192   0.37440   0.18513   0.00000  Uiso   1.00
C23    C     0.49031   0.34738   0.17776   0.00000  Uiso   1.00
C24    C     0.51017   0.34267   0.22102   0.00000  Uiso   1.00
C25    C     0.50876   0.31694   0.21322   0.00000  Uiso   1.00
C26    C     0.48699   0.29520   0.16427   0.00000  Uiso   1.00
C27    C     0.46707   0.30007   0.12174   0.00000  Uiso   1.00
C28    C     0.46885   0.32590   0.12687   0.00000  Uiso   1.00
C29    C     0.48417   0.26748   0.16094   0.00000  Uiso   1.00
C30    C     0.50736   0.26340   0.16069   0.00000  Uiso   1.00
C31    C     0.45720   0.24369   0.16028   0.00000  Uiso   1.00
C32    C     0.50377   0.23673   0.15948   0.00000  Uiso   1.00
C33    C     0.23500   0.45315   0.16029   0.00000  Uiso   1.00
H1     H     0.47310   0.52130   0.26055   0.00000  Uiso   1.00
H2     H     0.44070   0.45280   0.06511   0.00000  Uiso   1.00
H3     H     0.39500   0.45210   0.06146   0.00000  Uiso   1.00
H4     H     0.42750   0.52060   0.25802   0.00000  Uiso   1.00
H5     H     0.44900   0.44360   0.25590   0.00000  Uiso   1.00
H6     H     0.44170   0.39520   0.25702   0.00000  Uiso   1.00
H7     H     0.50990   0.42080   0.06233   0.00000  Uiso   1.00
H8     H     0.51710   0.46910   0.06114   0.00000  Uiso   1.00
H9     H     0.35870   0.44730   0.21122   0.00000  Uiso   1.00
H10    H     0.31120   0.43230   0.25901   0.00000  Uiso   1.00
H11    H     0.26860   0.43740   0.25501   0.00000  Uiso   1.00
H12    H     0.31040   0.50660   0.06268   0.00000  Uiso   1.00
H13    H     0.35350   0.50180   0.06902   0.00000  Uiso   1.00
H14    H     0.51160   0.39240   0.21580   0.00000  Uiso   1.00
H15    H     0.52640   0.35990   0.26730   0.00000  Uiso   1.00
H16    H     0.52380   0.31350   0.25302   0.00000  Uiso   1.00
H17    H     0.45060   0.28380   0.07834   0.00000  Uiso   1.00
H18    H     0.45410   0.33100   0.08933   0.00000  Uiso   1.00
H19    H     0.52810   0.28220   0.16078   0.00000  Uiso   1.00
H20    H     0.43870   0.24700   0.16164   0.00000  Uiso   1.00
H21    H     0.28730   0.52170   0.15963   0.00000  Uiso   1.00
H22    H     0.23320   0.43240   0.16004   0.00000  Uiso   1.00
N1     N     0.38378   0.48705   0.15501   0.00000  Uiso   1.00
N2     N     0.47171   0.37817   0.16101   0.00000  Uiso   1.00
C34    C     0.51210   0.99930   0.16011   0.00000  Uiso   1.00
C35    C     0.51251   0.97263   0.16171   0.00000  Uiso   1.00
C36    C     0.53228   0.96983   0.10968   0.00000  Uiso   1.00
C37    C     0.53319   0.94517   0.10871   0.00000  Uiso   1.00
C38    C     0.51373   0.92209   0.15967   0.00000  Uiso   1.00
C39    C     0.49408   0.92469   0.21270   0.00000  Uiso   1.00
C40    C     0.49386   0.94956   0.21435   0.00000  Uiso   1.00
C41    C     0.54042   0.02414   0.15873   0.00000  Uiso   1.00
C42    C     0.56169   0.02409   0.21082   0.00000  Uiso   1.00
C43    C     0.58865   0.04670   0.21125   0.00000  Uiso   1.00
C44    C     0.59499   0.07062   0.16070   0.00000  Uiso   1.00
C45    C     0.57402   0.07093   0.10810   0.00000  Uiso   1.00
C46    C     0.54733   0.04793   0.10661   0.00000  Uiso   1.00
C47    C     0.53381   0.89383   0.17683   0.00000  Uiso   1.00
C48    C     0.53293   0.86716   0.16493   0.00000  Uiso   1.00
C49    C     0.55180   0.86196   0.21243   0.00000  Uiso   1.00
C50    C     0.54901   0.83549   0.21020   0.00000  Uiso   1.00
C51    C     0.52755   0.81412   0.15940   0.00000  Uiso   1.00
C52    C     0.50949   0.81993   0.10877   0.00000  Uiso   1.00
C53    C     0.51218   0.84619   0.11090   0.00000  Uiso   1.00
C54    C     0.52365   0.78584   0.15956   0.00000  Uiso   1.00
C55    C     0.62560   0.11752   0.18513   0.00000  Uiso   1.00
C56    C     0.65262   0.14293   0.17776   0.00000  Uiso   1.00
C57    C     0.65733   0.16750   0.22102   0.00000  Uiso   1.00
C58    C     0.68306   0.19182   0.21322   0.00000  Uiso   1.00
C59    C     0.70480   0.19178   0.16427   0.00000  Uiso   1.00
C60    C     0.69993   0.16700   0.12174   0.00000  Uiso   1.00
C61    C     0.67410   0.14295   0.12687   0.00000  Uiso   1.00
C62    C     0.73252   0.21669   0.16094   0.00000  Uiso   1.00
C63    C     0.73660   0.24396   0.16069   0.00000  Uiso   1.00
C64    C     0.75631   0.21351   0.16028   0.00000  Uiso   1.00
C65    C     0.76327   0.26705   0.15948   0.00000  Uiso   1.00
C66    C     0.54685   0.78185   0.16029   0.00000  Uiso   1.00
H23    H     0.47870   0.95180   0.26055   0.00000  Uiso   1.00
H24    H     0.54720   0.98790   0.06511   0.00000  Uiso   1.00
H25    H     0.54790   0.94290   0.06146   0.00000  Uiso   1.00
H26    H     0.47940   0.90690   0.25802   0.00000  Uiso   1.00
H27    H     0.55640   0.00540   0.25590   0.00000  Uiso   1.00
H28    H     0.60480   0.04650   0.25702   0.00000  Uiso   1.00
H29    H     0.57920   0.08910   0.06233   0.00000  Uiso   1.00
H30    H     0.53090   0.04800   0.06114   0.00000  Uiso   1.00
H31    H     0.55270   0.91140   0.21122   0.00000  Uiso   1.00
H32    H     0.56770   0.87890   0.25901   0.00000  Uiso   1.00
H33    H     0.56260   0.83120   0.25501   0.00000  Uiso   1.00
H34    H     0.49340   0.80380   0.06268   0.00000  Uiso   1.00
H35    H     0.49820   0.85170   0.06902   0.00000  Uiso   1.00
H36    H     0.60760   0.11920   0.21580   0.00000  Uiso   1.00
H37    H     0.64010   0.16650   0.26730   0.00000  Uiso   1.00
H38    H     0.68650   0.21030   0.25302   0.00000  Uiso   1.00
H39    H     0.71620   0.16680   0.07834   0.00000  Uiso   1.00
H40    H     0.66900   0.12310   0.08933   0.00000  Uiso   1.00
H41    H     0.71780   0.24590   0.16078   0.00000  Uiso   1.00
H42    H     0.75300   0.19170   0.16164   0.00000  Uiso   1.00
H43    H     0.47830   0.76560   0.15963   0.00000  Uiso   1.00
H44    H     0.56760   0.80080   0.16004   0.00000  Uiso   1.00
N3     N     0.51295   0.89672   0.15501   0.00000  Uiso   1.00
N4     N     0.62183   0.09354   0.16101   0.00000  Uiso   1.00
C67    C     0.00070   0.51280   0.16011   0.00000  Uiso   1.00
C68    C     0.02737   0.53988   0.16171   0.00000  Uiso   1.00
C69    C     0.03017   0.56244   0.10968   0.00000  Uiso   1.00
C70    C     0.05483   0.58801   0.10871   0.00000  Uiso   1.00
C71    C     0.07790   0.59164   0.15967   0.00000  Uiso   1.00
C72    C     0.07531   0.56939   0.21270   0.00000  Uiso   1.00
C73    C     0.05044   0.54430   0.21435   0.00000  Uiso   1.00
C74    C     0.97586   0.51628   0.15873   0.00000  Uiso   1.00
C75    C     0.97591   0.53760   0.21082   0.00000  Uiso   1.00
C76    C     0.95330   0.54195   0.21125   0.00000  Uiso   1.00
C77    C     0.92938   0.52437   0.16070   0.00000  Uiso   1.00
C78    C     0.92907   0.50309   0.10810   0.00000  Uiso   1.00
C79    C     0.95207   0.49939   0.10661   0.00000  Uiso   1.00
C80    C     0.10617   0.63998   0.17683   0.00000  Uiso   1.00
C81    C     0.13284   0.66577   0.16493   0.00000  Uiso   1.00
C82    C     0.13804   0.68984   0.21243   0.00000  Uiso   1.00
C83    C     0.16451   0.71352   0.21020   0.00000  Uiso   1.00
C84    C     0.18588   0.71343   0.15940   0.00000  Uiso   1.00
C85    C     0.18007   0.68956   0.10877   0.00000  Uiso   1.00
C86    C     0.15381   0.66598   0.11090   0.00000  Uiso   1.00
C87    C     0.21416   0.73782   0.15956   0.00000  Uiso   1.00
C88    C     0.88248   0.50808   0.18513   0.00000  Uiso   1.00
C89    C     0.85707   0.50969   0.17776   0.00000  Uiso   1.00
C90    C     0.83250   0.48983   0.22102   0.00000  Uiso   1.00
C91    C     0.80818   0.49124   0.21322   0.00000  Uiso   1.00
C92    C     0.80822   0.51301   0.16427   0.00000  Uiso   1.00
C93    C     0.83301   0.53293   0.12174   0.00000  Uiso   1.00
C94    C     0.85704   0.53115   0.12687   0.00000  Uiso   1.00
C95    C     0.78331   0.51583   0.16094   0.00000  Uiso   1.00
C96    C     0.75604   0.49264   0.16069   0.00000  Uiso   1.00
C97    C     0.78649   0.54280   0.16028   0.00000  Uiso   1.00
C98    C     0.73295   0.49623   0.15948   0.00000  Uiso   1.00
C99    C     0.21815   0.76499   0.16029   0.00000  Uiso   1.00
H45    H     0.04820   0.52690   0.26055   0.00000  Uiso   1.00
H46    H     0.01210   0.55930   0.06511   0.00000  Uiso   1.00
H47    H     0.05710   0.60500   0.06146   0.00000  Uiso   1.00
H48    H     0.09310   0.57250   0.25802   0.00000  Uiso   1.00
H49    H     0.99460   0.55100   0.25590   0.00000  Uiso   1.00
H50    H     0.95350   0.55830   0.25702   0.00000  Uiso   1.00
H51    H     0.91090   0.49010   0.06233   0.00000  Uiso   1.00
H52    H     0.95200   0.48290   0.06114   0.00000  Uiso   1.00
H53    H     0.08860   0.64130   0.21122   0.00000  Uiso   1.00
H54    H     0.12110   0.68880   0.25901   0.00000  Uiso   1.00
H55    H     0.16880   0.73140   0.25501   0.00000  Uiso   1.00
H56    H     0.19620   0.68960   0.06268   0.00000  Uiso   1.00
H57    H     0.14830   0.64650   0.06902   0.00000  Uiso   1.00
H58    H     0.88080   0.48840   0.21580   0.00000  Uiso   1.00
H59    H     0.83350   0.47360   0.26730   0.00000  Uiso   1.00
H60    H     0.78970   0.47620   0.25302   0.00000  Uiso   1.00
H61    H     0.83320   0.54940   0.07834   0.00000  Uiso   1.00
H62    H     0.87690   0.54590   0.08933   0.00000  Uiso   1.00
H63    H     0.75410   0.47190   0.16078   0.00000  Uiso   1.00
H64    H     0.80830   0.56130   0.16164   0.00000  Uiso   1.00
H65    H     0.23440   0.71270   0.15963   0.00000  Uiso   1.00
H66    H     0.19920   0.76680   0.16004   0.00000  Uiso   1.00
N5     N     0.10328   0.61622   0.15501   0.00000  Uiso   1.00
N6     N     0.90646   0.52829   0.16101   0.00000  Uiso   1.00
C100   C     0.51280   0.51210   0.16011   0.00000  Uiso   1.00
C101   C     0.53988   0.51251   0.16171   0.00000  Uiso   1.00
C102   C     0.56244   0.53228   0.10968   0.00000  Uiso   1.00
C103   C     0.58801   0.53319   0.10871   0.00000  Uiso   1.00
C104   C     0.59164   0.51373   0.15967   0.00000  Uiso   1.00
C105   C     0.56939   0.49408   0.21270   0.00000  Uiso   1.00
C106   C     0.54430   0.49386   0.21435   0.00000  Uiso   1.00
C107   C     0.51628   0.54042   0.15873   0.00000  Uiso   1.00
C108   C     0.53760   0.56169   0.21082   0.00000  Uiso   1.00
C109   C     0.54195   0.58865   0.21125   0.00000  Uiso   1.00
C110   C     0.52437   0.59499   0.16070   0.00000  Uiso   1.00
C111   C     0.50309   0.57402   0.10810   0.00000  Uiso   1.00
C112   C     0.49939   0.54733   0.10661   0.00000  Uiso   1.00
C113   C     0.63998   0.53381   0.17683   0.00000  Uiso   1.00
C114   C     0.66577   0.53293   0.16493   0.00000  Uiso   1.00
C115   C     0.68984   0.55180   0.21243   0.00000  Uiso   1.00
C116   C     0.71352   0.54901   0.21020   0.00000  Uiso   1.00
C117   C     0.71343   0.52755   0.15940   0.00000  Uiso   1.00
C118   C     0.68956   0.50949   0.10877   0.00000  Uiso   1.00
C119   C     0.66598   0.51218   0.11090   0.00000  Uiso   1.00
C120   C     0.73782   0.52366   0.15956   0.00000  Uiso   1.00
C121   C     0.50808   0.62560   0.18513   0.00000  Uiso   1.00
C122   C     0.50969   0.65262   0.17776   0.00000  Uiso   1.00
C123   C     0.48983   0.65733   0.22102   0.00000  Uiso   1.00
C124   C     0.49124   0.68306   0.21322   0.00000  Uiso   1.00
C125   C     0.51301   0.70479   0.16427   0.00000  Uiso   1.00
C126   C     0.53293   0.69993   0.12174   0.00000  Uiso   1.00
C127   C     0.53115   0.67410   0.12687   0.00000  Uiso   1.00
C128   C     0.51583   0.73252   0.16094   0.00000  Uiso   1.00
C129   C     0.49264   0.73660   0.16069   0.00000  Uiso   1.00
C130   C     0.54280   0.75631   0.16028   0.00000  Uiso   1.00
C131   C     0.49623   0.76327   0.15948   0.00000  Uiso   1.00
C132   C     0.76499   0.54685   0.16029   0.00000  Uiso   1.00
H67    H     0.52690   0.47870   0.26055   0.00000  Uiso   1.00
H68    H     0.55930   0.54720   0.06511   0.00000  Uiso   1.00
H69    H     0.60500   0.54790   0.06146   0.00000  Uiso   1.00
H70    H     0.57250   0.47940   0.25802   0.00000  Uiso   1.00
H71    H     0.55100   0.55640   0.25590   0.00000  Uiso   1.00
H72    H     0.55830   0.60480   0.25702   0.00000  Uiso   1.00
H73    H     0.49010   0.57920   0.06233   0.00000  Uiso   1.00
H74    H     0.48290   0.53090   0.06114   0.00000  Uiso   1.00
H75    H     0.64130   0.55270   0.21122   0.00000  Uiso   1.00
H76    H     0.68880   0.56770   0.25901   0.00000  Uiso   1.00
H77    H     0.73140   0.56260   0.25501   0.00000  Uiso   1.00
H78    H     0.68960   0.49340   0.06268   0.00000  Uiso   1.00
H79    H     0.64650   0.49820   0.06902   0.00000  Uiso   1.00
H80    H     0.48840   0.60760   0.21580   0.00000  Uiso   1.00
H81    H     0.47360   0.64010   0.26730   0.00000  Uiso   1.00
H82    H     0.47620   0.68650   0.25302   0.00000  Uiso   1.00
H83    H     0.54940   0.71620   0.07834   0.00000  Uiso   1.00
H84    H     0.54590   0.66900   0.08933   0.00000  Uiso   1.00
H85    H     0.47190   0.71780   0.16078   0.00000  Uiso   1.00
H86    H     0.56130   0.75300   0.16164   0.00000  Uiso   1.00
H87    H     0.71270   0.47830   0.15963   0.00000  Uiso   1.00
H88    H     0.76680   0.56760   0.16004   0.00000  Uiso   1.00
N7     N     0.61622   0.51295   0.15501   0.00000  Uiso   1.00
N8     N     0.52829   0.62183   0.16101   0.00000  Uiso   1.00
C133   C     0.48790   0.00070   0.16011   0.00000  Uiso   1.00
C134   C     0.48749   0.02737   0.16171   0.00000  Uiso   1.00
C135   C     0.46772   0.03017   0.10968   0.00000  Uiso   1.00
C136   C     0.46681   0.05483   0.10871   0.00000  Uiso   1.00
C137   C     0.48627   0.07790   0.15967   0.00000  Uiso   1.00
C138   C     0.50592   0.07531   0.21270   0.00000  Uiso   1.00
C139   C     0.50613   0.05044   0.21435   0.00000  Uiso   1.00
C140   C     0.45958   0.97586   0.15873   0.00000  Uiso   1.00
C141   C     0.43831   0.97591   0.21082   0.00000  Uiso   1.00
C142   C     0.41135   0.95330   0.21125   0.00000  Uiso   1.00
C143   C     0.40501   0.92938   0.16070   0.00000  Uiso   1.00
C144   C     0.42598   0.92906   0.10810   0.00000  Uiso   1.00
C145   C     0.45267   0.95207   0.10661   0.00000  Uiso   1.00
C146   C     0.46619   0.10617   0.17683   0.00000  Uiso   1.00
C147   C     0.46707   0.13284   0.16493   0.00000  Uiso   1.00
C148   C     0.44820   0.13804   0.21243   0.00000  Uiso   1.00
C149   C     0.45099   0.16451   0.21020   0.00000  Uiso   1.00
C150   C     0.47245   0.18588   0.15940   0.00000  Uiso   1.00
C151   C     0.49051   0.18007   0.10877   0.00000  Uiso   1.00
C152   C     0.48782   0.15381   0.11090   0.00000  Uiso   1.00
C153   C     0.47634   0.21416   0.15956   0.00000  Uiso   1.00
C154   C     0.37440   0.88248   0.18513   0.00000  Uiso   1.00
C155   C     0.34738   0.85707   0.17776   0.00000  Uiso   1.00
C156   C     0.34267   0.83250   0.22102   0.00000  Uiso   1.00
C157   C     0.31694   0.80818   0.21322   0.00000  Uiso   1.00
C158   C     0.29520   0.80822   0.16427   0.00000  Uiso   1.00
C159   C     0.30007   0.83301   0.12174   0.00000  Uiso   1.00
C160   C     0.32590   0.85705   0.12687   0.00000  Uiso   1.00
C161   C     0.26748   0.78331   0.16094   0.00000  Uiso   1.00
C162   C     0.26340   0.75604   0.16069   0.00000  Uiso   1.00
C163   C     0.24369   0.78649   0.16028   0.00000  Uiso   1.00
C164   C     0.23673   0.73295   0.15948   0.00000  Uiso   1.00
C165   C     0.45315   0.21815   0.16029   0.00000  Uiso   1.00
H89    H     0.52130   0.04820   0.26055   0.00000  Uiso   1.00
H90    H     0.45280   0.01210   0.06511   0.00000  Uiso   1.00
H91    H     0.45210   0.05710   0.06146   0.00000  Uiso   1.00
H92    H     0.52060   0.09310   0.25802   0.00000  Uiso   1.00
H93    H     0.44360   0.99460   0.25590   0.00000  Uiso   1.00
H94    H     0.39520   0.95350   0.25702   0.00000  Uiso   1.00
H95    H     0.42080   0.91090   0.06233   0.00000  Uiso   1.00
H96    H     0.46910   0.95200   0.06114   0.00000  Uiso   1.00
H97    H     0.44730   0.08860   0.21122   0.00000  Uiso   1.00
H98    H     0.43230   0.12110   0.25901   0.00000  Uiso   1.00
H99    H     0.43740   0.16880   0.25501   0.00000  Uiso   1.00
H100   H     0.50660   0.19620   0.06268   0.00000  Uiso   1.00
H101   H     0.50180   0.14830   0.06902   0.00000  Uiso   1.00
H102   H     0.39240   0.88080   0.21580   0.00000  Uiso   1.00
H103   H     0.35990   0.83350   0.26730   0.00000  Uiso   1.00
H104   H     0.31350   0.78970   0.25302   0.00000  Uiso   1.00
H105   H     0.28380   0.83320   0.07834   0.00000  Uiso   1.00
H106   H     0.33100   0.87690   0.08933   0.00000  Uiso   1.00
H107   H     0.28220   0.75410   0.16078   0.00000  Uiso   1.00
H108   H     0.24700   0.80830   0.16164   0.00000  Uiso   1.00
H109   H     0.52170   0.23440   0.15963   0.00000  Uiso   1.00
H110   H     0.43240   0.19920   0.16004   0.00000  Uiso   1.00
N9     N     0.48705   0.10327   0.15501   0.00000  Uiso   1.00
N10    N     0.37817   0.90646   0.16101   0.00000  Uiso   1.00
C166   C     0.99930   0.48720   0.16011   0.00000  Uiso   1.00
C167   C     0.97263   0.46012   0.16171   0.00000  Uiso   1.00
C168   C     0.96983   0.43756   0.10968   0.00000  Uiso   1.00
C169   C     0.94517   0.41199   0.10871   0.00000  Uiso   1.00
C170   C     0.92210   0.40836   0.15967   0.00000  Uiso   1.00
C171   C     0.92469   0.43061   0.21270   0.00000  Uiso   1.00
C172   C     0.94956   0.45570   0.21435   0.00000  Uiso   1.00
C173   C     0.02414   0.48372   0.15873   0.00000  Uiso   1.00
C174   C     0.02409   0.46240   0.21082   0.00000  Uiso   1.00
C175   C     0.04670   0.45805   0.21125   0.00000  Uiso   1.00
C176   C     0.07062   0.47563   0.16070   0.00000  Uiso   1.00
C177   C     0.07093   0.49691   0.10810   0.00000  Uiso   1.00
C178   C     0.04793   0.50061   0.10661   0.00000  Uiso   1.00
C179   C     0.89383   0.36002   0.17683   0.00000  Uiso   1.00
C180   C     0.86716   0.33423   0.16493   0.00000  Uiso   1.00
C181   C     0.86196   0.31016   0.21243   0.00000  Uiso   1.00
C182   C     0.83549   0.28648   0.21020   0.00000  Uiso   1.00
C183   C     0.81412   0.28657   0.15940   0.00000  Uiso   1.00
C184   C     0.81993   0.31044   0.10877   0.00000  Uiso   1.00
C185   C     0.84619   0.33401   0.11090   0.00000  Uiso   1.00
C186   C     0.78584   0.26218   0.15956   0.00000  Uiso   1.00
C187   C     0.11752   0.49192   0.18513   0.00000  Uiso   1.00
C188   C     0.14293   0.49031   0.17776   0.00000  Uiso   1.00
C189   C     0.16750   0.51017   0.22102   0.00000  Uiso   1.00
C190   C     0.19182   0.50876   0.21322   0.00000  Uiso   1.00
C191   C     0.19178   0.48699   0.16427   0.00000  Uiso   1.00
C192   C     0.16699   0.46707   0.12174   0.00000  Uiso   1.00
C193   C     0.14295   0.46885   0.12687   0.00000  Uiso   1.00
C194   C     0.21669   0.48417   0.16094   0.00000  Uiso   1.00
C195   C     0.24396   0.50736   0.16069   0.00000  Uiso   1.00
C196   C     0.21351   0.45720   0.16028   0.00000  Uiso   1.00
C197   C     0.26705   0.50377   0.15948   0.00000  Uiso   1.00
C198   C     0.78185   0.23500   0.16029   0.00000  Uiso   1.00
H111   H     0.95180   0.47310   0.26055   0.00000  Uiso   1.00
H112   H     0.98790   0.44070   0.06511   0.00000  Uiso   1.00
H113   H     0.94290   0.39500   0.06146   0.00000  Uiso   1.00
H114   H     0.90690   0.42750   0.25802   0.00000  Uiso   1.00
H115   H     0.00540   0.44900   0.25590   0.00000  Uiso   1.00
H116   H     0.04650   0.44170   0.25702   0.00000  Uiso   1.00
H117   H     0.08910   0.50990   0.06233   0.00000  Uiso   1.00
H118   H     0.04800   0.51710   0.06114   0.00000  Uiso   1.00
H119   H     0.91140   0.35870   0.21122   0.00000  Uiso   1.00
H120   H     0.87890   0.31120   0.25901   0.00000  Uiso   1.00
H121   H     0.83120   0.26860   0.25501   0.00000  Uiso   1.00
H122   H     0.80380   0.31040   0.06268   0.00000  Uiso   1.00
H123   H     0.85170   0.35350   0.06902   0.00000  Uiso   1.00
H124   H     0.11920   0.51160   0.21580   0.00000  Uiso   1.00
H125   H     0.16650   0.52640   0.26730   0.00000  Uiso   1.00
H126   H     0.21030   0.52380   0.25302   0.00000  Uiso   1.00
H127   H     0.16680   0.45060   0.07834   0.00000  Uiso   1.00
H128   H     0.12310   0.45410   0.08933   0.00000  Uiso   1.00
H129   H     0.24590   0.52810   0.16078   0.00000  Uiso   1.00
H130   H     0.19170   0.43870   0.16164   0.00000  Uiso   1.00
H131   H     0.76560   0.28730   0.15963   0.00000  Uiso   1.00
H132   H     0.80080   0.23320   0.16004   0.00000  Uiso   1.00
N11    N     0.89673   0.38378   0.15501   0.00000  Uiso   1.00
N12    N     0.09354   0.47171   0.16101   0.00000  Uiso   1.00
loop_
_geom_bond_atom_site_label_1
_geom_bond_atom_site_label_2
_geom_bond_distance
_geom_bond_site_symmetry_2
_ccdc_geom_bond_type
C1     C2      1.474   .     S
C1     C8      1.467   .     D
C1     C100    1.367   .     S
C2     C3      1.405   .     S
C2     C7      1.405   .     D
C3     C4      1.378   .     D
C3     H2      1.135   .     S
C4     C5      1.405   .     S
C4     H3      1.126   .     S
C5     C6      1.403   .     D
C5     N1      1.372   .     S
C6     C7      1.370   .     S
C6     H4      1.130   .     S
C7     H1      1.135   .     S
C8     C9      1.405   .     S
C8     C13     1.401   .     S
C9     C10     1.375   .     D
C9     H5      1.138   .     S
C10    C11     1.400   .     S
C10    H6      1.125   .     S
C11    C12     1.402   .     S
C11    N2      1.377   .     D
C12    C13     1.374   .     D
C12    H7      1.123   .     S
C13    H8      1.131   .     S
C14    C15     1.450   .     S
C14    H9      1.127   .     S
C14    N1      1.274   .     D
C15    C16     1.398   .     S
C15    C20     1.402   .     D
C16    C17     1.382   .     D
C16    H10     1.141   .     S
C17    C18     1.400   .     S
C17    H11     1.113   .     S
C18    C19     1.405   .     D
C18    C21     1.456   .     S
C19    C20     1.373   .     S
C19    H12     1.122   .     S
C20    H13     1.143   .     S
C21    C33     1.394   .     S
C21    C197    1.390   .     D
C22    C23     1.444   .     D
C22    H14     1.134   .     S
C22    N2      1.277   .     S
C23    C24     1.398   .     S
C23    C28     1.403   .     S
C24    C25     1.379   .     D
C24    H15     1.151   .     S
C25    C26     1.401   .     S
C25    H16     1.108   .     S
C26    C27     1.401   .     S
C26    C29     1.450   .     D
C27    C28     1.372   .     D
C27    H17     1.109   .     S
C28    H18     1.130   .     S
C29    C30     1.397   .     S
C29    C31     1.400   .     S
C30    C32     1.375   .     D
C30    H19     1.088   .     S
C31    H20     1.117   .     S
C31    C165    1.304   .     D
C32    C153    1.390   .     S
C32    H109    1.053   .     S
C33    H22     1.092   .     S
C33    C196    1.304   .     D
H21    C197    1.053   .     S
C34    C35     1.474   .     S
C34    C41     1.467   1_565 D
C34    C133    1.367   1_565 S
C35    C36     1.405   .     S
C35    C40     1.406   .     D
C36    C37     1.378   .     D
C36    H24     1.135   .     S
C37    C38     1.405   .     S
C37    H25     1.126   .     S
C38    C39     1.403   .     D
C38    N3      1.372   .     S
C39    C40     1.370   .     S
C39    H26     1.130   .     S
C40    H23     1.135   .     S
C41    C34     1.467   1_545 D
C41    C42     1.405   .     S
C41    C46     1.401   .     S
C42    C43     1.375   .     D
C42    H27     1.138   .     S
C43    C44     1.400   .     S
C43    H28     1.125   .     S
C44    C45     1.402   .     S
C44    N4      1.377   .     D
C45    C46     1.374   .     D
C45    H29     1.123   .     S
C46    H30     1.132   .     S
C47    C48     1.450   .     S
C47    H31     1.127   .     S
C47    N3      1.274   .     D
C48    C49     1.398   .     D
C48    C53     1.402   .     S
C49    C50     1.382   .     S
C49    H32     1.141   .     S
C50    C51     1.400   .     D
C50    H33     1.113   .     S
C51    C52     1.405   .     S
C51    C54     1.456   .     S
C52    C53     1.373   .     D
C52    H34     1.122   .     S
C53    H35     1.143   .     S
C54    C66     1.395   .     S
C54    C131    1.390   .     D
C55    C56     1.444   .     D
C55    H36     1.134   .     S
C55    N4      1.277   .     S
C56    C57     1.398   .     S
C56    C61     1.403   .     S
C57    C58     1.379   .     D
C57    H37     1.151   .     S
C58    C59     1.401   .     S
C58    H38     1.108   .     S
C59    C60     1.401   .     S
C59    C62     1.450   .     D
C60    C61     1.372   .     D
C60    H39     1.109   .     S
C61    H40     1.130   .     S
C62    C63     1.397   .     S
C62    C64     1.400   .     S
C63    C65     1.375   .     D
C63    H41     1.088   .     S
C64    H42     1.117   .     S
C64    C198    1.304   .     D
C65    C186    1.391   .     S
C65    H131    1.052   .     S
C66    H44     1.092   .     S
C66    C130    1.304   .     D
H43    C131    1.053   .     S
C67    C68     1.474   .     S
C67    C74     1.467   1_455 D
C67    C166    1.367   1_455 S
C68    C69     1.405   .     S
C68    C73     1.406   .     D
C69    C70     1.378   .     D
C69    H46     1.135   .     S
C70    C71     1.404   .     S
C70    H47     1.127   .     S
C71    C72     1.403   .     D
C71    N5      1.372   .     S
C72    C73     1.370   .     S
C72    H48     1.130   .     S
C73    H45     1.135   .     S
C74    C67     1.467   1_655 D
C74    C75     1.405   .     S
C74    C79     1.401   .     S
C75    C76     1.375   .     D
C75    H49     1.138   .     S
C76    C77     1.400   .     S
C76    H50     1.125   .     S
C77    C78     1.402   .     S
C77    N6      1.377   .     D
C78    C79     1.374   .     D
C78    H51     1.123   .     S
C79    H52     1.131   .     S
C80    C81     1.450   .     S
C80    H53     1.127   .     S
C80    N5      1.274   .     D
C81    C82     1.398   .     S
C81    C86     1.402   .     D
C82    C83     1.382   .     D
C82    H54     1.141   .     S
C83    C84     1.400   .     S
C83    H55     1.113   .     S
C84    C85     1.405   .     D
C84    C87     1.456   .     S
C85    C86     1.373   .     S
C85    H56     1.122   .     S
C86    H57     1.142   .     S
C87    C99     1.394   .     S
C87    C164    1.391   .     D
C88    C89     1.444   .     D
C88    H58     1.134   .     S
C88    N6      1.277   .     S
C89    C90     1.398   .     S
C89    C94     1.403   .     S
C90    C91     1.379   .     D
C90    H59     1.151   .     S
C91    C92     1.401   .     S
C91    H60     1.108   .     S
C92    C93     1.401   .     S
C92    C95     1.450   .     D
C93    C94     1.371   .     D
C93    H61     1.109   .     S
C94    H62     1.130   .     S
C95    C96     1.397   .     S
C95    C97     1.400   .     S
C96    C98     1.375   .     D
C96    H63     1.088   .     S
C97    H64     1.117   .     S
C97    C132    1.304   .     D
C98    C120    1.390   .     S
C98    H87     1.053   .     S
C99    H66     1.092   .     S
C99    C163    1.304   .     D
H65    C164    1.052   .     S
C100   C101    1.474   .     D
C100   C107    1.467   .     S
C101   C102    1.405   .     S
C101   C106    1.406   .     S
C102   C103    1.378   .     D
C102   H68     1.134   .     S
C103   C104    1.405   .     S
C103   H69     1.127   .     S
C104   C105    1.403   .     S
C104   N7      1.372   .     D
C105   C106    1.370   .     D
C105   H70     1.130   .     S
C106   H67     1.135   .     S
C107   C108    1.405   .     D
C107   C112    1.401   .     S
C108   C109    1.375   .     S
C108   H71     1.138   .     S
C109   C110    1.400   .     D
C109   H72     1.125   .     S
C110   C111    1.402   .     S
C110   N8      1.377   .     S
C111   C112    1.374   .     D
C111   H73     1.123   .     S
C112   H74     1.131   .     S
C113   C114    1.450   .     D
C113   H75     1.127   .     S
C113   N7      1.274   .     S
C114   C115    1.398   .     S
C114   C119    1.402   .     S
C115   C116    1.382   .     D
C115   H76     1.141   .     S
C116   C117    1.400   .     S
C116   H77     1.113   .     S
C117   C118    1.405   .     S
C117   C120    1.456   .     D
C118   C119    1.373   .     D
C118   H78     1.122   .     S
C119   H79     1.142   .     S
C120   C132    1.394   .     S
C121   C122    1.444   .     S
C121   H80     1.134   .     S
C121   N8      1.277   .     D
C122   C123    1.398   .     D
C122   C127    1.403   .     S
C123   C124    1.379   .     S
C123   H81     1.151   .     S
C124   C125    1.401   .     D
C124   H82     1.108   .     S
C125   C126    1.401   .     S
C125   C128    1.450   .     S
C126   C127    1.372   .     D
C126   H83     1.109   .     S
C127   H84     1.130   .     S
C128   C129    1.397   .     D
C128   C130    1.400   .     S
C129   C131    1.375   .     S
C129   H85     1.088   .     S
C130   H86     1.117   .     S
C132   H88     1.092   .     S
C133   C34     1.367   1_545 S
C133   C134    1.474   .     D
C133   C140    1.467   1_545 S
C134   C135    1.405   .     S
C134   C139    1.406   .     S
C135   C136    1.378   .     D
C135   H90     1.135   .     S
C136   C137    1.405   .     S
C136   H91     1.126   .     S
C137   C138    1.403   .     S
C137   N9      1.372   .     D
C138   C139    1.370   .     D
C138   H92     1.130   .     S
C139   H89     1.136   .     S
C140   C133    1.467   1_565 S
C140   C141    1.405   .     S
C140   C145    1.401   .     D
C141   C142    1.375   .     D
C141   H93     1.138   .     S
C142   C143    1.400   .     S
C142   H94     1.125   .     S
C143   C144    1.402   .     D
C143   N10     1.377   .     S
C144   C145    1.374   .     S
C144   H95     1.123   .     S
C145   H96     1.132   .     S
C146   C147    1.450   .     D
C146   H97     1.127   .     S
C146   N9      1.274   .     S
C147   C148    1.398   .     S
C147   C152    1.402   .     S
C148   C149    1.382   .     D
C148   H98     1.141   .     S
C149   C150    1.400   .     S
C149   H99     1.113   .     S
C150   C151    1.405   .     S
C150   C153    1.456   .     D
C151   C152    1.373   .     D
C151   H100    1.122   .     S
C152   H101    1.143   .     S
C153   C165    1.394   .     S
C154   C155    1.444   .     S
C154   H102    1.134   .     S
C154   N10     1.277   .     D
C155   C156    1.398   .     S
C155   C160    1.403   .     D
C156   C157    1.379   .     D
C156   H103    1.151   .     S
C157   C158    1.401   .     S
C157   H104    1.108   .     S
C158   C159    1.401   .     D
C158   C161    1.450   .     S
C159   C160    1.372   .     S
C159   H105    1.109   .     S
C160   H106    1.130   .     S
C161   C162    1.397   .     D
C161   C163    1.400   .     S
C162   C164    1.375   .     S
C162   H107    1.088   .     S
C163   H108    1.117   .     S
C165   H110    1.092   .     S
C166   C67     1.367   1_655 S
C166   C167    1.474   .     D
C166   C173    1.467   1_655 S
C167   C168    1.405   .     S
C167   C172    1.406   .     S
C168   C169    1.378   .     D
C168   H112    1.135   .     S
C169   C170    1.404   .     S
C169   H113    1.127   .     S
C170   C171    1.403   .     S
C170   N11     1.372   .     D
C171   C172    1.370   .     D
C171   H114    1.130   .     S
C172   H111    1.135   .     S
C173   C166    1.467   1_455 S
C173   C174    1.405   .     S
C173   C178    1.401   .     D
C174   C175    1.375   .     D
C174   H115    1.138   .     S
C175   C176    1.400   .     S
C175   H116    1.125   .     S
C176   C177    1.402   .     D
C176   N12     1.377   .     S
C177   C178    1.374   .     S
C177   H117    1.123   .     S
C178   H118    1.131   .     S
C179   C180    1.450   .     D
C179   H119    1.127   .     S
C179   N11     1.274   .     S
C180   C181    1.398   .     S
C180   C185    1.402   .     S
C181   C182    1.382   .     D
C181   H120    1.141   .     S
C182   C183    1.400   .     S
C182   H121    1.113   .     S
C183   C184    1.405   .     S
C183   C186    1.456   .     D
C184   C185    1.373   .     D
C184   H122    1.122   .     S
C185   H123    1.143   .     S
C186   C198    1.394   .     S
C187   C188    1.444   .     S
C187   H124    1.134   .     S
C187   N12     1.277   .     D
C188   C189    1.398   .     S
C188   C193    1.403   .     D
C189   C190    1.379   .     D
C189   H125    1.151   .     S
C190   C191    1.401   .     S
C190   H126    1.108   .     S
C191   C192    1.401   .     D
C191   C194    1.450   .     S
C192   C193    1.372   .     S
C192   H127    1.109   .     S
C193   H128    1.130   .     S
C194   C195    1.397   .     D
C194   C196    1.400   .     S
C195   C197    1.375   .     S
C195   H129    1.088   .     S
C196   H130    1.117   .     S
C198   H132    1.092   .     S
