data_261
_audit_creation_date              2023-09-08
_audit_creation_method            'Materials Studio'
_symmetry_space_group_name_H-M    'P1'
_symmetry_Int_Tables_number       1
_symmetry_cell_setting            triclinic
loop_
_symmetry_equiv_pos_as_xyz
  x,y,z
_cell_length_a                    25.0000
_cell_length_b                    25.0000
_cell_length_c                    5.0000
_cell_angle_alpha                 90.0000
_cell_angle_beta                  90.0000
_cell_angle_gamma                 90.0000
loop_
_atom_site_label
_atom_site_type_symbol
_atom_site_fract_x
_atom_site_fract_y
_atom_site_fract_z
_atom_site_U_iso_or_equiv
_atom_site_adp_type
_atom_site_occupancy
C1     C     0.36249   0.78084   0.50000   0.00000  Uiso   1.00
C2     C     0.63751   0.21916   0.50000   0.00000  Uiso   1.00
C3     C     0.21916   0.36249   0.50000   0.00000  Uiso   1.00
C4     C     0.78084   0.63751   0.50000   0.00000  Uiso   1.00
C5     C     0.63751   0.78084   0.50000   0.00000  Uiso   1.00
C6     C     0.36249   0.21916   0.50000   0.00000  Uiso   1.00
C7     C     0.78084   0.36249   0.50000   0.00000  Uiso   1.00
C8     C     0.21916   0.63751   0.50000   0.00000  Uiso   1.00
C9     C     0.38006   0.72695   0.50000   0.00000  Uiso   1.00
C10    C     0.61995   0.27305   0.50000   0.00000  Uiso   1.00
C11    C     0.27305   0.38006   0.50000   0.00000  Uiso   1.00
C12    C     0.72695   0.61995   0.50000   0.00000  Uiso   1.00
C13    C     0.61995   0.72695   0.50000   0.00000  Uiso   1.00
C14    C     0.38006   0.27305   0.50000   0.00000  Uiso   1.00
C15    C     0.72695   0.38006   0.50000   0.00000  Uiso   1.00
C16    C     0.27305   0.61995   0.50000   0.00000  Uiso   1.00
C17    C     0.43532   0.71476   0.50000   0.00000  Uiso   1.00
C18    C     0.56469   0.28524   0.50000   0.00000  Uiso   1.00
C19    C     0.28524   0.43532   0.50000   0.00000  Uiso   1.00
C20    C     0.71476   0.56469   0.50000   0.00000  Uiso   1.00
C21    C     0.56469   0.71476   0.50000   0.00000  Uiso   1.00
C22    C     0.43532   0.28524   0.50000   0.00000  Uiso   1.00
C23    C     0.71476   0.43532   0.50000   0.00000  Uiso   1.00
C24    C     0.28524   0.56469   0.50000   0.00000  Uiso   1.00
C25    C     0.47215   0.75730   0.50000   0.00000  Uiso   1.00
C26    C     0.52785   0.24270   0.50000   0.00000  Uiso   1.00
C27    C     0.24270   0.47215   0.50000   0.00000  Uiso   1.00
C28    C     0.75730   0.52785   0.50000   0.00000  Uiso   1.00
C29    C     0.52785   0.75730   0.50000   0.00000  Uiso   1.00
C30    C     0.47215   0.24270   0.50000   0.00000  Uiso   1.00
C31    C     0.75730   0.47215   0.50000   0.00000  Uiso   1.00
C32    C     0.24270   0.52785   0.50000   0.00000  Uiso   1.00
C33    C     0.45473   0.81050   0.50000   0.00000  Uiso   1.00
C34    C     0.54527   0.18950   0.50000   0.00000  Uiso   1.00
C35    C     0.18950   0.45473   0.50000   0.00000  Uiso   1.00
C36    C     0.81050   0.54527   0.50000   0.00000  Uiso   1.00
C37    C     0.54527   0.81050   0.50000   0.00000  Uiso   1.00
C38    C     0.45473   0.18950   0.50000   0.00000  Uiso   1.00
C39    C     0.81050   0.45473   0.50000   0.00000  Uiso   1.00
C40    C     0.18950   0.54527   0.50000   0.00000  Uiso   1.00
C41    C     0.39992   0.82292   0.50000   0.00000  Uiso   1.00
C42    C     0.60008   0.17708   0.50000   0.00000  Uiso   1.00
C43    C     0.17708   0.39992   0.50000   0.00000  Uiso   1.00
C44    C     0.82292   0.60008   0.50000   0.00000  Uiso   1.00
C45    C     0.60008   0.82292   0.50000   0.00000  Uiso   1.00
C46    C     0.39992   0.17708   0.50000   0.00000  Uiso   1.00
C47    C     0.82292   0.39992   0.50000   0.00000  Uiso   1.00
C48    C     0.17708   0.60008   0.50000   0.00000  Uiso   1.00
C49    C     0.34481   0.68893   0.50000   0.00000  Uiso   1.00
C50    C     0.65519   0.31108   0.50000   0.00000  Uiso   1.00
C51    C     0.31108   0.34481   0.50000   0.00000  Uiso   1.00
C52    C     0.68893   0.65519   0.50000   0.00000  Uiso   1.00
C53    C     0.65519   0.68893   0.50000   0.00000  Uiso   1.00
C54    C     0.34481   0.31108   0.50000   0.00000  Uiso   1.00
C55    C     0.68893   0.34481   0.50000   0.00000  Uiso   1.00
C56    C     0.31108   0.65519   0.50000   0.00000  Uiso   1.00
H57    H     0.31783   0.79005   0.50000   0.00000  Uiso   1.00
H58    H     0.68217   0.20995   0.50000   0.00000  Uiso   1.00
H59    H     0.20995   0.31783   0.50000   0.00000  Uiso   1.00
H60    H     0.79005   0.68217   0.50000   0.00000  Uiso   1.00
H61    H     0.68217   0.79005   0.50000   0.00000  Uiso   1.00
H62    H     0.31783   0.20995   0.50000   0.00000  Uiso   1.00
H63    H     0.79005   0.31783   0.50000   0.00000  Uiso   1.00
H64    H     0.20995   0.68217   0.50000   0.00000  Uiso   1.00
H65    H     0.44907   0.67128   0.50000   0.00000  Uiso   1.00
H66    H     0.55093   0.32872   0.50000   0.00000  Uiso   1.00
H67    H     0.32872   0.44907   0.50000   0.00000  Uiso   1.00
H68    H     0.67128   0.55093   0.50000   0.00000  Uiso   1.00
H69    H     0.55093   0.67128   0.50000   0.00000  Uiso   1.00
H70    H     0.44907   0.32872   0.50000   0.00000  Uiso   1.00
H71    H     0.67128   0.44907   0.50000   0.00000  Uiso   1.00
H72    H     0.32872   0.55093   0.50000   0.00000  Uiso   1.00
H73    H     0.38635   0.86275   0.49842   0.00000  Uiso   1.00
H74    H     0.61365   0.13725   0.49842   0.00000  Uiso   1.00
H75    H     0.13725   0.38635   0.49842   0.00000  Uiso   1.00
H76    H     0.86275   0.61365   0.49842   0.00000  Uiso   1.00
H77    H     0.61365   0.86275   0.50158   0.00000  Uiso   1.00
H78    H     0.38635   0.13725   0.50158   0.00000  Uiso   1.00
H79    H     0.86275   0.38635   0.50158   0.00000  Uiso   1.00
H80    H     0.13725   0.61365   0.50158   0.00000  Uiso   1.00
C81    C     0.85145   0.50000   0.50000   0.00000  Uiso   1.00
C82    C     0.14855   0.50000   0.50000   0.00000  Uiso   1.00
C83    C     0.50000   0.85145   0.50000   0.00000  Uiso   1.00
C84    C     0.50000   0.14855   0.50000   0.00000  Uiso   1.00
C85    C     0.09944   0.48730   0.70637   0.00000  Uiso   1.00
C86    C     0.90056   0.51270   0.70637   0.00000  Uiso   1.00
C87    C     0.51270   0.09944   0.70637   0.00000  Uiso   1.00
C88    C     0.48730   0.90056   0.70637   0.00000  Uiso   1.00
C89    C     0.90056   0.48730   0.29363   0.00000  Uiso   1.00
C90    C     0.09944   0.51270   0.29363   0.00000  Uiso   1.00
C91    C     0.48730   0.09944   0.29363   0.00000  Uiso   1.00
C92    C     0.51270   0.90056   0.29363   0.00000  Uiso   1.00
O93    O     0.04399   0.47097   0.65642   0.00000  Uiso   1.00
O94    O     0.95601   0.52904   0.65642   0.00000  Uiso   1.00
O95    O     0.52904   0.04399   0.65642   0.00000  Uiso   1.00
O96    O     0.47097   0.95601   0.65642   0.00000  Uiso   1.00
O97    O     0.95601   0.47097   0.34358   0.00000  Uiso   1.00
O98    O     0.04399   0.52904   0.34358   0.00000  Uiso   1.00
O99    O     0.47097   0.04399   0.34358   0.00000  Uiso   1.00
O100   O     0.52904   0.95601   0.34358   0.00000  Uiso   1.00
B101   B     0.00000   0.50000   0.50000   0.00000  Uiso   1.00
B102   B     0.50000   0.00000   0.50000   0.00000  Uiso   1.00
H103   H     0.11560   0.45706   0.83724   0.00000  Uiso   1.00
H104   H     0.88440   0.54294   0.83724   0.00000  Uiso   1.00
H105   H     0.54294   0.11560   0.83724   0.00000  Uiso   1.00
H106   H     0.45706   0.88440   0.83724   0.00000  Uiso   1.00
H107   H     0.88440   0.45706   0.16276   0.00000  Uiso   1.00
H108   H     0.11560   0.54294   0.16276   0.00000  Uiso   1.00
H109   H     0.45706   0.11560   0.16276   0.00000  Uiso   1.00
H110   H     0.54294   0.88440   0.16276   0.00000  Uiso   1.00
H111   H     0.09277   0.52602   0.79376   0.00000  Uiso   1.00
H112   H     0.90723   0.47398   0.79376   0.00000  Uiso   1.00
H113   H     0.47398   0.09277   0.79376   0.00000  Uiso   1.00
H114   H     0.52602   0.90723   0.79376   0.00000  Uiso   1.00
H115   H     0.90723   0.52602   0.20624   0.00000  Uiso   1.00
H116   H     0.09277   0.47398   0.20624   0.00000  Uiso   1.00
H117   H     0.52602   0.09277   0.20624   0.00000  Uiso   1.00
H118   H     0.47398   0.90723   0.20624   0.00000  Uiso   1.00
Li119  Li    0.40000   0.00000   0.50000   0.00000  Uiso   1.00
Li120  Li    0.00000   0.40000   0.50000   0.00000  Uiso   1.00
loop_
_geom_bond_atom_site_label_1
_geom_bond_atom_site_label_2
_geom_bond_distance
_geom_bond_site_symmetry_2
_ccdc_geom_bond_type
C1     C9      1.417   .     D
C1     C41     1.408   .     S
C1     H57     1.140   .     S
C2     C10     1.417   .     D
C2     C42     1.408   .     S
C2     H58     1.140   .     S
C3     C11     1.417   .     D
C3     C43     1.408   .     S
C3     H59     1.140   .     S
C4     C12     1.417   .     D
C4     C44     1.408   .     S
C4     H60     1.140   .     S
C5     C13     1.417   .     D
C5     C45     1.408   .     S
C5     H61     1.140   .     S
C6     C14     1.417   .     D
C6     C46     1.408   .     S
C6     H62     1.140   .     S
C7     C15     1.417   .     D
C7     C47     1.408   .     S
C7     H63     1.140   .     S
C8     C16     1.417   .     D
C8     C48     1.408   .     S
C8     H64     1.140   .     S
C9     C17     1.415   .     S
C9     C49     1.296   .     S
C10    C18     1.415   .     S
C10    C50     1.296   .     S
C11    C19     1.415   .     S
C11    C51     1.296   .     S
C12    C20     1.415   .     S
C12    C52     1.296   .     S
C13    C21     1.415   .     S
C13    C53     1.296   .     S
C14    C22     1.415   .     S
C14    C54     1.296   .     S
C15    C23     1.415   .     S
C15    C55     1.296   .     S
C16    C24     1.415   .     S
C16    C56     1.296   .     S
C17    C25     1.407   .     D
C17    H65     1.140   .     S
C18    C26     1.407   .     D
C18    H66     1.140   .     S
C19    C27     1.407   .     D
C19    H67     1.140   .     S
C20    C28     1.407   .     D
C20    H68     1.140   .     S
C21    C29     1.407   .     D
C21    H69     1.140   .     S
C22    C30     1.407   .     D
C22    H70     1.140   .     S
C23    C31     1.407   .     D
C23    H71     1.140   .     S
C24    C32     1.407   .     D
C24    H72     1.140   .     S
C25    C29     1.392   .     S
C25    C33     1.399   .     S
C26    C30     1.392   .     S
C26    C34     1.399   .     S
C27    C32     1.392   .     S
C27    C35     1.399   .     S
C28    C31     1.392   .     S
C28    C36     1.399   .     S
C29    C37     1.399   .     S
C30    C38     1.399   .     S
C31    C39     1.399   .     S
C32    C40     1.399   .     S
C33    C41     1.405   .     D
C33    C83     1.526   .     S
C34    C42     1.405   .     D
C34    C84     1.526   .     S
C35    C43     1.405   .     D
C35    C82     1.526   .     S
C36    C44     1.405   .     D
C36    C81     1.526   .     S
C37    C45     1.405   .     D
C37    C83     1.526   .     S
C38    C46     1.405   .     D
C38    C84     1.526   .     S
C39    C47     1.405   .     D
C39    C81     1.526   .     S
C40    C48     1.405   .     D
C40    C82     1.526   .     S
C41    H73     1.052   .     S
C42    H74     1.052   .     S
C43    H75     1.052   .     S
C44    H76     1.052   .     S
C45    H77     1.052   .     S
C46    H78     1.052   .     S
C47    H79     1.052   .     S
C48    H80     1.052   .     S
C49    C56     1.193   .     T
C50    C55     1.193   .     T
C51    C54     1.193   .     T
C52    C53     1.193   .     T
C81    C86     1.635   .     S
C81    C89     1.635   .     S
C82    C85     1.635   .     S
C82    C90     1.635   .     S
C83    C88     1.635   .     S
C83    C92     1.635   .     S
C84    C87     1.635   .     S
C84    C91     1.635   .     S
C85    O93     1.467   .     S
C85    H103    1.078   .     S
C85    H111    1.075   .     S
C86    O94     1.467   .     S
C86    H104    1.078   .     S
C86    H112    1.075   .     S
C87    O95     1.467   .     S
C87    H105    1.078   .     S
C87    H113    1.075   .     S
C88    O96     1.467   .     S
C88    H106    1.078   .     S
C88    H114    1.075   .     S
C89    O97     1.467   .     S
C89    H107    1.078   .     S
C89    H115    1.075   .     S
C90    O98     1.467   .     S
C90    H108    1.078   .     S
C90    H116    1.075   .     S
C91    O99     1.467   .     S
C91    H109    1.078   .     S
C91    H117    1.075   .     S
C92    O100    1.467   .     S
C92    H110    1.078   .     S
C92    H118    1.075   .     S
O93    B101    1.532   .     S
O94    B101    1.532   1_655 S
O95    B102    1.532   .     S
O96    B102    1.532   1_565 S
O97    B101    1.532   1_655 S
O98    B101    1.532   .     S
O99    B102    1.532   .     S
O100   B102    1.532   1_565 S
B101   O94     1.532   1_455 S
B101   O97     1.532   1_455 S
B102   O96     1.532   1_545 S
B102   O100    1.532   1_545 S
