data_262
_audit_creation_date              2023-09-08
_audit_creation_method            'Materials Studio'
_symmetry_space_group_name_H-M    'P1'
_symmetry_Int_Tables_number       1
_symmetry_cell_setting            triclinic
loop_
_symmetry_equiv_pos_as_xyz
  x,y,z
_cell_length_a                    28.2551
_cell_length_b                    10.5195
_cell_length_c                    27.9301
_cell_angle_alpha                 90.0000
_cell_angle_beta                  119.9306
_cell_angle_gamma                 90.0000
loop_
_atom_site_label
_atom_site_type_symbol
_atom_site_fract_x
_atom_site_fract_y
_atom_site_fract_z
_atom_site_U_iso_or_equiv
_atom_site_adp_type
_atom_site_occupancy
C1     C     0.44225   0.50000   0.42480   0.00000  Uiso   1.00
C2     C     0.48082   0.50000   0.05665   0.00000  Uiso   1.00
C3     C     0.07437   0.50000   0.01673   0.00000  Uiso   1.00
C4     C     0.90828   0.50000   0.87436   0.00000  Uiso   1.00
C5     C     0.62533   0.50000   0.03695   0.00000  Uiso   1.00
C6     C     0.46751   0.50000   0.59291   0.00000  Uiso   1.00
C7     C     0.55775   0.50000   0.57520   0.00000  Uiso   1.00
C8     C     0.51919   0.50000   0.94335   0.00000  Uiso   1.00
C9     C     0.92563   0.50000   0.98327   0.00000  Uiso   1.00
C10    C     0.09172   0.50000   0.12564   0.00000  Uiso   1.00
C11    C     0.37467   0.50000   0.96305   0.00000  Uiso   1.00
C12    C     0.53249   0.50000   0.40708   0.00000  Uiso   1.00
C13    C     0.49580   0.50000   0.47239   0.00000  Uiso   1.00
C14    C     0.47631   0.50000   0.00328   0.00000  Uiso   1.00
C15    C     0.02727   0.50000   0.02333   0.00000  Uiso   1.00
C16    C     0.96161   0.50000   0.92051   0.00000  Uiso   1.00
C17    C     0.57852   0.50000   0.04284   0.00000  Uiso   1.00
C18    C     0.45983   0.50000   0.53893   0.00000  Uiso   1.00
C19    C     0.50420   0.50000   0.52761   0.00000  Uiso   1.00
C20    C     0.52369   0.50000   0.99672   0.00000  Uiso   1.00
C21    C     0.97273   0.50000   0.97667   0.00000  Uiso   1.00
C22    C     0.03839   0.50000   0.07949   0.00000  Uiso   1.00
C23    C     0.42148   0.50000   0.95716   0.00000  Uiso   1.00
C24    C     0.54017   0.50000   0.46107   0.00000  Uiso   1.00
H25    H     0.40727   0.50000   0.42661   0.00000  Uiso   1.00
H26    H     0.51691   0.50000   0.09272   0.00000  Uiso   1.00
H27    H     0.07263   0.50000   0.97956   0.00000  Uiso   1.00
H28    H     0.90149   0.50000   0.83488   0.00000  Uiso   1.00
H29    H     0.66386   0.50000   0.07034   0.00000  Uiso   1.00
H30    H     0.43530   0.50000   0.59985   0.00000  Uiso   1.00
H31    H     0.59273   0.50000   0.57339   0.00000  Uiso   1.00
H32    H     0.48309   0.50000   0.90728   0.00000  Uiso   1.00
H33    H     0.92737   0.50000   0.02044   0.00000  Uiso   1.00
H34    H     0.09851   0.50000   0.16512   0.00000  Uiso   1.00
H35    H     0.33614   0.50000   0.92966   0.00000  Uiso   1.00
H36    H     0.56470   0.50000   0.40015   0.00000  Uiso   1.00
N37    N     0.53994   0.50000   0.69170   0.00000  Uiso   1.00
N38    N     0.65272   0.50000   0.96498   0.00000  Uiso   1.00
N39    N     0.81059   0.50000   0.84892   0.00000  Uiso   1.00
N40    N     0.17580   0.50000   0.06673   0.00000  Uiso   1.00
N41    N     0.42953   0.50000   0.10727   0.00000  Uiso   1.00
N42    N     0.39033   0.50000   0.32219   0.00000  Uiso   1.00
N43    N     0.46006   0.50000   0.30830   0.00000  Uiso   1.00
N44    N     0.34728   0.50000   0.03502   0.00000  Uiso   1.00
N45    N     0.18941   0.50000   0.15108   0.00000  Uiso   1.00
N46    N     0.82420   0.50000   0.93327   0.00000  Uiso   1.00
N47    N     0.57047   0.50000   0.89273   0.00000  Uiso   1.00
N48    N     0.60967   0.50000   0.67781   0.00000  Uiso   1.00
C49    C     0.43528   0.50000   0.37156   0.00000  Uiso   1.00
C50    C     0.43415   0.50000   0.06204   0.00000  Uiso   1.00
C51    C     0.12697   0.50000   0.06286   0.00000  Uiso   1.00
C52    C     0.86434   0.50000   0.88402   0.00000  Uiso   1.00
C53    C     0.61754   0.50000   0.98352   0.00000  Uiso   1.00
C54    C     0.52094   0.50000   0.63732   0.00000  Uiso   1.00
C55    C     0.56472   0.50000   0.62844   0.00000  Uiso   1.00
C56    C     0.56585   0.50000   0.93796   0.00000  Uiso   1.00
C57    C     0.87303   0.50000   0.93714   0.00000  Uiso   1.00
C58    C     0.13566   0.50000   0.11597   0.00000  Uiso   1.00
C59    C     0.38246   0.50000   0.01648   0.00000  Uiso   1.00
C60    C     0.47906   0.50000   0.36268   0.00000  Uiso   1.00
C61    C     0.40448   0.50000   0.28232   0.00000  Uiso   1.00
C62    C     0.37548   0.50000   0.09120   0.00000  Uiso   1.00
C63    C     0.21516   0.50000   0.12085   0.00000  Uiso   1.00
C64    C     0.59552   0.50000   0.71768   0.00000  Uiso   1.00
C65    C     0.62452   0.50000   0.90880   0.00000  Uiso   1.00
C66    C     0.78484   0.50000   0.87915   0.00000  Uiso   1.00
C67    C     0.63190   0.50000   0.77613   0.00000  Uiso   1.00
C68    C     0.64653   0.50000   0.87245   0.00000  Uiso   1.00
C69    C     0.72704   0.50000   0.85754   0.00000  Uiso   1.00
C70    C     0.36810   0.50000   0.22386   0.00000  Uiso   1.00
C71    C     0.35347   0.50000   0.12754   0.00000  Uiso   1.00
C72    C     0.27296   0.50000   0.14245   0.00000  Uiso   1.00
C73    C     0.61182   0.50000   0.81391   0.00000  Uiso   1.00
C74    C     0.70391   0.50000   0.89274   0.00000  Uiso   1.00
C75    C     0.68976   0.50000   0.79950   0.00000  Uiso   1.00
C76    C     0.38818   0.50000   0.18608   0.00000  Uiso   1.00
C77    C     0.29610   0.50000   0.10726   0.00000  Uiso   1.00
C78    C     0.31024   0.50000   0.20050   0.00000  Uiso   1.00
O79    O     0.70893   0.50000   0.76753   0.00000  Uiso   1.00
O80    O     0.56108   0.50000   0.79461   0.00000  Uiso   1.00
O81    O     0.73546   0.50000   0.94402   0.00000  Uiso   1.00
O82    O     0.29107   0.50000   0.23246   0.00000  Uiso   1.00
O83    O     0.43892   0.50000   0.20538   0.00000  Uiso   1.00
O84    O     0.26454   0.50000   0.05597   0.00000  Uiso   1.00
H85    H     0.58657   0.50000   0.08259   0.00000  Uiso   1.00
H86    H     0.99192   0.50000   0.91096   0.00000  Uiso   1.00
H87    H     0.42013   0.50000   0.50831   0.00000  Uiso   1.00
H88    H     0.35348   0.50000   0.31606   0.00000  Uiso   1.00
H89    H     0.18191   0.50000   0.03559   0.00000  Uiso   1.00
H90    H     0.69207   0.50000   0.98806   0.00000  Uiso   1.00
H91    H     0.41343   0.50000   0.91741   0.00000  Uiso   1.00
H92    H     0.00808   0.50000   0.08904   0.00000  Uiso   1.00
H93    H     0.57987   0.50000   0.49168   0.00000  Uiso   1.00
H94    H     0.64653   0.50000   0.68394   0.00000  Uiso   1.00
H95    H     0.81809   0.50000   0.96441   0.00000  Uiso   1.00
H96    H     0.30793   0.50000   0.01193   0.00000  Uiso   1.00
loop_
_geom_bond_atom_site_label_1
_geom_bond_atom_site_label_2
_geom_bond_distance
_geom_bond_site_symmetry_2
_ccdc_geom_bond_type
C1     C13     1.431   .     S
C1     H25     1.015   .     S
C1     C49     1.399   .     D
C2     C14     1.431   .     D
C2     H26     1.015   .     S
C2     C50     1.400   .     S
C3     C15     1.431   .     S
C3     H27     1.015   1_554 S
C3     C51     1.399   .     D
C4     C16     1.412   .     D
C4     H28     1.021   .     S
C4     C52     1.396   .     S
C5     C17     1.412   .     D
C5     H29     1.021   .     S
C5     C53     1.396   1_554 S
C6     C18     1.412   .     D
C6     H30     1.021   .     S
C6     C54     1.396   .     S
C7     C19     1.431   .     S
C7     H31     1.015   .     S
C7     C55     1.399   .     D
C8     C20     1.431   .     D
C8     H32     1.015   .     S
C8     C56     1.400   .     S
C9     C21     1.431   .     S
C9     H33     1.015   1_556 S
C9     C57     1.399   .     D
C10    C22     1.412   .     D
C10    H34     1.021   .     S
C10    C58     1.396   .     S
C11    C23     1.412   .     D
C11    H35     1.021   .     S
C11    C59     1.396   1_556 S
C12    C24     1.412   .     D
C12    H36     1.021   .     S
C12    C60     1.396   .     S
C13    C19     1.439   .     D
C13    C24     1.438   .     S
C14    C20     1.439   1_554 S
C14    C23     1.438   1_554 S
C15    C21     1.439   1_454 D
C15    C22     1.438   .     S
C16    C21     1.438   .     S
C16    H86     1.016   .     S
C17    C20     1.438   1_554 S
C17    H85     1.016   .     S
C18    C19     1.438   .     S
C18    H87     1.016   .     S
C20    C17     1.438   1_556 S
C20    C14     1.439   1_556 S
C21    C15     1.439   1_656 D
C22    H92     1.016   .     S
C23    C14     1.438   1_556 S
C23    H91     1.016   .     S
C24    H93     1.016   .     S
H27    C3      1.015   1_556 S
H33    C9      1.015   1_554 S
N37    C54     1.335   .     D
N37    C64     1.362   .     S
N38    C53     1.331   .     D
N38    C65     1.360   .     S
N38    H90     0.968   .     S
N39    C52     1.335   .     D
N39    C66     1.362   .     S
N40    C51     1.329   .     S
N40    C63     1.358   .     S
N40    H89     0.968   .     S
N41    C50     1.333   .     D
N41    C62     1.360   .     S
N42    C49     1.329   .     S
N42    C61     1.358   .     S
N42    H88     0.968   .     S
N43    C60     1.335   .     D
N43    C61     1.362   .     S
N44    C59     1.331   .     D
N44    C62     1.360   .     S
N44    H96     0.968   .     S
N45    C58     1.335   .     D
N45    C63     1.362   .     S
N46    C57     1.329   .     S
N46    C66     1.358   .     S
N46    H95     0.967   .     S
N47    C56     1.333   .     D
N47    C65     1.360   .     S
N48    C55     1.329   .     S
N48    C64     1.358   .     S
N48    H94     0.968   .     S
C49    C60     1.378   .     S
C50    C59     1.378   .     S
C51    C58     1.377   .     S
C52    C57     1.377   .     S
C53    C5      1.396   1_556 S
C53    C56     1.378   .     S
C54    C55     1.378   .     S
C59    C11     1.396   1_554 S
C61    C70     1.431   .     D
C62    C71     1.431   .     D
C63    C72     1.431   .     D
C64    C67     1.431   .     D
C65    C68     1.431   .     D
C66    C69     1.431   .     D
C67    C73     1.426   .     S
C67    C75     1.426   .     S
C68    C73     1.427   .     S
C68    C74     1.426   .     S
C69    C74     1.427   .     S
C69    C75     1.426   .     S
C70    C76     1.426   .     S
C70    C78     1.426   .     S
C71    C76     1.427   .     S
C71    C77     1.426   .     S
C72    C77     1.427   .     S
C72    C78     1.426   .     S
C73    O80     1.255   .     D
C74    O81     1.254   .     D
C75    O79     1.254   .     D
C76    O83     1.255   .     D
C77    O84     1.254   .     D
C78    O82     1.254   .     D
