data_263
_audit_creation_date              2023-09-08
_audit_creation_method            'Materials Studio'
_symmetry_space_group_name_H-M    'P1'
_symmetry_Int_Tables_number       1
_symmetry_cell_setting            triclinic
loop_
_symmetry_equiv_pos_as_xyz
  x,y,z
_cell_length_a                    19.7782
_cell_length_b                    19.7782
_cell_length_c                    3.7839
_cell_angle_alpha                 90.0000
_cell_angle_beta                  90.0000
_cell_angle_gamma                 120.0000
loop_
_atom_site_label
_atom_site_type_symbol
_atom_site_fract_x
_atom_site_fract_y
_atom_site_fract_z
_atom_site_U_iso_or_equiv
_atom_site_adp_type
_atom_site_occupancy
C1     C     0.31302   0.57863   1.05911   0.00000  Uiso   1.00
C2     C     0.42137   0.73439   1.05911   0.00000  Uiso   1.00
C3     C     0.26561   0.68698   1.05911   0.00000  Uiso   1.00
C4     C     0.24730   0.59708   1.04498   0.00000  Uiso   1.00
C5     C     0.40292   0.65022   1.04498   0.00000  Uiso   1.00
C6     C     0.34978   0.75270   1.04498   0.00000  Uiso   1.00
C7     C     0.62353   0.56908   0.41606   0.00000  Uiso   1.00
C8     C     0.43092   0.05445   0.41606   0.00000  Uiso   1.00
C9     C     0.94555   0.37647   0.41606   0.00000  Uiso   1.00
C10    C     0.74313   0.40332   0.00374   0.00000  Uiso   1.00
C11    C     0.59668   0.33981   0.00374   0.00000  Uiso   1.00
C12    C     0.66019   0.25687   0.00374   0.00000  Uiso   1.00
C13    C     0.73459   0.32278   0.01485   0.00000  Uiso   1.00
C14    C     0.67722   0.41181   0.01485   0.00000  Uiso   1.00
C15    C     0.58819   0.26541   0.01485   0.00000  Uiso   1.00
N16    N     0.55983   0.56372   0.60693   0.00000  Uiso   1.00
N17    N     0.43628   0.99611   0.60693   0.00000  Uiso   1.00
N18    N     0.00389   0.44017   0.60693   0.00000  Uiso   1.00
N19    N     0.68067   0.64833   0.32548   0.00000  Uiso   1.00
N20    N     0.35167   0.03234   0.32548   0.00000  Uiso   1.00
N21    N     0.96766   0.31933   0.32548   0.00000  Uiso   1.00
N22    N     0.65284   0.69569   0.46314   0.00000  Uiso   1.00
N23    N     0.30431   0.95715   0.46314   0.00000  Uiso   1.00
N24    N     0.04285   0.34716   0.46314   0.00000  Uiso   1.00
C25    C     0.34913   0.93019   0.63161   0.00000  Uiso   1.00
C26    C     0.06981   0.41894   0.63161   0.00000  Uiso   1.00
C27    C     0.58106   0.65087   0.63161   0.00000  Uiso   1.00
C28    C     0.67814   0.49388   0.09155   0.00000  Uiso   1.00
C29    C     0.50612   0.18426   0.09155   0.00000  Uiso   1.00
C30    C     0.81574   0.32186   0.09155   0.00000  Uiso   1.00
N31    N     0.62562   0.49612   0.30972   0.00000  Uiso   1.00
N32    N     0.50388   0.12950   0.30972   0.00000  Uiso   1.00
N33    N     0.87050   0.37438   0.30972   0.00000  Uiso   1.00
O34    O     0.52071   0.35133   0.00458   0.00000  Uiso   1.00
O35    O     0.64867   0.16938   0.00458   0.00000  Uiso   1.00
O36    O     0.83062   0.47929   0.00458   0.00000  Uiso   1.00
C37    C     0.37180   0.83355   0.96220   0.00000  Uiso   1.00
C38    C     0.16645   0.53825   0.96220   0.00000  Uiso   1.00
C39    C     0.46175   0.62820   0.96220   0.00000  Uiso   1.00
N40    N     0.32233   0.84907   0.77477   0.00000  Uiso   1.00
N41    N     0.15093   0.47326   0.77477   0.00000  Uiso   1.00
N42    N     0.52674   0.67767   0.77477   0.00000  Uiso   1.00
O43    O     0.29699   0.49590   1.08088   0.00000  Uiso   1.00
O44    O     0.50410   0.80109   1.08088   0.00000  Uiso   1.00
O45    O     0.19891   0.70301   1.08088   0.00000  Uiso   1.00
H46    H     0.68123   0.76059   0.43342   0.00000  Uiso   1.00
H47    H     0.23941   0.92064   0.43342   0.00000  Uiso   1.00
H48    H     0.07936   0.31877   0.43342   0.00000  Uiso   1.00
H49    H     0.72628   0.55127   0.02628   0.00000  Uiso   1.00
H50    H     0.44873   0.17501   0.02628   0.00000  Uiso   1.00
H51    H     0.82499   0.27372   0.02628   0.00000  Uiso   1.00
H52    H     0.46415   0.29960   0.03726   0.00000  Uiso   1.00
H53    H     0.70040   0.16455   0.03726   0.00000  Uiso   1.00
H54    H     0.83545   0.53585   0.03726   0.00000  Uiso   1.00
H55    H     0.43474   0.88375   1.02001   0.00000  Uiso   1.00
H56    H     0.11625   0.55099   1.02001   0.00000  Uiso   1.00
H57    H     0.44901   0.56526   1.02001   0.00000  Uiso   1.00
H58    H     0.24053   0.45488   1.18460   0.00000  Uiso   1.00
H59    H     0.54512   0.78565   1.18460   0.00000  Uiso   1.00
H60    H     0.21435   0.75947   1.18460   0.00000  Uiso   1.00
loop_
_geom_bond_atom_site_label_1
_geom_bond_atom_site_label_2
_geom_bond_distance
_geom_bond_site_symmetry_2
_ccdc_geom_bond_type
C1     C4      1.517   .     S
C1     C5      1.628   .     D
C1     O43     1.505   .     S
C2     C5      1.517   .     S
C2     C6      1.628   .     D
C2     O44     1.505   .     S
C3     C4      1.628   .     D
C3     C6      1.517   .     S
C3     O45     1.505   .     S
C4     C38     1.466   .     S
C5     C39     1.466   .     S
C6     C37     1.466   .     S
C7     N16     1.409   .     S
C7     N19     1.442   .     D
C7     N31     1.518   .     S
C8     N17     1.409   1_545 S
C8     N20     1.442   .     D
C8     N32     1.518   .     S
C9     N18     1.409   1_655 S
C9     N21     1.442   .     D
C9     N33     1.518   .     S
C10    C13     1.516   .     S
C10    C14     1.396   .     D
C10    O36     1.628   .     S
C11    C14     1.516   .     S
C11    C15     1.396   .     D
C11    O34     1.628   .     S
C12    C13     1.396   .     D
C12    C15     1.516   .     S
C12    O35     1.628   .     S
C13    C30     1.640   .     S
C14    C28     1.640   .     S
C15    C29     1.640   .     S
N16    C27     1.560   .     D
N17    C8      1.409   1_565 S
N17    C25     1.560   .     D
N18    C9      1.409   1_455 S
N18    C26     1.560   .     D
N19    N22     1.403   .     S
N20    N23     1.403   1_545 S
N21    N24     1.403   1_655 S
N22    C27     1.396   .     S
N22    H46     1.120   .     S
N23    N20     1.403   1_565 S
N23    C25     1.396   .     S
N23    H47     1.120   .     S
N24    N21     1.403   1_455 S
N24    C26     1.396   .     S
N24    H48     1.120   .     S
C25    N40     1.516   .     S
C26    N41     1.516   .     S
C27    N42     1.516   .     S
C28    N31     1.345   .     D
C28    H49     1.084   .     S
C29    N32     1.345   .     D
C29    H50     1.084   .     S
C30    N33     1.345   .     D
C30    H51     1.084   .     S
O34    H52     1.081   .     S
O35    H53     1.081   .     S
O36    H54     1.081   .     S
C37    N40     1.362   .     D
C37    H55     1.161   .     S
C38    N41     1.362   .     D
C38    H56     1.161   .     S
C39    N42     1.362   .     D
C39    H57     1.161   .     S
O43    H58     1.074   .     S
O44    H59     1.074   .     S
O45    H60     1.074   .     S
