data_264
_audit_creation_date              2023-09-08
_audit_creation_method            'Materials Studio'
_symmetry_space_group_name_H-M    'P1'
_symmetry_Int_Tables_number       1
_symmetry_cell_setting            triclinic
loop_
_symmetry_equiv_pos_as_xyz
  x,y,z
_cell_length_a                    34.7756
_cell_length_b                    34.1644
_cell_length_c                    6.5787
_cell_angle_alpha                 90.0000
_cell_angle_beta                  90.0000
_cell_angle_gamma                 90.0000
loop_
_atom_site_label
_atom_site_type_symbol
_atom_site_fract_x
_atom_site_fract_y
_atom_site_fract_z
_atom_site_U_iso_or_equiv
_atom_site_adp_type
_atom_site_occupancy
C1     C     0.46470   0.95740   0.98620   0.00000  Uiso   1.00
C2     C     0.43020   0.02150   0.98270   0.00000  Uiso   1.00
C3     C     0.46500   0.08400   0.98790   0.00000  Uiso   1.00
C4     C     0.42930   0.10730   1.00400   0.00000  Uiso   1.00
C5     C     0.40850   0.10760   1.18650   0.00000  Uiso   1.00
C6     C     0.37540   0.13040   1.20480   0.00000  Uiso   1.00
C7     C     0.36250   0.15330   1.04090   0.00000  Uiso   1.00
C8     C     0.38340   0.15290   0.85770   0.00000  Uiso   1.00
C9     C     0.41670   0.13020   0.83990   0.00000  Uiso   1.00
C10    C     0.32770   0.17750   1.06570   0.00000  Uiso   1.00
C11    C     0.78190   0.27550   0.92580   0.00000  Uiso   1.00
C12    C     0.76590   0.26250   0.74300   0.00000  Uiso   1.00
C13    C     0.73410   0.23750   1.11010   0.00000  Uiso   1.00
H14    H     0.40260   0.03610   0.97800   0.00000  Uiso   1.00
H15    H     0.41810   0.09040   1.31510   0.00000  Uiso   1.00
H16    H     0.35980   0.13040   1.34750   0.00000  Uiso   1.00
H17    H     0.37430   0.17020   0.72890   0.00000  Uiso   1.00
H18    H     0.43270   0.13030   0.69840   0.00000  Uiso   1.00
H19    H     0.31270   0.17630   1.20970   0.00000  Uiso   1.00
H20    H     0.77810   0.27210   0.60050   0.00000  Uiso   1.00
H21    H     0.72200   0.22900   1.25410   0.00000  Uiso   1.00
N22    N     0.31490   0.19910   0.91760   0.00000  Uiso   1.00
C23    C     0.96470   0.45740   0.98620   0.00000  Uiso   1.00
C24    C     0.93020   0.52150   0.98270   0.00000  Uiso   1.00
C25    C     0.96500   0.58400   0.98790   0.00000  Uiso   1.00
C26    C     0.92930   0.60730   1.00400   0.00000  Uiso   1.00
C27    C     0.90850   0.60760   1.18650   0.00000  Uiso   1.00
C28    C     0.87540   0.63040   1.20480   0.00000  Uiso   1.00
C29    C     0.86250   0.65330   1.04090   0.00000  Uiso   1.00
C30    C     0.88340   0.65290   0.85770   0.00000  Uiso   1.00
C31    C     0.91670   0.63020   0.83990   0.00000  Uiso   1.00
C32    C     0.82770   0.67750   1.06570   0.00000  Uiso   1.00
C33    C     0.28190   0.77550   0.92580   0.00000  Uiso   1.00
C34    C     0.26590   0.76250   0.74300   0.00000  Uiso   1.00
C35    C     0.23410   0.73750   1.11010   0.00000  Uiso   1.00
H36    H     0.90260   0.53610   0.97800   0.00000  Uiso   1.00
H37    H     0.91810   0.59040   1.31510   0.00000  Uiso   1.00
H38    H     0.85980   0.63040   1.34750   0.00000  Uiso   1.00
H39    H     0.87430   0.67020   0.72890   0.00000  Uiso   1.00
H40    H     0.93270   0.63030   0.69840   0.00000  Uiso   1.00
H41    H     0.81270   0.67630   1.20970   0.00000  Uiso   1.00
H42    H     0.27810   0.77210   0.60050   0.00000  Uiso   1.00
H43    H     0.22200   0.72900   1.25410   0.00000  Uiso   1.00
N44    N     0.81490   0.69910   0.91760   0.00000  Uiso   1.00
C45    C     0.53530   0.04260   0.98620   0.00000  Uiso   1.00
C46    C     0.56980   0.97850   0.98270   0.00000  Uiso   1.00
C47    C     0.53500   0.91600   0.98790   0.00000  Uiso   1.00
C48    C     0.57070   0.89270   1.00400   0.00000  Uiso   1.00
C49    C     0.59150   0.89240   1.18650   0.00000  Uiso   1.00
C50    C     0.62460   0.86960   1.20480   0.00000  Uiso   1.00
C51    C     0.63750   0.84670   1.04090   0.00000  Uiso   1.00
C52    C     0.61660   0.84710   0.85770   0.00000  Uiso   1.00
C53    C     0.58330   0.86980   0.83990   0.00000  Uiso   1.00
C54    C     0.67230   0.82250   1.06570   0.00000  Uiso   1.00
C55    C     0.21810   0.72450   0.92580   0.00000  Uiso   1.00
C56    C     0.23410   0.73750   0.74300   0.00000  Uiso   1.00
C57    C     0.26590   0.76250   1.11010   0.00000  Uiso   1.00
H58    H     0.59740   0.96390   0.97800   0.00000  Uiso   1.00
H59    H     0.58190   0.90960   1.31510   0.00000  Uiso   1.00
H60    H     0.64020   0.86960   1.34750   0.00000  Uiso   1.00
H61    H     0.62570   0.82980   0.72890   0.00000  Uiso   1.00
H62    H     0.56730   0.86970   0.69840   0.00000  Uiso   1.00
H63    H     0.68730   0.82370   1.20970   0.00000  Uiso   1.00
H64    H     0.22190   0.72790   0.60050   0.00000  Uiso   1.00
H65    H     0.27800   0.77100   1.25410   0.00000  Uiso   1.00
N66    N     0.68510   0.80090   0.91760   0.00000  Uiso   1.00
C67    C     0.03530   0.54260   0.98620   0.00000  Uiso   1.00
C68    C     0.06980   0.47850   0.98270   0.00000  Uiso   1.00
C69    C     0.03500   0.41600   0.98790   0.00000  Uiso   1.00
C70    C     0.07070   0.39270   1.00400   0.00000  Uiso   1.00
C71    C     0.09150   0.39240   1.18650   0.00000  Uiso   1.00
C72    C     0.12460   0.36960   1.20480   0.00000  Uiso   1.00
C73    C     0.13750   0.34670   1.04090   0.00000  Uiso   1.00
C74    C     0.11660   0.34710   0.85770   0.00000  Uiso   1.00
C75    C     0.08330   0.36980   0.83990   0.00000  Uiso   1.00
C76    C     0.17230   0.32250   1.06570   0.00000  Uiso   1.00
C77    C     0.71810   0.22450   0.92580   0.00000  Uiso   1.00
C78    C     0.73410   0.23750   0.74300   0.00000  Uiso   1.00
C79    C     0.76590   0.26250   1.11010   0.00000  Uiso   1.00
H80    H     0.09740   0.46390   0.97800   0.00000  Uiso   1.00
H81    H     0.08190   0.40960   1.31510   0.00000  Uiso   1.00
H82    H     0.14020   0.36960   1.34750   0.00000  Uiso   1.00
H83    H     0.12570   0.32980   0.72890   0.00000  Uiso   1.00
H84    H     0.06730   0.36970   0.69840   0.00000  Uiso   1.00
H85    H     0.18730   0.32370   1.20970   0.00000  Uiso   1.00
H86    H     0.72190   0.22790   0.60050   0.00000  Uiso   1.00
H87    H     0.77800   0.27100   1.25410   0.00000  Uiso   1.00
N88    N     0.18510   0.30090   0.91760   0.00000  Uiso   1.00
C89    C     0.46470   0.04260   0.98620   0.00000  Uiso   1.00
C90    C     0.43020   0.97850   0.98270   0.00000  Uiso   1.00
C91    C     0.46500   0.91600   0.98790   0.00000  Uiso   1.00
C92    C     0.42930   0.89270   1.00400   0.00000  Uiso   1.00
C93    C     0.40850   0.89240   1.18650   0.00000  Uiso   1.00
C94    C     0.37540   0.86960   1.20480   0.00000  Uiso   1.00
C95    C     0.36250   0.84670   1.04090   0.00000  Uiso   1.00
C96    C     0.38340   0.84710   0.85770   0.00000  Uiso   1.00
C97    C     0.41670   0.86980   0.83990   0.00000  Uiso   1.00
C98    C     0.32770   0.82250   1.06570   0.00000  Uiso   1.00
C99    C     0.78190   0.72450   0.92580   0.00000  Uiso   1.00
C100   C     0.76590   0.73750   0.74300   0.00000  Uiso   1.00
C101   C     0.73410   0.76250   1.11010   0.00000  Uiso   1.00
H102   H     0.40260   0.96390   0.97800   0.00000  Uiso   1.00
H103   H     0.41810   0.90960   1.31510   0.00000  Uiso   1.00
H104   H     0.35980   0.86960   1.34750   0.00000  Uiso   1.00
H105   H     0.37430   0.82980   0.72890   0.00000  Uiso   1.00
H106   H     0.43270   0.86970   0.69840   0.00000  Uiso   1.00
H107   H     0.31270   0.82370   1.20970   0.00000  Uiso   1.00
H108   H     0.77810   0.72790   0.60050   0.00000  Uiso   1.00
H109   H     0.72200   0.77100   1.25410   0.00000  Uiso   1.00
N110   N     0.31490   0.80090   0.91760   0.00000  Uiso   1.00
C111   C     0.96470   0.54260   0.98620   0.00000  Uiso   1.00
C112   C     0.93020   0.47850   0.98270   0.00000  Uiso   1.00
C113   C     0.96500   0.41600   0.98790   0.00000  Uiso   1.00
C114   C     0.92930   0.39270   1.00400   0.00000  Uiso   1.00
C115   C     0.90850   0.39240   1.18650   0.00000  Uiso   1.00
C116   C     0.87540   0.36960   1.20480   0.00000  Uiso   1.00
C117   C     0.86250   0.34670   1.04090   0.00000  Uiso   1.00
C118   C     0.88340   0.34710   0.85770   0.00000  Uiso   1.00
C119   C     0.91670   0.36980   0.83990   0.00000  Uiso   1.00
C120   C     0.82770   0.32250   1.06570   0.00000  Uiso   1.00
C121   C     0.28190   0.22450   0.92580   0.00000  Uiso   1.00
C122   C     0.26590   0.23750   0.74300   0.00000  Uiso   1.00
C123   C     0.23410   0.26250   1.11010   0.00000  Uiso   1.00
H124   H     0.90260   0.46390   0.97800   0.00000  Uiso   1.00
H125   H     0.91810   0.40960   1.31510   0.00000  Uiso   1.00
H126   H     0.85980   0.36960   1.34750   0.00000  Uiso   1.00
H127   H     0.87430   0.32980   0.72890   0.00000  Uiso   1.00
H128   H     0.93270   0.36970   0.69840   0.00000  Uiso   1.00
H129   H     0.81270   0.32370   1.20970   0.00000  Uiso   1.00
H130   H     0.27810   0.22790   0.60050   0.00000  Uiso   1.00
H131   H     0.22200   0.27100   1.25410   0.00000  Uiso   1.00
N132   N     0.81490   0.30090   0.91760   0.00000  Uiso   1.00
C133   C     0.53530   0.95740   0.98620   0.00000  Uiso   1.00
C134   C     0.56980   0.02150   0.98270   0.00000  Uiso   1.00
C135   C     0.53500   0.08400   0.98790   0.00000  Uiso   1.00
C136   C     0.57070   0.10730   1.00400   0.00000  Uiso   1.00
C137   C     0.59150   0.10760   1.18650   0.00000  Uiso   1.00
C138   C     0.62460   0.13040   1.20480   0.00000  Uiso   1.00
C139   C     0.63750   0.15330   1.04090   0.00000  Uiso   1.00
C140   C     0.61660   0.15290   0.85770   0.00000  Uiso   1.00
C141   C     0.58330   0.13020   0.83990   0.00000  Uiso   1.00
C142   C     0.67230   0.17750   1.06570   0.00000  Uiso   1.00
C143   C     0.21810   0.27550   0.92580   0.00000  Uiso   1.00
C144   C     0.23410   0.26250   0.74300   0.00000  Uiso   1.00
C145   C     0.26590   0.23750   1.11010   0.00000  Uiso   1.00
H146   H     0.59740   0.03610   0.97800   0.00000  Uiso   1.00
H147   H     0.58190   0.09040   1.31510   0.00000  Uiso   1.00
H148   H     0.64020   0.13040   1.34750   0.00000  Uiso   1.00
H149   H     0.62570   0.17020   0.72890   0.00000  Uiso   1.00
H150   H     0.56730   0.13030   0.69840   0.00000  Uiso   1.00
H151   H     0.68730   0.17630   1.20970   0.00000  Uiso   1.00
H152   H     0.22190   0.27210   0.60050   0.00000  Uiso   1.00
H153   H     0.27800   0.22900   1.25410   0.00000  Uiso   1.00
N154   N     0.68510   0.19910   0.91760   0.00000  Uiso   1.00
C155   C     0.03530   0.45740   0.98620   0.00000  Uiso   1.00
C156   C     0.06980   0.52150   0.98270   0.00000  Uiso   1.00
C157   C     0.03500   0.58400   0.98790   0.00000  Uiso   1.00
C158   C     0.07070   0.60730   1.00400   0.00000  Uiso   1.00
C159   C     0.09150   0.60760   1.18650   0.00000  Uiso   1.00
C160   C     0.12460   0.63040   1.20480   0.00000  Uiso   1.00
C161   C     0.13750   0.65330   1.04090   0.00000  Uiso   1.00
C162   C     0.11660   0.65290   0.85770   0.00000  Uiso   1.00
C163   C     0.08330   0.63020   0.83990   0.00000  Uiso   1.00
C164   C     0.17230   0.67750   1.06570   0.00000  Uiso   1.00
C165   C     0.71810   0.77550   0.92580   0.00000  Uiso   1.00
C166   C     0.73410   0.76250   0.74300   0.00000  Uiso   1.00
C167   C     0.76590   0.73750   1.11010   0.00000  Uiso   1.00
H168   H     0.09740   0.53610   0.97800   0.00000  Uiso   1.00
H169   H     0.08190   0.59040   1.31510   0.00000  Uiso   1.00
H170   H     0.14020   0.63040   1.34750   0.00000  Uiso   1.00
H171   H     0.12570   0.67020   0.72890   0.00000  Uiso   1.00
H172   H     0.06730   0.63030   0.69840   0.00000  Uiso   1.00
H173   H     0.18730   0.67630   1.20970   0.00000  Uiso   1.00
H174   H     0.72190   0.77210   0.60050   0.00000  Uiso   1.00
H175   H     0.77800   0.72900   1.25410   0.00000  Uiso   1.00
N176   N     0.18510   0.69910   0.91760   0.00000  Uiso   1.00
C177   C     0.50000   0.10410   0.98580   0.00000  Uiso   1.00
C178   C     0.50000   0.97810   0.98540   0.00000  Uiso   1.00
H179   H     0.50000   0.13590   0.99030   0.00000  Uiso   1.00
C180   C     0.00000   0.60410   0.98580   0.00000  Uiso   1.00
C181   C     0.00000   0.47810   0.98540   0.00000  Uiso   1.00
H182   H     0.00000   0.63590   0.99030   0.00000  Uiso   1.00
C183   C     0.50000   0.89590   0.98580   0.00000  Uiso   1.00
C184   C     0.50000   0.02190   0.98540   0.00000  Uiso   1.00
H185   H     0.50000   0.86410   0.99030   0.00000  Uiso   1.00
C186   C     0.00000   0.39590   0.98580   0.00000  Uiso   1.00
C187   C     0.00000   0.52190   0.98540   0.00000  Uiso   1.00
H188   H     0.00000   0.36410   0.99030   0.00000  Uiso   1.00
loop_
_geom_bond_atom_site_label_1
_geom_bond_atom_site_label_2
_geom_bond_distance
_geom_bond_site_symmetry_2
_ccdc_geom_bond_type
C1     C90     1.400   .     S
C1     C91     1.414   .     S
C1     C178    1.417   .     D
C2     H14     1.082   .     S
C2     C89     1.400   .     S
C2     C90     1.469   1_545 D
C3     C4      1.479   .     S
C3     C89     1.414   .     D
C3     C177    1.398   .     S
C4     C5      1.402   .     S
C4     C9      1.403   .     D
C5     C6      1.395   .     D
C5     H15     1.083   .     S
C6     C7      1.406   .     S
C6     H16     1.084   .     S
C7     C8      1.407   .     D
C7     C10     1.475   .     S
C8     C9      1.399   .     S
C8     H17     1.080   .     S
C9     H18     1.085   .     S
C10    H19     1.082   .     S
C10    N22     1.301   .     D
C11    C12     1.398   .     S
C11    C79     1.406   .     D
C11    N132    1.440   .     S
C12    H20     1.080   .     S
C12    C78     1.397   .     D
C13    H21     1.076   .     S
C13    C77     1.406   .     D
C13    C79     1.397   .     S
N22    C121    1.440   .     S
C23    C112    1.400   .     S
C23    C113    1.414   .     D
C23    C181    1.417   1_655 S
C24    H36     1.082   .     S
C24    C111    1.400   .     S
C24    C112    1.469   .     D
C25    C26     1.479   .     S
C25    C111    1.414   .     D
C25    C180    1.398   1_655 S
C26    C27     1.402   .     D
C26    C31     1.403   .     S
C27    C28     1.395   .     S
C27    H37     1.083   .     S
C28    C29     1.406   .     D
C28    H38     1.084   .     S
C29    C30     1.407   .     S
C29    C32     1.475   .     S
C30    C31     1.399   .     D
C30    H39     1.080   .     S
C31    H40     1.085   .     S
C32    H41     1.082   .     S
C32    N44     1.301   .     D
C33    C34     1.398   .     D
C33    C57     1.406   .     S
C33    N110    1.440   .     S
C34    H42     1.080   .     S
C34    C56     1.397   .     S
C35    H43     1.076   .     S
C35    C55     1.406   .     S
C35    C57     1.397   .     D
N44    C99     1.440   .     S
C45    C134    1.400   .     S
C45    C135    1.414   .     S
C45    C184    1.417   .     D
C46    H58     1.082   .     S
C46    C133    1.400   .     S
C46    C134    1.469   1_565 D
C47    C48     1.479   .     S
C47    C133    1.414   .     D
C47    C183    1.398   .     S
C48    C49     1.402   .     D
C48    C53     1.403   .     S
C49    C50     1.395   .     S
C49    H59     1.083   .     S
C50    C51     1.406   .     D
C50    H60     1.084   .     S
C51    C52     1.407   .     S
C51    C54     1.475   .     S
C52    C53     1.399   .     D
C52    H61     1.080   .     S
C53    H62     1.085   .     S
C54    H63     1.082   .     S
C54    N66     1.301   .     D
C55    C56     1.398   .     D
C55    N176    1.440   .     S
C56    H64     1.080   .     S
C57    H65     1.076   .     S
N66    C165    1.440   .     S
C67    C156    1.400   .     S
C67    C157    1.414   .     S
C67    C187    1.417   .     D
C68    H80     1.082   .     S
C68    C155    1.400   .     S
C68    C156    1.469   .     D
C69    C70     1.479   .     S
C69    C155    1.414   .     S
C69    C186    1.398   .     D
C70    C71     1.402   .     S
C70    C75     1.403   .     D
C71    C72     1.395   .     D
C71    H81     1.083   .     S
C72    C73     1.406   .     S
C72    H82     1.084   .     S
C73    C74     1.407   .     D
C73    C76     1.475   .     S
C74    C75     1.399   .     S
C74    H83     1.080   .     S
C75    H84     1.085   .     S
C76    H85     1.082   .     S
C76    N88     1.301   .     D
C77    C78     1.398   .     S
C77    N154    1.440   .     S
C78    H86     1.080   .     S
C79    H87     1.076   .     S
N88    C143    1.440   .     S
C89    C184    1.417   .     S
C90    C2      1.469   1_565 D
C90    H102    1.082   .     S
C91    C92     1.479   .     S
C91    C183    1.398   .     D
C92    C93     1.402   .     D
C92    C97     1.403   .     S
C93    C94     1.395   .     S
C93    H103    1.083   .     S
C94    C95     1.406   .     D
C94    H104    1.084   .     S
C95    C96     1.407   .     S
C95    C98     1.475   .     S
C96    C97     1.399   .     D
C96    H105    1.080   .     S
C97    H106    1.085   .     S
C98    H107    1.082   .     S
C98    N110    1.301   .     D
C99    C100    1.398   .     S
C99    C167    1.406   .     D
C100   H108    1.080   .     S
C100   C166    1.397   .     D
C101   H109    1.076   .     S
C101   C165    1.406   .     D
C101   C167    1.397   .     S
C111   C187    1.417   1_655 S
C112   H124    1.082   .     S
C113   C114    1.479   .     S
C113   C186    1.398   1_655 S
C114   C115    1.402   .     D
C114   C119    1.403   .     S
C115   C116    1.395   .     S
C115   H125    1.083   .     S
C116   C117    1.406   .     D
C116   H126    1.084   .     S
C117   C118    1.407   .     S
C117   C120    1.475   .     S
C118   C119    1.399   .     D
C118   H127    1.080   .     S
C119   H128    1.085   .     S
C120   H129    1.082   .     S
C120   N132    1.301   .     D
C121   C122    1.398   .     S
C121   C145    1.406   .     D
C122   H130    1.080   .     S
C122   C144    1.397   .     D
C123   H131    1.076   .     S
C123   C143    1.406   .     D
C123   C145    1.397   .     S
C133   C178    1.417   .     S
C134   C46     1.469   1_545 D
C134   H146    1.082   .     S
C135   C136    1.479   .     S
C135   C177    1.398   .     D
C136   C137    1.402   .     D
C136   C141    1.403   .     S
C137   C138    1.395   .     S
C137   H147    1.083   .     S
C138   C139    1.406   .     D
C138   H148    1.084   .     S
C139   C140    1.407   .     S
C139   C142    1.475   .     S
C140   C141    1.399   .     D
C140   H149    1.080   .     S
C141   H150    1.085   .     S
C142   H151    1.082   .     S
C142   N154    1.301   .     D
C143   C144    1.398   .     S
C144   H152    1.080   .     S
C145   H153    1.076   .     S
C155   C181    1.417   .     D
C156   H168    1.082   .     S
C157   C158    1.479   .     S
C157   C180    1.398   .     D
C158   C159    1.402   .     D
C158   C163    1.403   .     S
C159   C160    1.395   .     S
C159   H169    1.083   .     S
C160   C161    1.406   .     D
C160   H170    1.084   .     S
C161   C162    1.407   .     S
C161   C164    1.475   .     S
C162   C163    1.399   .     D
C162   H171    1.080   .     S
C163   H172    1.085   .     S
C164   H173    1.082   .     S
C164   N176    1.301   .     D
C165   C166    1.398   .     S
C166   H174    1.080   .     S
C167   H175    1.076   .     S
C177   H179    1.087   .     S
C178   C184    1.496   1_565 S
C180   C25     1.398   1_455 S
C180   H182    1.087   .     S
C181   C23     1.417   1_455 S
C181   C187    1.496   .     S
C183   H185    1.087   .     S
C184   C178    1.496   1_545 S
C186   C113    1.398   1_455 S
C186   H188    1.087   .     S
C187   C111    1.417   1_455 S
