data_265
_audit_creation_date              2023-09-08
_audit_creation_method            'Materials Studio'
_symmetry_space_group_name_H-M    'P1'
_symmetry_Int_Tables_number       1
_symmetry_cell_setting            triclinic
loop_
_symmetry_equiv_pos_as_xyz
  x,y,z
_cell_length_a                    30.9184
_cell_length_b                    32.4798
_cell_length_c                    3.6721
_cell_angle_alpha                 90.0000
_cell_angle_beta                  90.0000
_cell_angle_gamma                 90.0000
loop_
_atom_site_label
_atom_site_type_symbol
_atom_site_fract_x
_atom_site_fract_y
_atom_site_fract_z
_atom_site_U_iso_or_equiv
_atom_site_adp_type
_atom_site_occupancy
C1     C     0.46128   0.96237  -0.02413   0.00000  Uiso   1.00
C2     C     0.42378   0.01833  -0.01851   0.00000  Uiso   1.00
C3     C     0.46118   0.07516  -0.02594   0.00000  Uiso   1.00
C4     C     0.42472   0.10257  -0.08055   0.00000  Uiso   1.00
C5     C     0.42702   0.14315   0.05468   0.00000  Uiso   1.00
C6     C     0.39144   0.16608   0.02905   0.00000  Uiso   1.00
C7     C     0.35353   0.14724  -0.10027   0.00000  Uiso   1.00
C8     C     0.35051   0.10857  -0.21794   0.00000  Uiso   1.00
C9     C     0.38590   0.08891  -0.24927   0.00000  Uiso   1.00
C10    C     0.31625   0.16662  -0.12705   0.00000  Uiso   1.00
C11    C     0.78254   0.27446   0.01006   0.00000  Uiso   1.00
C12    C     0.79053   0.23539  -0.09588   0.00000  Uiso   1.00
N13    N     0.31747   0.20269  -0.01656   0.00000  Uiso   1.00
C14    C     0.24203   0.78988  -0.10384   0.00000  Uiso   1.00
H15    H     0.39439   0.02848   0.08296   0.00000  Uiso   1.00
H16    H     0.45410   0.15645   0.22067   0.00000  Uiso   1.00
H17    H     0.39245   0.19665   0.15377   0.00000  Uiso   1.00
H18    H     0.32165   0.09471  -0.34545   0.00000  Uiso   1.00
H19    H     0.37971   0.06310  -0.42584   0.00000  Uiso   1.00
H20    H     0.28882   0.15130  -0.25692   0.00000  Uiso   1.00
H21    H     0.82168   0.22548  -0.19787   0.00000  Uiso   1.00
H22    H     0.23433   0.81994  -0.20690   0.00000  Uiso   1.00
C23    C     0.53872   0.03763  -0.02413   0.00000  Uiso   1.00
C24    C     0.57622   0.98167  -0.01851   0.00000  Uiso   1.00
C25    C     0.53882   0.92484  -0.02594   0.00000  Uiso   1.00
C26    C     0.57528   0.89743  -0.08055   0.00000  Uiso   1.00
C27    C     0.57298   0.85685   0.05468   0.00000  Uiso   1.00
C28    C     0.60856   0.83392   0.02905   0.00000  Uiso   1.00
C29    C     0.64647   0.85276  -0.10027   0.00000  Uiso   1.00
C30    C     0.64949   0.89143  -0.21794   0.00000  Uiso   1.00
C31    C     0.61410   0.91109  -0.24927   0.00000  Uiso   1.00
C32    C     0.68375   0.83338  -0.12705   0.00000  Uiso   1.00
C33    C     0.21746   0.72554   0.01006   0.00000  Uiso   1.00
C34    C     0.20947   0.76461  -0.09588   0.00000  Uiso   1.00
N35    N     0.68253   0.79731  -0.01656   0.00000  Uiso   1.00
C36    C     0.75797   0.21012  -0.10384   0.00000  Uiso   1.00
H37    H     0.60561   0.97152   0.08296   0.00000  Uiso   1.00
H38    H     0.54590   0.84355   0.22067   0.00000  Uiso   1.00
H39    H     0.60755   0.80335   0.15377   0.00000  Uiso   1.00
H40    H     0.67835   0.90529  -0.34545   0.00000  Uiso   1.00
H41    H     0.62029   0.93690  -0.42584   0.00000  Uiso   1.00
H42    H     0.71118   0.84870  -0.25692   0.00000  Uiso   1.00
H43    H     0.17832   0.77452  -0.19787   0.00000  Uiso   1.00
H44    H     0.76567   0.18006  -0.20690   0.00000  Uiso   1.00
C45    C     0.03872   0.46237   0.02413   0.00000  Uiso   1.00
C46    C     0.07622   0.51833   0.01851   0.00000  Uiso   1.00
C47    C     0.03882   0.57516   0.02594   0.00000  Uiso   1.00
C48    C     0.07528   0.60257   0.08055   0.00000  Uiso   1.00
C49    C     0.07298   0.64315  -0.05468   0.00000  Uiso   1.00
C50    C     0.10856   0.66608  -0.02905   0.00000  Uiso   1.00
C51    C     0.14647   0.64724   0.10027   0.00000  Uiso   1.00
C52    C     0.14949   0.60857   0.21794   0.00000  Uiso   1.00
C53    C     0.11410   0.58891   0.24927   0.00000  Uiso   1.00
C54    C     0.18375   0.66662   0.12705   0.00000  Uiso   1.00
C55    C     0.71746   0.77446  -0.01006   0.00000  Uiso   1.00
C56    C     0.70947   0.73539   0.09588   0.00000  Uiso   1.00
N57    N     0.18253   0.70269   0.01656   0.00000  Uiso   1.00
C58    C     0.25797   0.28988   0.10384   0.00000  Uiso   1.00
H59    H     0.10561   0.52848  -0.08296   0.00000  Uiso   1.00
H60    H     0.04590   0.65645  -0.22067   0.00000  Uiso   1.00
H61    H     0.10755   0.69665  -0.15377   0.00000  Uiso   1.00
H62    H     0.17835   0.59471   0.34545   0.00000  Uiso   1.00
H63    H     0.12029   0.56310   0.42584   0.00000  Uiso   1.00
H64    H     0.21118   0.65130   0.25692   0.00000  Uiso   1.00
H65    H     0.67832   0.72548   0.19787   0.00000  Uiso   1.00
H66    H     0.26567   0.31994   0.20690   0.00000  Uiso   1.00
C67    C     0.96128   0.53763   0.02413   0.00000  Uiso   1.00
C68    C     0.92378   0.48167   0.01851   0.00000  Uiso   1.00
C69    C     0.96118   0.42484   0.02594   0.00000  Uiso   1.00
C70    C     0.92472   0.39743   0.08055   0.00000  Uiso   1.00
C71    C     0.92702   0.35685  -0.05468   0.00000  Uiso   1.00
C72    C     0.89144   0.33392  -0.02905   0.00000  Uiso   1.00
C73    C     0.85353   0.35276   0.10027   0.00000  Uiso   1.00
C74    C     0.85051   0.39143   0.21794   0.00000  Uiso   1.00
C75    C     0.88590   0.41109   0.24927   0.00000  Uiso   1.00
C76    C     0.81625   0.33338   0.12705   0.00000  Uiso   1.00
C77    C     0.28254   0.22554  -0.01006   0.00000  Uiso   1.00
C78    C     0.29053   0.26461   0.09588   0.00000  Uiso   1.00
N79    N     0.81747   0.29731   0.01656   0.00000  Uiso   1.00
C80    C     0.74203   0.71012   0.10384   0.00000  Uiso   1.00
H81    H     0.89439   0.47152  -0.08296   0.00000  Uiso   1.00
H82    H     0.95410   0.34355  -0.22067   0.00000  Uiso   1.00
H83    H     0.89245   0.30335  -0.15377   0.00000  Uiso   1.00
H84    H     0.82165   0.40529   0.34545   0.00000  Uiso   1.00
H85    H     0.87971   0.43690   0.42584   0.00000  Uiso   1.00
H86    H     0.78882   0.34870   0.25692   0.00000  Uiso   1.00
H87    H     0.32168   0.27452   0.19787   0.00000  Uiso   1.00
H88    H     0.73433   0.68006   0.20690   0.00000  Uiso   1.00
C89    C     0.03872   0.53763   0.02413   0.00000  Uiso   1.00
C90    C     0.07622   0.48167   0.01851   0.00000  Uiso   1.00
C91    C     0.03882   0.42484   0.02594   0.00000  Uiso   1.00
C92    C     0.07528   0.39743   0.08055   0.00000  Uiso   1.00
C93    C     0.07298   0.35685  -0.05468   0.00000  Uiso   1.00
C94    C     0.10856   0.33392  -0.02905   0.00000  Uiso   1.00
C95    C     0.14647   0.35276   0.10027   0.00000  Uiso   1.00
C96    C     0.14949   0.39143   0.21794   0.00000  Uiso   1.00
C97    C     0.11410   0.41109   0.24927   0.00000  Uiso   1.00
C98    C     0.18375   0.33338   0.12705   0.00000  Uiso   1.00
C99    C     0.71746   0.22554  -0.01006   0.00000  Uiso   1.00
C100   C     0.70947   0.26461   0.09588   0.00000  Uiso   1.00
N101   N     0.18253   0.29731   0.01656   0.00000  Uiso   1.00
C102   C     0.25797   0.71012   0.10384   0.00000  Uiso   1.00
H103   H     0.10561   0.47152  -0.08296   0.00000  Uiso   1.00
H104   H     0.04590   0.34355  -0.22067   0.00000  Uiso   1.00
H105   H     0.10755   0.30335  -0.15377   0.00000  Uiso   1.00
H106   H     0.17835   0.40529   0.34545   0.00000  Uiso   1.00
H107   H     0.12029   0.43690   0.42584   0.00000  Uiso   1.00
H108   H     0.21118   0.34870   0.25692   0.00000  Uiso   1.00
H109   H     0.67832   0.27452   0.19787   0.00000  Uiso   1.00
H110   H     0.26567   0.68006   0.20690   0.00000  Uiso   1.00
C111   C     0.96128   0.46237   0.02413   0.00000  Uiso   1.00
C112   C     0.92378   0.51833   0.01851   0.00000  Uiso   1.00
C113   C     0.96118   0.57516   0.02594   0.00000  Uiso   1.00
C114   C     0.92472   0.60257   0.08055   0.00000  Uiso   1.00
C115   C     0.92702   0.64315  -0.05468   0.00000  Uiso   1.00
C116   C     0.89144   0.66608  -0.02905   0.00000  Uiso   1.00
C117   C     0.85353   0.64724   0.10027   0.00000  Uiso   1.00
C118   C     0.85051   0.60857   0.21794   0.00000  Uiso   1.00
C119   C     0.88590   0.58891   0.24927   0.00000  Uiso   1.00
C120   C     0.81625   0.66662   0.12705   0.00000  Uiso   1.00
C121   C     0.28254   0.77446  -0.01006   0.00000  Uiso   1.00
C122   C     0.29053   0.73539   0.09588   0.00000  Uiso   1.00
N123   N     0.81747   0.70269   0.01656   0.00000  Uiso   1.00
C124   C     0.74203   0.28988   0.10384   0.00000  Uiso   1.00
H125   H     0.89439   0.52848  -0.08296   0.00000  Uiso   1.00
H126   H     0.95410   0.65645  -0.22067   0.00000  Uiso   1.00
H127   H     0.89245   0.69665  -0.15377   0.00000  Uiso   1.00
H128   H     0.82165   0.59471   0.34545   0.00000  Uiso   1.00
H129   H     0.87971   0.56310   0.42584   0.00000  Uiso   1.00
H130   H     0.78882   0.65130   0.25692   0.00000  Uiso   1.00
H131   H     0.32168   0.72548   0.19787   0.00000  Uiso   1.00
H132   H     0.73433   0.31994   0.20690   0.00000  Uiso   1.00
C133   C     0.46128   0.03763  -0.02413   0.00000  Uiso   1.00
C134   C     0.42378   0.98167  -0.01851   0.00000  Uiso   1.00
C135   C     0.46118   0.92484  -0.02594   0.00000  Uiso   1.00
C136   C     0.42472   0.89743  -0.08055   0.00000  Uiso   1.00
C137   C     0.42702   0.85685   0.05468   0.00000  Uiso   1.00
C138   C     0.39144   0.83392   0.02905   0.00000  Uiso   1.00
C139   C     0.35353   0.85276  -0.10027   0.00000  Uiso   1.00
C140   C     0.35051   0.89143  -0.21794   0.00000  Uiso   1.00
C141   C     0.38590   0.91109  -0.24927   0.00000  Uiso   1.00
C142   C     0.31625   0.83338  -0.12705   0.00000  Uiso   1.00
C143   C     0.78254   0.72554   0.01006   0.00000  Uiso   1.00
C144   C     0.79053   0.76461  -0.09588   0.00000  Uiso   1.00
N145   N     0.31747   0.79731  -0.01656   0.00000  Uiso   1.00
C146   C     0.24203   0.21012  -0.10384   0.00000  Uiso   1.00
H147   H     0.39439   0.97152   0.08296   0.00000  Uiso   1.00
H148   H     0.45410   0.84355   0.22067   0.00000  Uiso   1.00
H149   H     0.39245   0.80335   0.15377   0.00000  Uiso   1.00
H150   H     0.32165   0.90529  -0.34545   0.00000  Uiso   1.00
H151   H     0.37971   0.93690  -0.42584   0.00000  Uiso   1.00
H152   H     0.28882   0.84870  -0.25692   0.00000  Uiso   1.00
H153   H     0.82168   0.77452  -0.19787   0.00000  Uiso   1.00
H154   H     0.23433   0.18006  -0.20690   0.00000  Uiso   1.00
C155   C     0.53872   0.96237  -0.02413   0.00000  Uiso   1.00
C156   C     0.57622   0.01833  -0.01851   0.00000  Uiso   1.00
C157   C     0.53882   0.07516  -0.02594   0.00000  Uiso   1.00
C158   C     0.57528   0.10257  -0.08055   0.00000  Uiso   1.00
C159   C     0.57298   0.14315   0.05468   0.00000  Uiso   1.00
C160   C     0.60856   0.16608   0.02905   0.00000  Uiso   1.00
C161   C     0.64647   0.14724  -0.10027   0.00000  Uiso   1.00
C162   C     0.64949   0.10857  -0.21794   0.00000  Uiso   1.00
C163   C     0.61410   0.08891  -0.24927   0.00000  Uiso   1.00
C164   C     0.68375   0.16662  -0.12705   0.00000  Uiso   1.00
C165   C     0.21746   0.27446   0.01006   0.00000  Uiso   1.00
C166   C     0.20947   0.23539  -0.09588   0.00000  Uiso   1.00
N167   N     0.68253   0.20269  -0.01656   0.00000  Uiso   1.00
C168   C     0.75797   0.78988  -0.10384   0.00000  Uiso   1.00
H169   H     0.60561   0.02848   0.08296   0.00000  Uiso   1.00
H170   H     0.54590   0.15645   0.22067   0.00000  Uiso   1.00
H171   H     0.60755   0.19665   0.15377   0.00000  Uiso   1.00
H172   H     0.67835   0.09471  -0.34545   0.00000  Uiso   1.00
H173   H     0.62029   0.06310  -0.42584   0.00000  Uiso   1.00
H174   H     0.71118   0.15130  -0.25692   0.00000  Uiso   1.00
H175   H     0.17832   0.22548  -0.19787   0.00000  Uiso   1.00
H176   H     0.76567   0.81994  -0.20690   0.00000  Uiso   1.00
C177   C     0.50000   0.09261  -0.02666   0.00000  Uiso   1.00
C178   C     0.50000   0.98114  -0.02493   0.00000  Uiso   1.00
C179   C     0.50000   0.90739  -0.02666   0.00000  Uiso   1.00
C180   C     0.50000   0.01886  -0.02493   0.00000  Uiso   1.00
C181   C     0.00000   0.59261   0.02666   0.00000  Uiso   1.00
C182   C     0.00000   0.48114   0.02493   0.00000  Uiso   1.00
C183   C     0.00000   0.40739   0.02666   0.00000  Uiso   1.00
C184   C     0.00000   0.51886   0.02493   0.00000  Uiso   1.00
H185   H     0.00000   0.62365   0.11172   0.00000  Uiso   1.00
H186   H     0.00000   0.37635   0.11172   0.00000  Uiso   1.00
H187   H     0.50000   0.12365  -0.11172   0.00000  Uiso   1.00
H188   H     0.50000   0.87635  -0.11172   0.00000  Uiso   1.00
loop_
_geom_bond_atom_site_label_1
_geom_bond_atom_site_label_2
_geom_bond_distance
_geom_bond_site_symmetry_2
_ccdc_geom_bond_type
C1     C134    1.318   .     S
C1     C135    1.219   .     S
C1     C178    1.343   .     D
C2     H15     1.036   .     S
C2     C133    1.318   .     S
C2     C134    1.191   1_545 D
C3     C4      1.450   .     S
C3     C133    1.219   .     S
C3     C177    1.327   .     D
C4     C5      1.410   .     S
C4     C9      1.422   .     D
C5     C6      1.332   .     D
C5     H16     1.122   .     S
C6     C7      1.405   .     S
C6     H17     1.094   .     S
C7     C8      1.332   .     D
C7     C10     1.317   .     S
C8     C9      1.272   .     S
C8     H18     1.104   .     S
C9     H19     1.077   .     S
C10    N13     1.240   .     D
C10    H20     1.093   .     S
C11    C12     1.350   .     D
C11    N79     1.311   .     S
C11    C124    1.392   .     S
C12    H21     1.082   .     S
C12    C36     1.299   .     S
N13    C77     1.311   .     S
C14    H22     1.074   .     S
C14    C34     1.299   .     S
C14    C121    1.392   .     D
C23    C156    1.318   .     S
C23    C157    1.219   .     D
C23    C180    1.343   .     S
C24    H37     1.036   .     S
C24    C155    1.318   .     S
C24    C156    1.191   1_565 D
C25    C26     1.450   .     S
C25    C155    1.219   .     D
C25    C179    1.327   .     S
C26    C27     1.410   .     D
C26    C31     1.422   .     S
C27    C28     1.332   .     S
C27    H38     1.122   .     S
C28    C29     1.405   .     D
C28    H39     1.094   .     S
C29    C30     1.332   .     S
C29    C32     1.317   .     S
C30    C31     1.272   .     D
C30    H40     1.104   .     S
C31    H41     1.077   .     S
C32    N35     1.240   .     D
C32    H42     1.093   .     S
C33    C34     1.350   .     D
C33    N57     1.311   .     S
C33    C102    1.392   .     S
C34    H43     1.082   .     S
N35    C55     1.311   .     S
C36    H44     1.074   .     S
C36    C99     1.392   .     D
C45    C90     1.318   .     S
C45    C91     1.219   .     D
C45    C182    1.343   .     S
C46    H59     1.036   .     S
C46    C89     1.318   .     S
C46    C90     1.191   .     D
C47    C48     1.450   .     S
C47    C89     1.219   .     S
C47    C181    1.327   .     D
C48    C49     1.410   .     D
C48    C53     1.422   .     S
C49    C50     1.332   .     S
C49    H60     1.122   .     S
C50    C51     1.405   .     D
C50    H61     1.094   .     S
C51    C52     1.332   .     S
C51    C54     1.317   .     S
C52    C53     1.272   .     D
C52    H62     1.104   .     S
C53    H63     1.077   .     S
C54    N57     1.240   .     D
C54    H64     1.093   .     S
C55    C56     1.350   .     D
C55    C168    1.392   .     S
C56    H65     1.082   .     S
C56    C80     1.299   .     S
C58    H66     1.074   .     S
C58    C78     1.299   .     D
C58    C165    1.392   .     S
C67    C112    1.318   .     S
C67    C113    1.219   .     D
C67    C184    1.343   1_655 S
C68    H81     1.036   .     S
C68    C111    1.318   .     S
C68    C112    1.191   .     D
C69    C70     1.450   .     S
C69    C111    1.219   .     S
C69    C183    1.327   1_655 D
C70    C71     1.410   .     D
C70    C75     1.422   .     S
C71    C72     1.332   .     S
C71    H82     1.122   .     S
C72    C73     1.405   .     D
C72    H83     1.094   .     S
C73    C74     1.332   .     S
C73    C76     1.317   .     S
C74    C75     1.272   .     D
C74    H84     1.104   .     S
C75    H85     1.077   .     S
C76    N79     1.240   .     D
C76    H86     1.093   .     S
C77    C78     1.350   .     S
C77    C146    1.392   .     D
C78    H87     1.082   .     S
C80    H88     1.074   .     S
C80    C143    1.392   .     D
C89    C184    1.343   .     D
C90    H103    1.036   .     S
C91    C92     1.450   .     S
C91    C183    1.327   .     S
C92    C93     1.410   .     S
C92    C97     1.422   .     D
C93    C94     1.332   .     D
C93    H104    1.122   .     S
C94    C95     1.405   .     S
C94    H105    1.094   .     S
C95    C96     1.332   .     D
C95    C98     1.317   .     S
C96    C97     1.272   .     S
C96    H106    1.104   .     S
C97    H107    1.077   .     S
C98    N101    1.240   .     D
C98    H108    1.093   .     S
C99    C100    1.350   .     S
C99    N167    1.311   .     S
C100   H109    1.082   .     S
C100   C124    1.299   .     D
N101   C165    1.311   .     S
C102   H110    1.074   .     S
C102   C122    1.299   .     D
C111   C182    1.343   1_655 D
C112   H125    1.036   .     S
C113   C114    1.450   .     S
C113   C181    1.327   1_655 S
C114   C115    1.410   .     D
C114   C119    1.422   .     S
C115   C116    1.332   .     S
C115   H126    1.122   .     S
C116   C117    1.405   .     D
C116   H127    1.094   .     S
C117   C118    1.332   .     S
C117   C120    1.317   .     S
C118   C119    1.272   .     D
C118   H128    1.104   .     S
C119   H129    1.077   .     S
C120   N123    1.240   .     D
C120   H130    1.093   .     S
C121   C122    1.350   .     S
C121   N145    1.311   .     S
C122   H131    1.082   .     S
N123   C143    1.311   .     S
C124   H132    1.074   .     S
C133   C180    1.343   .     D
C134   C2      1.191   1_565 D
C134   H147    1.036   .     S
C135   C136    1.450   .     S
C135   C179    1.327   .     D
C136   C137    1.410   .     D
C136   C141    1.422   .     S
C137   C138    1.332   .     S
C137   H148    1.122   .     S
C138   C139    1.405   .     D
C138   H149    1.094   .     S
C139   C140    1.332   .     S
C139   C142    1.317   .     S
C140   C141    1.272   .     D
C140   H150    1.104   .     S
C141   H151    1.077   .     S
C142   N145    1.240   .     D
C142   H152    1.093   .     S
C143   C144    1.350   .     S
C144   H153    1.082   .     S
C144   C168    1.299   .     D
C146   H154    1.074   .     S
C146   C166    1.299   .     S
C155   C178    1.343   .     S
C156   C24     1.191   1_545 D
C156   H169    1.036   .     S
C157   C158    1.450   .     S
C157   C177    1.327   .     S
C158   C159    1.410   .     D
C158   C163    1.422   .     S
C159   C160    1.332   .     S
C159   H170    1.122   .     S
C160   C161    1.405   .     D
C160   H171    1.094   .     S
C161   C162    1.332   .     S
C161   C164    1.317   .     S
C162   C163    1.272   .     D
C162   H172    1.104   .     S
C163   H173    1.077   .     S
C164   N167    1.240   .     D
C164   H174    1.093   .     S
C165   C166    1.350   .     D
C166   H175    1.082   .     S
C168   H176    1.074   .     S
C177   H187    1.055   .     S
C178   C180    1.225   1_565 S
C179   H188    1.055   .     S
C180   C178    1.225   1_545 S
C181   C113    1.327   1_455 S
C181   H185    1.055   .     S
C182   C111    1.343   1_455 D
C182   C184    1.225   .     S
C183   C69     1.327   1_455 D
C183   H186    1.055   .     S
C184   C67     1.343   1_455 S
