data_266
_audit_creation_date              2023-09-08
_audit_creation_method            'Materials Studio'
_symmetry_space_group_name_H-M    'P1'
_symmetry_Int_Tables_number       1
_symmetry_cell_setting            triclinic
loop_
_symmetry_equiv_pos_as_xyz
  x,y,z
_cell_length_a                    27.9000
_cell_length_b                    27.9000
_cell_length_c                    3.7800
_cell_angle_alpha                 90.0000
_cell_angle_beta                  90.0000
_cell_angle_gamma                 120.0000
loop_
_atom_site_label
_atom_site_type_symbol
_atom_site_fract_x
_atom_site_fract_y
_atom_site_fract_z
_atom_site_U_iso_or_equiv
_atom_site_adp_type
_atom_site_occupancy
O1     O     0.54879  -0.69603   0.01495   0.00000  Uiso   1.00
O2     O     0.42186  -1.33695   0.01464   0.00000  Uiso   1.00
O3     O     0.30065  -1.26321   0.01450   0.00000  Uiso   1.00
O4     O     0.22780  -1.45823   0.01417   0.00000  Uiso   1.00
O5     O     0.74422  -0.58106   0.01398   0.00000  Uiso   1.00
H6     H     0.55578  -0.65359   0.01292   0.00000  Uiso   1.00
H7     H     0.34182  -1.22716   0.01130   0.00000  Uiso   1.00
C8     C     0.30825  -1.30664   0.01124   0.00000  Uiso   1.00
H9     H     0.41638  -1.37894   0.01113   0.00000  Uiso   1.00
C10    C     0.27100  -1.40744   0.01107   0.00000  Uiso   1.00
C11    C     0.37125  -1.34409   0.01105   0.00000  Uiso   1.00
H12    H     0.19095  -1.45280   0.01094   0.00000  Uiso   1.00
C13    C     0.26164  -1.36151   0.00971   0.00000  Uiso   1.00
C14    C     0.36345  -1.29712   0.00965   0.00000  Uiso   1.00
C15    C     0.32567  -1.39938   0.00957   0.00000  Uiso   1.00
H16    H     0.77932  -0.58850   0.00947   0.00000  Uiso   1.00
C17    C     0.59860  -0.69087   0.00784   0.00000  Uiso   1.00
C18    C     0.64569  -0.63634   0.00713   0.00000  Uiso   1.00
C19    C     0.69944  -0.63092   0.00689   0.00000  Uiso   1.00
H20    H     0.51632  -0.79676   0.00621   0.00000  Uiso   1.00
N21    N     0.58987  -0.59259   0.00620   0.00000  Uiso   1.00
N22    N     0.16296  -1.42102   0.00548   0.00000  Uiso   1.00
N23    N     0.38455  -1.43956   0.00518   0.00000  Uiso   1.00
N24    N     0.40433  -1.19781   0.00517   0.00000  Uiso   1.00
C25    C     0.20651  -1.37076   0.00516   0.00000  Uiso   1.00
C26    C     0.33452  -1.44569   0.00491   0.00000  Uiso   1.00
C27    C     0.40993  -1.24201   0.00473   0.00000  Uiso   1.00
C28    C     0.63907  -0.58851   0.00435   0.00000  Uiso   1.00
N29    N     0.80556  -0.62314   0.00204   0.00000  Uiso   1.00
C30    C     0.58106  -0.54710   0.00189   0.00000  Uiso   1.00
C31    C     0.55707  -0.79379   0.00097   0.00000  Uiso   1.00
C32    C     0.10835  -1.43105   0.00091   0.00000  Uiso   1.00
C33    C     0.44981  -1.14349   0.00088   0.00000  Uiso   1.00
C34    C     0.39454  -1.48429   0.00065   0.00000  Uiso   1.00
C35    C     0.60412  -0.73924   0.00044   0.00000  Uiso   1.00
C36    C     0.70649  -0.67824   0.00037   0.00000  Uiso   1.00
C37    C     0.85930  -0.61540  -0.00001   0.00000  Uiso   1.00
C38    C     0.62462  -0.49174  -0.00002   0.00000  Uiso   1.00
H39    H     0.66756  -0.48249  -0.00010   0.00000  Uiso   1.00
C40    C     0.52544  -0.55702  -0.00019   0.00000  Uiso   1.00
H41    H     0.20258  -1.33353  -0.00029   0.00000  Uiso   1.00
H42    H     0.61712  -0.89134  -0.00035   0.00000  Uiso   1.00
H43    H     0.13060  -1.34455  -0.00042   0.00000  Uiso   1.00
C44    C     0.44075  -1.09725  -0.00044   0.00000  Uiso   1.00
C45    C     0.06292  -1.48669  -0.00044   0.00000  Uiso   1.00
H46    H     0.62975  -0.97206  -0.00049   0.00000  Uiso   1.00
H47    H     0.51329  -1.16683  -0.00050   0.00000  Uiso   1.00
H48    H     0.67758  -0.54826  -0.00058   0.00000  Uiso   1.00
H49    H     0.29697  -1.48669  -0.00063   0.00000  Uiso   1.00
C50    C     0.90517  -0.56015  -0.00063   0.00000  Uiso   1.00
C51    C     0.09682  -1.38737  -0.00066   0.00000  Uiso   1.00
H52    H     0.37575  -0.96355  -0.00067   0.00000  Uiso   1.00
C53    C     0.50482  -1.13264  -0.00069   0.00000  Uiso   1.00
C54    C     0.06978  -1.53414  -0.00074   0.00000  Uiso   1.00
H55    H     0.30812  -1.54905  -0.00074   0.00000  Uiso   1.00
C56    C     0.41780  -0.95702  -0.00075   0.00000  Uiso   1.00
C57    C     0.76048  -0.67215  -0.00079   0.00000  Uiso   1.00
C58    C     0.35110  -1.53965  -0.00081   0.00000  Uiso   1.00
C59    C     0.89795  -0.51302  -0.00084   0.00000  Uiso   1.00
H60    H     1.03151  -0.62239  -0.00088   0.00000  Uiso   1.00
C61    C     0.45033  -1.47392  -0.00092   0.00000  Uiso   1.00
C62    C     1.02515  -0.58671  -0.00095   0.00000  Uiso   1.00
C63    C     0.47836  -0.61143  -0.00097   0.00000  Uiso   1.00
C64    C     0.38676  -1.10345  -0.00097   0.00000  Uiso   1.00
H65    H     0.58541  -0.36865  -0.00097   0.00000  Uiso   1.00
H66    H     0.45081  -1.23886  -0.00097   0.00000  Uiso   1.00
H67    H     0.11147  -1.52847  -0.00098   0.00000  Uiso   1.00
C68    C     0.58794  -0.97784  -0.00099   0.00000  Uiso   1.00
C69    C     0.96066  -0.55099  -0.00101   0.00000  Uiso   1.00
C70    C     0.42512  -1.00334  -0.00101   0.00000  Uiso   1.00
C71    C     0.96974  -0.59688  -0.00102   0.00000  Uiso   1.00
C72    C    -0.05761  -1.46054  -0.00109   0.00000  Uiso   1.00
H73    H    -0.06394  -1.42486  -0.00109   0.00000  Uiso   1.00
C74    C     0.87006  -0.65962  -0.00110   0.00000  Uiso   1.00
C75    C     0.00728  -1.49607  -0.00110   0.00000  Uiso   1.00
C76    C     0.58071  -0.93278  -0.00113   0.00000  Uiso   1.00
H77    H     0.33765  -1.06429  -0.00114   0.00000  Uiso   1.00
C78    C     0.49739  -1.41940  -0.00115   0.00000  Uiso   1.00
H79    H     0.85619  -0.51897  -0.00115   0.00000  Uiso   1.00
C80    C     0.37948  -1.05847  -0.00116   0.00000  Uiso   1.00
H81    H     0.39030  -1.66212  -0.00123   0.00000  Uiso   1.00
C82    C    -0.00231  -1.45049  -0.00124   0.00000  Uiso   1.00
C83    C     0.48751  -1.04174  -0.00129   0.00000  Uiso   1.00
H84    H     0.49116  -1.38371  -0.00134   0.00000  Uiso   1.00
H85    H     0.35053  -1.14495  -0.00134   0.00000  Uiso   1.00
C86    C     0.92351  -0.65065  -0.00140   0.00000  Uiso   1.00
C87    C     0.55014  -0.41093  -0.00141   0.00000  Uiso   1.00
H88    H     0.48451  -0.64711  -0.00142   0.00000  Uiso   1.00
H89    H     0.83590  -0.70234  -0.00143   0.00000  Uiso   1.00
C90    C     0.61501  -0.44763  -0.00146   0.00000  Uiso   1.00
C91    C     0.47999  -0.99454  -0.00149   0.00000  Uiso   1.00
C92    C     0.04341  -1.39661  -0.00150   0.00000  Uiso   1.00
H93    H     0.32596  -1.62596  -0.00150   0.00000  Uiso   1.00
C94    C     0.42565  -1.61992  -0.00150   0.00000  Uiso   1.00
C95    C     0.54234  -1.03301  -0.00152   0.00000  Uiso   1.00
H96    H     0.03624  -1.36150  -0.00155   0.00000  Uiso   1.00
H97    H     0.45389  -0.86958  -0.00158   0.00000  Uiso   1.00
C98    C     0.56101  -0.45575  -0.00161   0.00000  Uiso   1.00
C99    C     0.51559  -0.51101  -0.00162   0.00000  Uiso   1.00
H100   H     0.65003  -0.40523  -0.00164   0.00000  Uiso   1.00
C101   C     0.46235  -0.90379  -0.00165   0.00000  Uiso   1.00
H102   H     0.59154  -1.07303  -0.00165   0.00000  Uiso   1.00
C103   C     0.36088  -1.58354  -0.00166   0.00000  Uiso   1.00
C104   C     0.54952  -1.07944  -0.00169   0.00000  Uiso   1.00
C105   C     0.41497  -1.57507  -0.00173   0.00000  Uiso   1.00
C106   C     0.46038  -1.51982  -0.00186   0.00000  Uiso   1.00
H107   H     0.93028  -0.68604  -0.00186   0.00000  Uiso   1.00
C108   C     0.52670  -0.93895  -0.00212   0.00000  Uiso   1.00
C109   C     0.51733  -0.89285  -0.00292   0.00000  Uiso   1.00
N110   N     0.56234  -0.83833  -0.00447   0.00000  Uiso   1.00
H111   H     0.76204  -0.71074  -0.00453   0.00000  Uiso   1.00
C112   C     0.65851  -0.73214  -0.00486   0.00000  Uiso   1.00
H113   H     0.62051  -0.81283  -0.01151   0.00000  Uiso   1.00
O114   O     0.66396  -0.77654  -0.01454   0.00000  Uiso   1.00
loop_
_geom_bond_atom_site_label_1
_geom_bond_atom_site_label_2
_geom_bond_distance
_geom_bond_site_symmetry_2
_ccdc_geom_bond_type
O1     H6      1.100   .     S
O1     C17     1.324   .     S
O2     H9      1.103   .     S
O2     C11     1.324   .     S
O3     H7      1.084   .     S
O3     C8      1.331   .     S
O4     C10     1.324   .     S
O4     H12     1.112   .     S
O5     H16     1.098   .     S
O5     C19     1.326   .     S
C8     C13     1.430   .     D
C8     C14     1.426   .     S
C10    C13     1.430   .     S
C10    C15     1.426   .     D
C11    C14     1.432   .     D
C11    C15     1.427   .     S
C13    C25     1.427   .     S
C14    C27     1.433   .     S
C15    C26     1.432   .     S
C17    C18     1.429   .     S
C17    C35     1.433   .     D
C18    C19     1.430   .     D
C18    C28     1.436   .     S
C19    C36     1.429   .     S
H20    C31     1.098   .     S
N21    C28     1.319   .     D
N21    C30     1.408   .     S
N22    C25     1.319   .     D
N22    C32     1.405   .     S
N23    C26     1.319   .     D
N23    C34     1.408   .     S
N24    C27     1.318   .     D
N24    C33     1.409   .     S
C25    H41     1.098   .     S
C26    H49     1.099   .     S
C27    H66     1.099   .     S
C28    H48     1.100   .     S
N29    C37     1.404   .     S
N29    C57     1.316   .     D
C30    C38     1.409   .     S
C30    C40     1.434   .     D
C31    C35     1.429   .     S
C31    N110    1.322   .     D
C32    C45     1.431   .     S
C32    C51     1.407   .     D
C33    C44     1.433   .     D
C33    C53     1.408   .     S
C34    C58     1.408   .     D
C34    C61     1.434   .     S
C35    C112    1.429   .     S
C36    C57     1.429   .     S
C36    C112    1.429   .     D
C37    C50     1.429   .     D
C37    C74     1.408   .     S
C38    H39     1.092   .     S
C38    C90     1.384   .     D
C40    C63     1.427   .     S
C40    C99     1.441   .     S
H42    C76     1.093   .     S
H43    C51     1.091   .     S
C44    C64     1.428   .     S
C44    C83     1.442   .     S
C45    C54     1.429   .     S
C45    C75     1.439   .     D
H46    C68     1.095   .     S
H47    C53     1.091   .     S
C50    C59     1.426   .     S
C50    C69     1.438   .     S
C51    C92     1.379   .     S
H52    C56     1.094   .     S
C53    C104    1.381   .     D
C54    C62     1.369   1_445 D
C54    H67     1.093   .     S
H55    C58     1.092   .     S
C56    C70     1.406   .     D
C56    C101    1.380   .     S
C57    H111    1.099   .     S
C58    C103    1.381   .     S
C59    C72     1.366   1_665 D
C59    H79     1.092   .     S
H60    C62     1.095   .     S
C61    C78     1.428   .     D
C61    C106    1.441   .     S
C62    C54     1.369   1_665 D
C62    C71     1.425   .     S
C63    H88     1.091   .     S
C63    C94     1.368   1_565 D
C64    C80     1.368   .     D
C64    H85     1.092   .     S
H65    C87     1.095   .     S
C68    C76     1.369   .     S
C68    C95     1.425   .     D
C69    C71     1.424   .     D
C69    C75     1.431   1_665 S
C70    C80     1.424   .     S
C70    C91     1.424   .     S
C71    C86     1.407   .     S
C72    C59     1.366   1_445 D
C72    H73     1.095   .     S
C72    C82     1.424   .     S
C74    C86     1.383   .     D
C74    H89     1.092   .     S
C75    C69     1.431   1_445 S
C75    C82     1.424   .     S
C76    C108    1.429   .     D
H77    C80     1.095   .     S
C78    H84     1.093   .     S
C78    C87     1.369   1_545 S
H81    C94     1.094   .     S
C82    C92     1.403   .     D
C83    C91     1.433   .     D
C83    C95     1.424   .     S
C86    H107    1.094   .     S
C87    C78     1.369   1_565 S
C87    C98     1.426   .     D
C90    C98     1.407   .     S
C90    H100    1.095   .     S
C91    C108    1.443   .     S
C92    H96     1.093   .     S
H93    C103    1.094   .     S
C94    C63     1.368   1_545 D
C94    C105    1.424   .     S
C95    C104    1.406   .     S
H97    C101    1.092   .     S
C98    C99     1.424   .     S
C99    C106    1.433   1_565 D
C101   C109    1.406   .     D
H102   C104    1.094   .     S
C103   C105    1.406   .     D
C105   C106    1.424   .     S
C106   C99     1.433   1_545 D
C108   C109    1.435   .     S
C109   N110    1.407   .     S
C112   O114    1.322   .     S
H113   O114    1.126   .     S
