data_267
_audit_creation_date              2023-09-08
_audit_creation_method            'Materials Studio'
_symmetry_space_group_name_H-M    'P1'
_symmetry_Int_Tables_number       1
_symmetry_cell_setting            triclinic
loop_
_symmetry_equiv_pos_as_xyz
  x,y,z
_cell_length_a                    23.8348
_cell_length_b                    23.5803
_cell_length_c                    7.0348
_cell_angle_alpha                 87.3564
_cell_angle_beta                  83.1717
_cell_angle_gamma                 120.0005
loop_
_atom_site_label
_atom_site_type_symbol
_atom_site_fract_x
_atom_site_fract_y
_atom_site_fract_z
_atom_site_U_iso_or_equiv
_atom_site_adp_type
_atom_site_occupancy
C1     C     0.43652   0.48173   0.81551   0.00000  Uiso   1.00
C2     C     0.44541   0.42835   0.77494   0.00000  Uiso   1.00
C3     C     0.50916   0.43957   0.71465   0.00000  Uiso   1.00
C4     C     0.56341   0.50551   0.67334   0.00000  Uiso   1.00
C5     C     0.55417   0.55890   0.71283   0.00000  Uiso   1.00
C6     C     0.49170   0.54657   0.79582   0.00000  Uiso   1.00
C7     C     0.37211   0.46923   0.86468   0.00000  Uiso   1.00
C8     C     0.31780   0.40555   0.88457   0.00000  Uiso   1.00
C9     C     0.32657   0.35150   0.85758   0.00000  Uiso   1.00
C10    C     0.39020   0.36326   0.79638   0.00000  Uiso   1.00
C11    C     0.39854   0.30975   0.75827   0.00000  Uiso   1.00
C12    C     0.46265   0.31951   0.72836   0.00000  Uiso   1.00
C13    C     0.51669   0.38417   0.70458   0.00000  Uiso   1.00
C14    C     0.60744   0.62512   0.66749   0.00000  Uiso   1.00
C15    C     0.59848   0.67811   0.71050   0.00000  Uiso   1.00
C16    C     0.53919   0.66451   0.82644   0.00000  Uiso   1.00
C17    C     0.48667   0.59926   0.86353   0.00000  Uiso   1.00
C18    C     0.62674   0.52001   0.59269   0.00000  Uiso   1.00
C19    C     0.67947   0.58482   0.55131   0.00000  Uiso   1.00
C20    C     0.66943   0.63825   0.57831   0.00000  Uiso   1.00
C21    C     0.25290   0.39964   0.90798   0.00000  Uiso   1.00
C22    C     0.53189   0.71500   0.92944   0.00000  Uiso   1.00
C23    C     0.74539   0.59381   0.49853   0.00000  Uiso   1.00
C24    C     0.47546   0.26415   0.75636   0.00000  Uiso   1.00
C25    C     0.23062   0.41902   0.07196   0.00000  Uiso   1.00
C26    C     0.17667   0.42758   0.07497   0.00000  Uiso   1.00
C27    C     0.14590   0.41862   0.91185   0.00000  Uiso   1.00
C28    C     0.16589   0.39538   0.75244   0.00000  Uiso   1.00
C29    C     0.21891   0.38558   0.75118   0.00000  Uiso   1.00
C30    C     0.43838   0.21399   0.91123   0.00000  Uiso   1.00
C31    C     0.46047   0.17307   0.97484   0.00000  Uiso   1.00
C32    C     0.51984   0.18097   0.88356   0.00000  Uiso   1.00
C33    C     0.55361   0.22596   0.71654   0.00000  Uiso   1.00
C34    C     0.53170   0.26747   0.65368   0.00000  Uiso   1.00
C35    C     0.58249   0.76025   0.02181   0.00000  Uiso   1.00
C36    C     0.57387   0.80339   0.13302   0.00000  Uiso   1.00
C37    C     0.51433   0.80255   0.15421   0.00000  Uiso   1.00
C38    C     0.46318   0.75722   0.06466   0.00000  Uiso   1.00
C39    C     0.47198   0.71410   0.95234   0.00000  Uiso   1.00
C40    C     0.76076   0.57012   0.33297   0.00000  Uiso   1.00
C41    C     0.81912   0.56907   0.30073   0.00000  Uiso   1.00
C42    C     0.86182   0.59021   0.43650   0.00000  Uiso   1.00
C43    C     0.84810   0.61736   0.59678   0.00000  Uiso   1.00
C44    C     0.79015   0.61905   0.62765   0.00000  Uiso   1.00
C45    C     0.27078   0.28193   0.89866   0.00000  Uiso   1.00
C46    C     0.33886   0.24443   0.75155   0.00000  Uiso   1.00
C47    C     0.72143   0.70796   0.50467   0.00000  Uiso   1.00
C48    C     0.65138   0.74664   0.62948   0.00000  Uiso   1.00
C49    C     0.76638   0.82887   0.46957   0.00000  Uiso   1.00
C50    C     0.50817   0.85439   0.24499   0.00000  Uiso   1.00
C51    C     0.09867   0.44077   0.90089   0.00000  Uiso   1.00
C52    C     0.54711   0.14340   0.96460   0.00000  Uiso   1.00
C53    C     0.91465   0.57491   0.42465   0.00000  Uiso   1.00
C54    C     0.99334   0.50999   0.47352   0.00000  Uiso   1.00
C55    C     0.02868   0.47993   0.51857   0.00000  Uiso   1.00
C56    C     0.05002   0.48445   0.69679   0.00000  Uiso   1.00
C57    C     0.03795   0.52178   0.82819   0.00000  Uiso   1.00
C58    C     0.00274   0.55188   0.78315   0.00000  Uiso   1.00
C59    C     0.97988   0.54600   0.60709   0.00000  Uiso   1.00
C60    C     0.49762   0.02002   0.36233   0.00000  Uiso   1.00
C61    C     0.50533   0.96603   0.40311   0.00000  Uiso   1.00
C62    C     0.56137   0.96642   0.31287   0.00000  Uiso   1.00
C63    C     0.61372   0.02470   0.20957   0.00000  Uiso   1.00
C64    C     0.60560   0.07827   0.16625   0.00000  Uiso   1.00
C65    C     0.54512   0.07353   0.23024   0.00000  Uiso   1.00
C66    C     0.21848   0.16340   0.85666   0.00000  Uiso   1.00
C67    C     0.74768   0.86827   0.33262   0.00000  Uiso   1.00
C68    C     0.80235   0.94086   0.26696   0.00000  Uiso   1.00
C69    C     0.79057   0.98785   0.38704   0.00000  Uiso   1.00
C70    C     0.85001   0.05799   0.34560   0.00000  Uiso   1.00
C71    C     0.83653   0.10441   0.46176   0.00000  Uiso   1.00
C72    C     0.89647   0.17408   0.42467   0.00000  Uiso   1.00
C73    C     0.79342   0.86210   0.64806   0.00000  Uiso   1.00
C74    C     0.81622   0.82234   0.76436   0.00000  Uiso   1.00
C75    C     0.86709   0.86546   0.88684   0.00000  Uiso   1.00
C76    C     0.88486   0.82323   0.00987   0.00000  Uiso   1.00
C77    C     0.93621   0.86572   0.13205   0.00000  Uiso   1.00
C78    C     0.94801   0.82176   0.26845   0.00000  Uiso   1.00
C79    C     0.19410   0.14921   0.66107   0.00000  Uiso   1.00
C80    C     0.16039   0.18803   0.61306   0.00000  Uiso   1.00
C81    C     0.12965   0.16777   0.43051   0.00000  Uiso   1.00
C82    C     0.10595   0.21401   0.36536   0.00000  Uiso   1.00
C83    C     0.06377   0.18652   0.20748   0.00000  Uiso   1.00
C84    C     0.05549   0.24004   0.10685   0.00000  Uiso   1.00
C85    C     0.23095   0.10980   0.94158   0.00000  Uiso   1.00
C86    C     0.16641   0.04402   0.02023   0.00000  Uiso   1.00
C87    C     0.17022   0.98309   0.96921   0.00000  Uiso   1.00
C88    C     0.16987   0.97383   0.75317   0.00000  Uiso   1.00
C89    C     0.10135   0.94436   0.69541   0.00000  Uiso   1.00
C90    C     0.06190   0.86917   0.74241   0.00000  Uiso   1.00
C91    C     0.42269   0.42331   0.28974   0.00000  Uiso   1.00
C92    C     0.46774   0.40139   0.24218   0.00000  Uiso   1.00
C93    C     0.53599   0.44711   0.18837   0.00000  Uiso   1.00
C94    C     0.55911   0.51556   0.17976   0.00000  Uiso   1.00
C95    C     0.51548   0.53680   0.25287   0.00000  Uiso   1.00
C96    C     0.44715   0.49118   0.30676   0.00000  Uiso   1.00
C97    C     0.35474   0.37596   0.32131   0.00000  Uiso   1.00
C98    C     0.33251   0.30922   0.31577   0.00000  Uiso   1.00
C99    C     0.37688   0.28747   0.28629   0.00000  Uiso   1.00
C100   C     0.44431   0.33283   0.25117   0.00000  Uiso   1.00
C101   C     0.48863   0.31040   0.22636   0.00000  Uiso   1.00
C102   C     0.55543   0.35489   0.17350   0.00000  Uiso   1.00
C103   C     0.57907   0.42241   0.15286   0.00000  Uiso   1.00
C104   C     0.54079   0.60440   0.27416   0.00000  Uiso   1.00
C105   C     0.49909   0.62578   0.35469   0.00000  Uiso   1.00
C106   C     0.43214   0.58152   0.40557   0.00000  Uiso   1.00
C107   C     0.40615   0.51518   0.38125   0.00000  Uiso   1.00
C108   C     0.62488   0.56395   0.10384   0.00000  Uiso   1.00
C109   C     0.64891   0.63014   0.12457   0.00000  Uiso   1.00
C110   C     0.60774   0.64976   0.21658   0.00000  Uiso   1.00
H111   H     0.36233   0.50912   0.87539   0.00000  Uiso   1.00
H112   H     0.56469   0.38993   0.69406   0.00000  Uiso   1.00
H113   H     0.44330   0.58952   0.95993   0.00000  Uiso   1.00
H114   H     0.63696   0.48173   0.55780   0.00000  Uiso   1.00
H115   H     0.25711   0.43076   0.19268   0.00000  Uiso   1.00
H116   H     0.16185   0.44550   0.19899   0.00000  Uiso   1.00
H117   H     0.14230   0.38776   0.62590   0.00000  Uiso   1.00
H118   H     0.23590   0.37080   0.62392   0.00000  Uiso   1.00
H119   H     0.39493   0.20960   0.99371   0.00000  Uiso   1.00
H120   H     0.43269   0.13712   0.10097   0.00000  Uiso   1.00
H121   H     0.59863   0.23128   0.64090   0.00000  Uiso   1.00
H122   H     0.56073   0.30463   0.53155   0.00000  Uiso   1.00
H123   H     0.62968   0.76355   0.00338   0.00000  Uiso   1.00
H124   H     0.61432   0.83888   0.19790   0.00000  Uiso   1.00
H125   H     0.41723   0.75677   0.07610   0.00000  Uiso   1.00
H126   H     0.43226   0.68052   0.88131   0.00000  Uiso   1.00
H127   H     0.72636   0.54995   0.23370   0.00000  Uiso   1.00
H128   H     0.82880   0.54777   0.17676   0.00000  Uiso   1.00
H129   H     0.88065   0.63409   0.70283   0.00000  Uiso   1.00
H130   H     0.77866   0.63732   0.75623   0.00000  Uiso   1.00
H131   H     0.80834   0.82895   0.38069   0.00000  Uiso   1.00
H132   H     0.46256   0.85418   0.24516   0.00000  Uiso   1.00
H133   H     0.07839   0.45093   0.03184   0.00000  Uiso   1.00
H134   H     0.58238   0.13677   0.87100   0.00000  Uiso   1.00
H135   H     0.92727   0.55888   0.29323   0.00000  Uiso   1.00
H136   H     0.97567   0.50333   0.33734   0.00000  Uiso   1.00
H137   H     0.03883   0.45207   0.41604   0.00000  Uiso   1.00
H138   H     0.05608   0.52862   0.96382   0.00000  Uiso   1.00
H139   H     0.99225   0.57935   0.88641   0.00000  Uiso   1.00
H140   H     0.45173   0.01729   0.41583   0.00000  Uiso   1.00
H141   H     0.46541   0.92186   0.48919   0.00000  Uiso   1.00
H142   H     0.65731   0.02530   0.14228   0.00000  Uiso   1.00
H143   H     0.64419   0.12087   0.07131   0.00000  Uiso   1.00
H144   H     0.17786   0.16015   0.96171   0.00000  Uiso   1.00
H145   H     0.70243   0.86738   0.39537   0.00000  Uiso   1.00
H146   H     0.73525   0.84186   0.20315   0.00000  Uiso   1.00
H147   H     0.80186   0.95402   0.11312   0.00000  Uiso   1.00
H148   H     0.85176   0.94775   0.27370   0.00000  Uiso   1.00
H149   H     0.78043   0.97056   0.54394   0.00000  Uiso   1.00
H150   H     0.74610   0.98785   0.35213   0.00000  Uiso   1.00
H151   H     0.86069   0.07558   0.18853   0.00000  Uiso   1.00
H152   H     0.89389   0.05807   0.38549   0.00000  Uiso   1.00
H153   H     0.82475   0.08644   0.61896   0.00000  Uiso   1.00
H154   H     0.79317   0.10530   0.42029   0.00000  Uiso   1.00
H155   H     0.90906   0.19311   0.26868   0.00000  Uiso   1.00
H156   H     0.93957   0.17465   0.47231   0.00000  Uiso   1.00
H157   H     0.88616   0.20800   0.50639   0.00000  Uiso   1.00
H158   H     0.75491   0.86652   0.74066   0.00000  Uiso   1.00
H159   H     0.83576   0.91263   0.60022   0.00000  Uiso   1.00
H160   H     0.83832   0.80051   0.66515   0.00000  Uiso   1.00
H161   H     0.77254   0.78029   0.85770   0.00000  Uiso   1.00
H162   H     0.84682   0.88948   0.98158   0.00000  Uiso   1.00
H163   H     0.91213   0.90498   0.79124   0.00000  Uiso   1.00
H164   H     0.90442   0.79836   0.91525   0.00000  Uiso   1.00
H165   H     0.83981   0.78336   0.10498   0.00000  Uiso   1.00
H166   H     0.91937   0.89448   0.21809   0.00000  Uiso   1.00
H167   H     0.98309   0.90183   0.03660   0.00000  Uiso   1.00
H168   H     0.96604   0.79329   0.18617   0.00000  Uiso   1.00
H169   H     0.90174   0.78576   0.36682   0.00000  Uiso   1.00
H170   H     0.98517   0.85238   0.35765   0.00000  Uiso   1.00
H171   H     0.15853   0.09580   0.66444   0.00000  Uiso   1.00
H172   H     0.23626   0.16202   0.54602   0.00000  Uiso   1.00
H173   H     0.19669   0.24196   0.59567   0.00000  Uiso   1.00
H174   H     0.12124   0.17862   0.73508   0.00000  Uiso   1.00
H175   H     0.08776   0.11592   0.46011   0.00000  Uiso   1.00
H176   H     0.16649   0.17005   0.31184   0.00000  Uiso   1.00
H177   H     0.14968   0.26362   0.30948   0.00000  Uiso   1.00
H178   H     0.07671   0.22043   0.48924   0.00000  Uiso   1.00
H179   H     0.01492   0.14345   0.27144   0.00000  Uiso   1.00
H180   H     0.08768   0.16921   0.09812   0.00000  Uiso   1.00
H181   H     0.03618   0.26226   0.21254   0.00000  Uiso   1.00
H182   H     0.02123   0.21913   0.00152   0.00000  Uiso   1.00
H183   H     0.10384   0.27977   0.02673   0.00000  Uiso   1.00
H184   H     0.25957   0.12880   0.06096   0.00000  Uiso   1.00
H185   H     0.26301   0.10198   0.83166   0.00000  Uiso   1.00
H186   H     0.12298   0.04199   0.97043   0.00000  Uiso   1.00
H187   H     0.15679   0.04125   0.18028   0.00000  Uiso   1.00
H188   H     0.12856   0.93820   0.05831   0.00000  Uiso   1.00
H189   H     0.21580   0.98751   0.01085   0.00000  Uiso   1.00
H190   H     0.19024   0.94143   0.71769   0.00000  Uiso   1.00
H191   H     0.20369   0.02159   0.66164   0.00000  Uiso   1.00
H192   H     0.10709   0.95700   0.53686   0.00000  Uiso   1.00
H193   H     0.07374   0.96635   0.76609   0.00000  Uiso   1.00
H194   H     0.08710   0.84647   0.66191   0.00000  Uiso   1.00
H195   H     0.01258   0.84931   0.70031   0.00000  Uiso   1.00
H196   H     0.05510   0.85399   0.89904   0.00000  Uiso   1.00
H197   H     0.31760   0.38923   0.34447   0.00000  Uiso   1.00
H198   H     0.28041   0.27399   0.33479   0.00000  Uiso   1.00
H199   H     0.35840   0.23500   0.29180   0.00000  Uiso   1.00
H200   H     0.47147   0.25821   0.24966   0.00000  Uiso   1.00
H201   H     0.58925   0.33684   0.15074   0.00000  Uiso   1.00
H202   H     0.63159   0.45415   0.11769   0.00000  Uiso   1.00
H203   H     0.51835   0.67692   0.37785   0.00000  Uiso   1.00
H204   H     0.40020   0.59856   0.46748   0.00000  Uiso   1.00
H205   H     0.35424   0.48335   0.43085   0.00000  Uiso   1.00
H206   H     0.65841   0.55187   0.02554   0.00000  Uiso   1.00
H207   H     0.70029   0.66613   0.07447   0.00000  Uiso   1.00
H208   H     0.62849   0.70034   0.24572   0.00000  Uiso   1.00
N209   N     0.27757   0.23065   0.83790   0.00000  Uiso   1.00
N210   N     0.71113   0.75977   0.53167   0.00000  Uiso   1.00
N211   N     0.93802   0.57182   0.57974   0.00000  Uiso   1.00
N212   N     0.08713   0.45387   0.73353   0.00000  Uiso   1.00
N213   N     0.52631   0.11595   0.14266   0.00000  Uiso   1.00
N214   N     0.56016   0.90654   0.28077   0.00000  Uiso   1.00
O215   O     0.21840   0.27032   0.98818   0.00000  Uiso   1.00
O216   O     0.34460   0.20349   0.66509   0.00000  Uiso   1.00
O217   O     0.64048   0.79148   0.64566   0.00000  Uiso   1.00
O218   O     0.77345   0.71910   0.41394   0.00000  Uiso   1.00
loop_
_geom_bond_atom_site_label_1
_geom_bond_atom_site_label_2
_geom_bond_distance
_geom_bond_site_symmetry_2
_ccdc_geom_bond_type
C1     C2      1.413   .     S
C1     C6      1.419   .     S
C1     C7      1.405   .     D
C2     C3      1.412   .     D
C2     C10     1.422   .     S
C3     C4      1.426   .     S
C3     C13     1.408   .     S
C4     C5      1.416   .     S
C4     C18     1.407   .     D
C5     C6      1.410   .     S
C5     C14     1.424   .     D
C6     C17     1.405   .     D
C7     C8      1.394   .     S
C7     H111    1.080   .     S
C8     C9      1.408   .     D
C8     C21     1.470   .     S
C9     C10     1.406   .     S
C9     C45     1.492   .     S
C10    C11     1.405   .     D
C11    C12     1.414   .     S
C11    C46     1.493   .     S
C12    C13     1.405   .     D
C12    C24     1.492   .     S
C13    H112    1.075   .     S
C14    C15     1.409   .     S
C14    C20     1.406   .     S
C15    C16     1.419   .     D
C15    C48     1.494   .     S
C16    C17     1.401   .     S
C16    C22     1.493   .     S
C17    H113    1.078   .     S
C18    C19     1.397   .     S
C18    H114    1.077   .     S
C19    C20     1.412   .     D
C19    C23     1.474   .     S
C20    C47     1.496   .     S
C21    C25     1.403   1_556 D
C21    C29     1.400   .     S
C22    C35     1.407   1_556 D
C22    C39     1.407   .     S
C23    C40     1.402   .     D
C23    C44     1.401   .     S
C24    C30     1.405   .     D
C24    C34     1.409   .     S
C25    C21     1.403   1_554 D
C25    C26     1.396   .     S
C25    H115    1.082   .     S
C26    C27     1.402   1_554 D
C26    H116    1.084   .     S
C27    C26     1.402   1_556 D
C27    C28     1.406   .     S
C27    C51     1.467   .     S
C28    C29     1.393   .     D
C28    H117    1.083   .     S
C29    H118    1.082   .     S
C30    C31     1.390   .     S
C30    H119    1.079   .     S
C31    C32     1.400   .     D
C31    H120    1.083   1_556 S
C32    C33     1.400   .     S
C32    C52     1.466   .     S
C33    C34     1.397   .     D
C33    H121    1.083   .     S
C34    H122    1.081   .     S
C35    C22     1.407   1_554 D
C35    C36     1.390   .     S
C35    H123    1.079   .     S
C36    C37     1.399   .     D
C36    H124    1.082   .     S
C37    C38     1.403   .     S
C37    C50     1.467   .     S
C38    C39     1.396   1_554 D
C38    H125    1.083   .     S
C39    C38     1.396   1_556 D
C39    H126    1.083   .     S
C40    C41     1.395   .     S
C40    H127    1.078   .     S
C41    C42     1.402   .     D
C41    H128    1.084   .     S
C42    C43     1.406   .     S
C42    C53     1.468   .     S
C43    C44     1.393   .     D
C43    H129    1.083   .     S
C44    H130    1.083   .     S
C45    N209    1.378   .     S
C45    O215    1.219   .     D
C46    N209    1.380   .     S
C46    O216    1.219   .     D
C47    N210    1.378   .     S
C47    O218    1.218   .     D
C48    N210    1.380   .     S
C48    O217    1.215   .     D
C49    C67     1.557   .     S
C49    C73     1.544   .     S
C49    H131    1.114   .     S
C49    N210    1.494   .     S
C50    H132    1.084   .     S
C50    N214    1.300   .     D
C51    H133    1.082   1_556 S
C51    N212    1.298   .     D
C52    H134    1.084   .     S
C52    N213    1.300   1_556 D
C53    H135    1.081   .     S
C53    N211    1.298   .     D
C54    C55     1.397   1_655 S
C54    C59     1.408   .     D
C54    H136    1.079   .     S
C55    C54     1.397   1_455 S
C55    C56     1.397   .     D
C55    H137    1.082   .     S
C56    C57     1.406   .     S
C56    N212    1.430   .     S
C57    C58     1.395   .     D
C57    H138    1.080   .     S
C58    C59     1.397   1_455 S
C58    H139    1.083   1_455 S
C59    C58     1.397   1_655 S
C59    N211    1.430   .     S
C60    C61     1.396   1_545 S
C60    C65     1.397   .     D
C60    H140    1.082   .     S
C61    C60     1.396   1_565 S
C61    C62     1.405   .     D
C61    H141    1.082   .     S
C62    C63     1.397   1_565 S
C62    N214    1.427   .     S
C63    C62     1.397   1_545 S
C63    C64     1.396   .     D
C63    H142    1.082   .     S
C64    C65     1.405   .     S
C64    H143    1.081   .     S
C65    N213    1.428   .     S
C66    C79     1.543   .     S
C66    C85     1.546   .     S
C66    H144    1.113   .     S
C66    N209    1.490   .     S
C67    C68     1.547   .     S
C67    H145    1.105   .     S
C67    H146    1.112   .     S
C68    C69     1.537   .     S
C68    H147    1.115   .     S
C68    H148    1.113   .     S
C69    C70     1.530   1_565 S
C69    H149    1.113   .     S
C69    H150    1.116   .     S
C70    C69     1.530   1_545 S
C70    C71     1.530   .     S
C70    H151    1.115   .     S
C70    H152    1.114   .     S
C71    C72     1.527   .     S
C71    H153    1.116   .     S
C71    H154    1.116   .     S
C72    H155    1.112   .     S
C72    H156    1.112   .     S
C72    H157    1.112   .     S
C73    C74     1.545   .     S
C73    H158    1.112   .     S
C73    H159    1.110   .     S
C74    C75     1.531   .     S
C74    H160    1.116   .     S
C74    H161    1.115   .     S
C75    C76     1.533   1_556 S
C75    H162    1.109   .     S
C75    H163    1.115   .     S
C76    C75     1.533   1_554 S
C76    C77     1.531   .     S
C76    H164    1.114   1_554 S
C76    H165    1.116   .     S
C77    C78     1.529   .     S
C77    H166    1.113   .     S
C77    H167    1.114   .     S
C78    H168    1.112   .     S
C78    H169    1.115   .     S
C78    H170    1.111   .     S
C79    C80     1.539   .     S
C79    H171    1.109   .     S
C79    H172    1.112   .     S
C80    C81     1.531   .     S
C80    H173    1.114   .     S
C80    H174    1.114   .     S
C81    C82     1.533   .     S
C81    H175    1.114   .     S
C81    H176    1.116   .     S
C82    C83     1.531   .     S
C82    H177    1.118   .     S
C82    H178    1.114   .     S
C83    C84     1.527   .     S
C83    H179    1.114   .     S
C83    H180    1.114   .     S
C84    H181    1.111   .     S
C84    H182    1.111   .     S
C84    H183    1.114   .     S
C85    C86     1.553   1_556 S
C85    H184    1.112   1_556 S
C85    H185    1.109   .     S
C86    C85     1.553   1_554 S
C86    C87     1.540   1_544 S
C86    H186    1.111   1_554 S
C86    H187    1.114   .     S
C87    C86     1.540   1_566 S
C87    C88     1.546   .     S
C87    H188    1.113   1_556 S
C87    H189    1.115   1_556 S
C88    C89     1.538   .     S
C88    H190    1.114   .     S
C88    H191    1.111   1_565 S
C89    C90     1.530   .     S
C89    H192    1.115   .     S
C89    H193    1.112   .     S
C90    H194    1.112   .     S
C90    H195    1.111   .     S
C90    H196    1.110   .     S
C91    C92     1.420   .     S
C91    C96     1.420   .     S
C91    C97     1.415   .     D
C92    C93     1.419   .     D
C92    C100    1.417   .     S
C93    C94     1.416   .     S
C93    C103    1.416   .     S
C94    C95     1.419   .     D
C94    C108    1.414   .     S
C95    C96     1.420   .     S
C95    C104    1.417   .     S
C96    C107    1.417   .     D
C97    C98     1.391   .     S
C97    H197    1.075   .     S
C98    C99     1.387   .     D
C98    H198    1.081   .     S
C99    C100    1.397   .     S
C99    H199    1.083   .     S
C100   C101    1.396   .     D
C101   C102    1.388   .     S
C101   H200    1.082   .     S
C102   C103    1.391   .     D
C102   H201    1.084   .     S
C103   H202    1.077   .     S
C104   C105    1.399   .     S
C104   C110    1.398   .     D
C105   C106    1.389   .     D
C105   H203    1.083   .     S
C106   C107    1.393   .     S
C106   H204    1.083   .     S
C107   H205    1.077   .     S
C108   C109    1.390   .     D
C108   H206    1.077   .     S
C109   C110    1.388   .     S
C109   H207    1.084   .     S
C110   H208    1.080   .     S
H120   C31     1.083   1_554 S
H133   C51     1.082   1_554 S
H139   C58     1.083   1_655 S
H164   C76     1.114   1_556 S
H184   C85     1.112   1_554 S
H186   C86     1.111   1_556 S
H188   C87     1.113   1_554 S
H189   C87     1.115   1_554 S
H191   C88     1.111   1_545 S
N213   C52     1.300   1_554 D
