data_268
_audit_creation_date              2023-09-08
_audit_creation_method            'Materials Studio'
_symmetry_space_group_name_H-M    'P1'
_symmetry_Int_Tables_number       1
_symmetry_cell_setting            triclinic
loop_
_symmetry_equiv_pos_as_xyz
  x,y,z
_cell_length_a                    17.7401
_cell_length_b                    4.2000
_cell_length_c                    19.0282
_cell_angle_alpha                 90.0000
_cell_angle_beta                  114.7657
_cell_angle_gamma                 90.0000
loop_
_atom_site_label
_atom_site_type_symbol
_atom_site_fract_x
_atom_site_fract_y
_atom_site_fract_z
_atom_site_U_iso_or_equiv
_atom_site_adp_type
_atom_site_occupancy
C1     C     0.53070   0.50000   0.60660   0.00000  Uiso   1.00
C2     C     0.54758   0.50000   0.48290   0.00000  Uiso   1.00
C3     C     0.40740   0.50000   0.47956   0.00000  Uiso   1.00
C4     C     0.44426   0.50000   0.56203   0.00000  Uiso   1.00
C5     C     0.58092   0.50000   0.56545   0.00000  Uiso   1.00
C6     C     0.46047   0.50000   0.44117   0.00000  Uiso   1.00
C7     C     0.79350   0.50000   0.07178   0.00000  Uiso   1.00
C8     C     0.78151   0.50000   0.19971   0.00000  Uiso   1.00
C9     C     0.92177   0.50000   0.19725   0.00000  Uiso   1.00
C10    C     0.88028   0.50000   0.11516   0.00000  Uiso   1.00
C11    C     0.74797   0.50000   0.11769   0.00000  Uiso   1.00
C12    C     0.86855   0.50000   0.23539   0.00000  Uiso   1.00
O13    O     0.39862   0.50000   0.59735   0.00000  Uiso   1.00
O14    O     0.65749   0.50000   0.60337   0.00000  Uiso   1.00
O15    O     0.42913   0.50000   0.36860   0.00000  Uiso   1.00
H16    H     0.91539   0.50000   0.08559   0.00000  Uiso   1.00
H17    H     0.68666   0.50000   0.09017   0.00000  Uiso   1.00
H18    H     0.89470   0.50000   0.29302   0.00000  Uiso   1.00
C19    C     0.75441   0.50000   0.98807   0.00000  Uiso   1.00
C20    C     0.73198   0.50000   0.24333   0.00000  Uiso   1.00
C21    C     0.01026   0.50000   0.23911   0.00000  Uiso   1.00
C22    C     0.66737   0.50000   0.94494   0.00000  Uiso   1.00
C23    C     0.76667   0.50000   0.32595   0.00000  Uiso   1.00
C24    C     0.06563   0.50000   0.20274   0.00000  Uiso   1.00
C25    C     0.32007   0.50000   0.44056   0.00000  Uiso   1.00
C26    C     0.60274   0.50000   0.44656   0.00000  Uiso   1.00
C27    C     0.56208   0.50000   0.68897   0.00000  Uiso   1.00
C28    C     0.05039   0.50000   0.32161   0.00000  Uiso   1.00
C29    C     0.64426   0.50000   0.20826   0.00000  Uiso   1.00
C30    C     0.79880   0.50000   0.94085   0.00000  Uiso   1.00
C31    C     0.76028   0.50000   0.85924   0.00000  Uiso   1.00
C32    C     0.59641   0.50000   0.25116   0.00000  Uiso   1.00
C33    C     0.13595   0.50000   0.36348   0.00000  Uiso   1.00
N34    N     0.27291   0.50000   0.36291   0.00000  Uiso   1.00
N35    N     0.58216   0.50000   0.36926   0.00000  Uiso   1.00
N36    N     0.64234   0.50000   0.74012   0.00000  Uiso   1.00
C37    C     0.15196   0.50000   0.24462   0.00000  Uiso   1.00
C38    C     0.71946   0.50000   0.36911   0.00000  Uiso   1.00
C39    C     0.62852   0.50000   0.86365   0.00000  Uiso   1.00
H40    H     0.62798   0.50000   0.97063   0.00000  Uiso   1.00
H41    H     0.82808   0.50000   0.35887   0.00000  Uiso   1.00
H42    H     0.04525   0.50000   0.14427   0.00000  Uiso   1.00
H43    H     0.66367   0.50000   0.48188   0.00000  Uiso   1.00
H44    H     0.52024   0.50000   0.71203   0.00000  Uiso   1.00
H45    H     0.01961   0.50000   0.35569   0.00000  Uiso   1.00
H46    H     0.61143   0.50000   0.14997   0.00000  Uiso   1.00
H47    H     0.86109   0.50000   0.96393   0.00000  Uiso   1.00
C48    C     0.67433   0.50000   0.81892   0.00000  Uiso   1.00
C49    C     0.63300   0.50000   0.33249   0.00000  Uiso   1.00
C50    C     0.18915   0.50000   0.32606   0.00000  Uiso   1.00
H51    H     0.28930   0.50000   0.47480   0.00000  Uiso   1.00
H52    H     0.30208   0.50000   0.33026   0.00000  Uiso   1.00
H53    H     0.52416   0.50000   0.33626   0.00000  Uiso   1.00
H54    H     0.68168   0.50000   0.71781   0.00000  Uiso   1.00
C55    C     0.76513   0.50000   0.45805   0.00000  Uiso   1.00
C56    C     0.85952   0.50000   0.48212   0.00000  Uiso   1.00
C57    C     0.74095   0.19996   0.49037   0.00000  Uiso   1.00
H58    H     0.74705   0.72123   0.48216   0.00000  Uiso   1.00
H59    H     0.87744   0.27833   0.45805   0.00000  Uiso   1.00
H60    H     0.89341   0.49985   0.54795   0.00000  Uiso   1.00
H61    H     0.87753   0.72162   0.45809   0.00000  Uiso   1.00
H62    H     0.75913  -0.02121   0.46634   0.00000  Uiso   1.00
H63    H     0.67105   0.19922   0.47252   0.00000  Uiso   1.00
H64    H     0.77479   0.19988   0.55620   0.00000  Uiso   1.00
C65    C     0.50108   0.50000   0.20779   0.00000  Uiso   1.00
C66    C     0.47620   0.50000   0.11993   0.00000  Uiso   1.00
C67    C     0.46599   0.80004   0.22987   0.00000  Uiso   1.00
H68    H     0.47490   0.27877   0.22430   0.00000  Uiso   1.00
H69    H     0.50233   0.72167   0.10358   0.00000  Uiso   1.00
H70    H     0.40564   0.50015   0.08776   0.00000  Uiso   1.00
H71    H     0.50228   0.27839   0.10349   0.00000  Uiso   1.00
H72    H     0.49208   1.02122   0.21326   0.00000  Uiso   1.00
H73    H     0.48445   0.80078   0.29492   0.00000  Uiso   1.00
H74    H     0.39543   0.80012   0.19773   0.00000  Uiso   1.00
C75    C     0.20739   0.50000   0.20033   0.00000  Uiso   1.00
C76    C     0.15239   0.50000   0.11266   0.00000  Uiso   1.00
C77    C     0.26233   0.19996   0.22186   0.00000  Uiso   1.00
H78    H     0.24841   0.72123   0.21643   0.00000  Uiso   1.00
H79    H     0.11155   0.27833   0.09671   0.00000  Uiso   1.00
H80    H     0.19335   0.49985   0.07980   0.00000  Uiso   1.00
H81    H     0.11152   0.72162   0.09663   0.00000  Uiso   1.00
H82    H     0.22131  -0.02121   0.20566   0.00000  Uiso   1.00
H83    H     0.30302   0.19922   0.28678   0.00000  Uiso   1.00
H84    H     0.30333   0.19988   0.18904   0.00000  Uiso   1.00
C85    C     0.16999   0.50000   0.45240   0.00000  Uiso   1.00
C86    C     0.09708   0.50000   0.47627   0.00000  Uiso   1.00
C87    C     0.22318   0.80004   0.48482   0.00000  Uiso   1.00
H88    H     0.20971   0.27877   0.47658   0.00000  Uiso   1.00
H89    H     0.05756   0.72167   0.45213   0.00000  Uiso   1.00
H90    H     0.12219   0.50015   0.54209   0.00000  Uiso   1.00
H91    H     0.05751   0.27839   0.45218   0.00000  Uiso   1.00
H92    H     0.18343   1.02122   0.46072   0.00000  Uiso   1.00
H93    H     0.27714   0.80078   0.46712   0.00000  Uiso   1.00
H94    H     0.24834   0.80012   0.55064   0.00000  Uiso   1.00
C95    C     0.53295   0.50000   0.82427   0.00000  Uiso   1.00
C96    C     0.49885   0.50000   0.88655   0.00000  Uiso   1.00
C97    C     0.50231   0.19996   0.77370   0.00000  Uiso   1.00
H98    H     0.51010   0.72123   0.78651   0.00000  Uiso   1.00
H99    H     0.52167   0.27833   0.92414   0.00000  Uiso   1.00
H100   H     0.42810   0.49985   0.85748   0.00000  Uiso   1.00
H101   H     0.52161   0.72162   0.92418   0.00000  Uiso   1.00
H102   H     0.52507  -0.02121   0.81148   0.00000  Uiso   1.00
H103   H     0.52759   0.19922   0.72760   0.00000  Uiso   1.00
H104   H     0.43157   0.19988   0.74458   0.00000  Uiso   1.00
C105   C     0.81367   0.50000   0.81296   0.00000  Uiso   1.00
C106   C     0.90622   0.50000   0.86938   0.00000  Uiso   1.00
C107   C     0.79425   0.80004   0.76187   0.00000  Uiso   1.00
H108   H     0.79915   0.27877   0.77481   0.00000  Uiso   1.00
H109   H     0.92060   0.72167   0.90735   0.00000  Uiso   1.00
H110   H     0.94582   0.50015   0.83519   0.00000  Uiso   1.00
H111   H     0.92069   0.27839   0.90739   0.00000  Uiso   1.00
H112   H     0.80889   1.02122   0.80003   0.00000  Uiso   1.00
H113   H     0.72572   0.80078   0.72012   0.00000  Uiso   1.00
H114   H     0.83381   0.80012   0.72764   0.00000  Uiso   1.00
loop_
_geom_bond_atom_site_label_1
_geom_bond_atom_site_label_2
_geom_bond_distance
_geom_bond_site_symmetry_2
_ccdc_geom_bond_type
C1     C4      1.407   .     S
C1     C5      1.411   .     S
C1     C27     1.427   .     D
C2     C5      1.428   .     S
C2     C6      1.411   .     S
C2     C26     1.415   .     D
C3     C4      1.425   .     S
C3     C6      1.413   .     S
C3     C25     1.410   .     D
C4     O13     1.250   .     D
C5     O14     1.243   .     D
C6     O15     1.254   .     D
C7     C10     1.410   .     S
C7     C11     1.417   .     D
C7     C19     1.447   1_554 S
C8     C11     1.418   .     S
C8     C12     1.402   .     D
C8     C20     1.440   .     S
C9     C10     1.421   .     D
C9     C12     1.411   .     S
C9     C21     1.432   1_655 S
C10    H16     0.999   .     S
C11    H17     0.990   .     S
C12    H18     0.996   .     S
C19    C7      1.447   1_556 S
C19    C22     1.413   .     D
C19    C30     1.421   .     S
C20    C23     1.428   .     D
C20    C29     1.413   .     S
C21    C9      1.432   1_455 S
C21    C24     1.419   .     D
C21    C28     1.426   .     S
C22    C39     1.405   .     S
C22    H40     1.007   .     S
C23    C38     1.397   .     S
C23    H41     1.004   .     S
C24    C37     1.399   .     S
C24    H42     1.016   .     S
C25    N34     1.359   .     S
C25    H51     1.010   .     S
C26    N35     1.359   .     S
C26    H43     1.006   .     S
C27    N36     1.347   .     S
C27    H44     1.008   .     S
C28    C33     1.388   .     D
C28    H45     1.008   .     S
C29    C32     1.403   .     D
C29    H46     1.014   .     S
C30    C31     1.411   .     D
C30    H47     1.004   .     S
C31    C48     1.391   .     S
C31    C105    1.540   .     S
C32    C49     1.405   .     S
C32    C65     1.540   .     S
C33    C50     1.400   .     S
C33    C85     1.540   .     S
N34    C50     1.352   .     S
N34    H52     0.961   .     S
N35    C49     1.353   .     S
N35    H53     0.955   .     S
N36    C48     1.363   .     S
N36    H54     0.957   .     S
C37    C50     1.407   .     D
C37    C75     1.540   .     S
C38    C49     1.394   .     D
C38    C55     1.540   .     S
C39    C48     1.402   .     D
C39    C95     1.540   .     S
C55    C56     1.540   .     S
C55    C57     1.540   .     S
C55    H58     1.140   .     S
C56    H59     1.140   .     S
C56    H60     1.140   .     S
C56    H61     1.140   .     S
C57    H62     1.140   .     S
C57    H63     1.140   .     S
C57    H64     1.140   .     S
C65    C66     1.540   .     S
C65    C67     1.540   .     S
C65    H68     1.140   .     S
C66    H69     1.140   .     S
C66    H70     1.140   .     S
C66    H71     1.140   .     S
C67    H72     1.140   .     S
C67    H73     1.140   .     S
C67    H74     1.140   .     S
C75    C76     1.540   .     S
C75    C77     1.540   .     S
C75    H78     1.140   .     S
C76    H79     1.140   .     S
C76    H80     1.140   .     S
C76    H81     1.140   .     S
C77    H82     1.140   .     S
C77    H83     1.140   .     S
C77    H84     1.140   .     S
C85    C86     1.540   .     S
C85    C87     1.540   .     S
C85    H88     1.140   .     S
C86    H89     1.140   .     S
C86    H90     1.140   .     S
C86    H91     1.140   .     S
C87    H92     1.140   .     S
C87    H93     1.140   .     S
C87    H94     1.140   .     S
C95    C96     1.540   .     S
C95    C97     1.540   .     S
C95    H98     1.140   .     S
C96    H99     1.140   .     S
C96    H100    1.140   .     S
C96    H101    1.140   .     S
C97    H102    1.140   .     S
C97    H103    1.140   .     S
C97    H104    1.140   .     S
C105   C106    1.540   .     S
C105   C107    1.540   .     S
C105   H108    1.140   .     S
C106   H109    1.140   .     S
C106   H110    1.140   .     S
C106   H111    1.140   .     S
C107   H112    1.140   .     S
C107   H113    1.140   .     S
C107   H114    1.140   .     S
