data_27
_audit_creation_date              2023-09-08
_audit_creation_method            'Materials Studio'
_symmetry_space_group_name_H-M    'P1'
_symmetry_Int_Tables_number       1
_symmetry_cell_setting            triclinic
loop_
_symmetry_equiv_pos_as_xyz
  x,y,z
_cell_length_a                    41.1994
_cell_length_b                    41.1994
_cell_length_c                    4.5828
_cell_angle_alpha                 90.0000
_cell_angle_beta                  90.0000
_cell_angle_gamma                 120.0000
loop_
_atom_site_label
_atom_site_type_symbol
_atom_site_fract_x
_atom_site_fract_y
_atom_site_fract_z
_atom_site_U_iso_or_equiv
_atom_site_adp_type
_atom_site_occupancy
C1     C     0.48283   0.48405   0.51029   0.00000  Uiso   1.00
C2     C     0.44769   0.48463   0.52227   0.00000  Uiso   1.00
C3     C     0.41863   0.46141   0.33396   0.00000  Uiso   1.00
C4     C     0.38599   0.46257   0.32626   0.00000  Uiso   1.00
C5     C     0.38138   0.48685   0.51208   0.00000  Uiso   1.00
C6     C     0.40984   0.50920   0.70909   0.00000  Uiso   1.00
C7     C     0.44240   0.50797   0.71265   0.00000  Uiso   1.00
H8     H     0.46540   0.52621   0.85741   0.00000  Uiso   1.00
C9     C     0.47764   0.44634   0.50266   0.00000  Uiso   1.00
C10    C     0.44884   0.41762   0.66477   0.00000  Uiso   1.00
C11    C     0.44353   0.38195   0.66400   0.00000  Uiso   1.00
C12    C     0.46702   0.37396   0.49751   0.00000  Uiso   1.00
C13    C     0.49485   0.40214   0.32474   0.00000  Uiso   1.00
C14    C     0.50016   0.43756   0.33149   0.00000  Uiso   1.00
N15    N     0.35010   0.49026   0.50772   0.00000  Uiso   1.00
C16    C     0.31779   0.46210   0.45334   0.00000  Uiso   1.00
N17    N     0.46169   0.33844   0.50134   0.00000  Uiso   1.00
C18    C     0.48975   0.33367   0.45864   0.00000  Uiso   1.00
C19    C     0.48485   0.29741   0.44560   0.00000  Uiso   1.00
H20    H     0.42279   0.44301   0.18530   0.00000  Uiso   1.00
H21    H     0.36441   0.44635   0.16345   0.00000  Uiso   1.00
H22    H     0.40507   0.52734   0.85559   0.00000  Uiso   1.00
H23    H     0.43034   0.42386   0.79399   0.00000  Uiso   1.00
H24    H     0.42147   0.35938   0.79197   0.00000  Uiso   1.00
H25    H     0.51111   0.39523   0.17369   0.00000  Uiso   1.00
H26    H     0.52224   0.45961   0.20080   0.00000  Uiso   1.00
H27    H     0.31319   0.43343   0.42717   0.00000  Uiso   1.00
H28    H     0.51875   0.35739   0.44246   0.00000  Uiso   1.00
C29    C     0.51195   0.28727   0.44343   0.00000  Uiso   1.00
C30    C     0.49565   0.24850   0.44385   0.00000  Uiso   1.00
C31    C     0.45639   0.22977   0.44215   0.00000  Uiso   1.00
S32    S     0.43983   0.26018   0.44513   0.00000  Uiso   1.00
C33    C     0.28635   0.46704   0.44274   0.00000  Uiso   1.00
C34    C     0.24907   0.44008   0.43881   0.00000  Uiso   1.00
S35    S     0.29417   0.51209   0.45012   0.00000  Uiso   1.00
H36    H     0.54173   0.30775   0.44500   0.00000  Uiso   1.00
H37    H     0.23935   0.41023   0.43716   0.00000  Uiso   1.00
C38    C     0.51595   0.99878   0.51029   0.00000  Uiso   1.00
C39    C     0.51537   0.96306   0.52227   0.00000  Uiso   1.00
C40    C     0.53859   0.95722   0.33396   0.00000  Uiso   1.00
C41    C     0.53743   0.92342   0.32626   0.00000  Uiso   1.00
C42    C     0.51315   0.89453   0.51208   0.00000  Uiso   1.00
C43    C     0.49080   0.90064   0.70909   0.00000  Uiso   1.00
C44    C     0.49203   0.93443   0.71265   0.00000  Uiso   1.00
H45    H     0.47379   0.93919   0.85741   0.00000  Uiso   1.00
C46    C     0.55366   0.03130   0.50266   0.00000  Uiso   1.00
C47    C     0.58238   0.03122   0.66477   0.00000  Uiso   1.00
C48    C     0.61805   0.06158   0.66400   0.00000  Uiso   1.00
C49    C     0.62604   0.09306   0.49751   0.00000  Uiso   1.00
C50    C     0.59786   0.09271   0.32474   0.00000  Uiso   1.00
C51    C     0.56244   0.06260   0.33149   0.00000  Uiso   1.00
N52    N     0.50974   0.85984   0.50772   0.00000  Uiso   1.00
C53    C     0.53790   0.85569   0.45334   0.00000  Uiso   1.00
N54    N     0.66156   0.12325   0.50134   0.00000  Uiso   1.00
C55    C     0.66633   0.15608   0.45864   0.00000  Uiso   1.00
C56    C     0.70259   0.18744   0.44560   0.00000  Uiso   1.00
H57    H     0.55699   0.97978   0.18530   0.00000  Uiso   1.00
H58    H     0.55365   0.91806   0.16345   0.00000  Uiso   1.00
H59    H     0.47266   0.87773   0.85559   0.00000  Uiso   1.00
H60    H     0.57614   0.00648   0.79399   0.00000  Uiso   1.00
H61    H     0.64062   0.06209   0.79197   0.00000  Uiso   1.00
H62    H     0.60477   0.11588   0.17369   0.00000  Uiso   1.00
H63    H     0.54039   0.06263   0.20080   0.00000  Uiso   1.00
H64    H     0.56657   0.87976   0.42717   0.00000  Uiso   1.00
H65    H     0.64261   0.16136   0.44246   0.00000  Uiso   1.00
C66    C     0.71273   0.22468   0.44343   0.00000  Uiso   1.00
C67    C     0.75150   0.24715   0.44385   0.00000  Uiso   1.00
C68    C     0.77023   0.22662   0.44215   0.00000  Uiso   1.00
S69    S     0.73982   0.17965   0.44513   0.00000  Uiso   1.00
C70    C     0.53296   0.81931   0.44274   0.00000  Uiso   1.00
C71    C     0.55992   0.80899   0.43881   0.00000  Uiso   1.00
S72    S     0.48791   0.78208   0.45012   0.00000  Uiso   1.00
H73    H     0.69225   0.23398   0.44500   0.00000  Uiso   1.00
H74    H     0.58977   0.82912   0.43716   0.00000  Uiso   1.00
C75    C     0.00122   0.51717   0.51029   0.00000  Uiso   1.00
C76    C     0.03694   0.55231   0.52227   0.00000  Uiso   1.00
C77    C     0.04278   0.58137   0.33396   0.00000  Uiso   1.00
C78    C     0.07658   0.61401   0.32626   0.00000  Uiso   1.00
C79    C     0.10547   0.61862   0.51208   0.00000  Uiso   1.00
C80    C     0.09936   0.59016   0.70909   0.00000  Uiso   1.00
C81    C     0.06557   0.55760   0.71265   0.00000  Uiso   1.00
H82    H     0.06081   0.53460   0.85741   0.00000  Uiso   1.00
C83    C     0.96870   0.52236   0.50266   0.00000  Uiso   1.00
C84    C     0.96878   0.55116   0.66477   0.00000  Uiso   1.00
C85    C     0.93842   0.55647   0.66400   0.00000  Uiso   1.00
C86    C     0.90694   0.53298   0.49751   0.00000  Uiso   1.00
C87    C     0.90729   0.50515   0.32474   0.00000  Uiso   1.00
C88    C     0.93740   0.49984   0.33149   0.00000  Uiso   1.00
N89    N     0.14016   0.64990   0.50772   0.00000  Uiso   1.00
C90    C     0.14431   0.68221   0.45334   0.00000  Uiso   1.00
N91    N     0.87675   0.53831   0.50134   0.00000  Uiso   1.00
C92    C     0.84392   0.51025   0.45864   0.00000  Uiso   1.00
C93    C     0.81256   0.51515   0.44560   0.00000  Uiso   1.00
H94    H     0.02022   0.57721   0.18530   0.00000  Uiso   1.00
H95    H     0.08194   0.63559   0.16345   0.00000  Uiso   1.00
H96    H     0.12227   0.59493   0.85559   0.00000  Uiso   1.00
H97    H     0.99352   0.56966   0.79399   0.00000  Uiso   1.00
H98    H     0.93791   0.57853   0.79197   0.00000  Uiso   1.00
H99    H     0.88412   0.48889   0.17369   0.00000  Uiso   1.00
H100   H     0.93737   0.47776   0.20080   0.00000  Uiso   1.00
H101   H     0.12024   0.68681   0.42717   0.00000  Uiso   1.00
H102   H     0.83864   0.48125   0.44246   0.00000  Uiso   1.00
C103   C     0.77532   0.48805   0.44343   0.00000  Uiso   1.00
C104   C     0.75285   0.50435   0.44385   0.00000  Uiso   1.00
C105   C     0.77338   0.54361   0.44215   0.00000  Uiso   1.00
S106   S     0.82035   0.56017   0.44513   0.00000  Uiso   1.00
C107   C     0.18069   0.71365   0.44274   0.00000  Uiso   1.00
C108   C     0.19101   0.75093   0.43881   0.00000  Uiso   1.00
S109   S     0.21792   0.70583   0.45012   0.00000  Uiso   1.00
H110   H     0.76602   0.45827   0.44500   0.00000  Uiso   1.00
H111   H     0.17088   0.76065   0.43716   0.00000  Uiso   1.00
C112   C     0.51717   0.51595   0.51029   0.00000  Uiso   1.00
C113   C     0.55231   0.51537   0.52227   0.00000  Uiso   1.00
C114   C     0.58137   0.53859   0.33396   0.00000  Uiso   1.00
C115   C     0.61401   0.53743   0.32626   0.00000  Uiso   1.00
C116   C     0.61862   0.51315   0.51208   0.00000  Uiso   1.00
C117   C     0.59016   0.49080   0.70909   0.00000  Uiso   1.00
C118   C     0.55760   0.49203   0.71265   0.00000  Uiso   1.00
H119   H     0.53460   0.47379   0.85741   0.00000  Uiso   1.00
C120   C     0.52236   0.55366   0.50266   0.00000  Uiso   1.00
C121   C     0.55116   0.58238   0.66477   0.00000  Uiso   1.00
C122   C     0.55647   0.61805   0.66400   0.00000  Uiso   1.00
C123   C     0.53298   0.62604   0.49751   0.00000  Uiso   1.00
C124   C     0.50515   0.59786   0.32474   0.00000  Uiso   1.00
C125   C     0.49984   0.56244   0.33149   0.00000  Uiso   1.00
N126   N     0.64990   0.50974   0.50772   0.00000  Uiso   1.00
C127   C     0.68221   0.53790   0.45334   0.00000  Uiso   1.00
N128   N     0.53831   0.66156   0.50134   0.00000  Uiso   1.00
C129   C     0.51025   0.66633   0.45864   0.00000  Uiso   1.00
C130   C     0.51515   0.70259   0.44560   0.00000  Uiso   1.00
H131   H     0.57721   0.55699   0.18530   0.00000  Uiso   1.00
H132   H     0.63559   0.55365   0.16345   0.00000  Uiso   1.00
H133   H     0.59493   0.47266   0.85559   0.00000  Uiso   1.00
H134   H     0.56966   0.57614   0.79399   0.00000  Uiso   1.00
H135   H     0.57853   0.64062   0.79197   0.00000  Uiso   1.00
H136   H     0.48889   0.60477   0.17369   0.00000  Uiso   1.00
H137   H     0.47776   0.54039   0.20080   0.00000  Uiso   1.00
H138   H     0.68681   0.56657   0.42717   0.00000  Uiso   1.00
H139   H     0.48125   0.64261   0.44246   0.00000  Uiso   1.00
C140   C     0.48805   0.71273   0.44343   0.00000  Uiso   1.00
C141   C     0.50435   0.75150   0.44385   0.00000  Uiso   1.00
C142   C     0.54361   0.77023   0.44215   0.00000  Uiso   1.00
S143   S     0.56017   0.73982   0.44513   0.00000  Uiso   1.00
C144   C     0.71365   0.53296   0.44274   0.00000  Uiso   1.00
C145   C     0.75093   0.55992   0.43881   0.00000  Uiso   1.00
S146   S     0.70583   0.48791   0.45012   0.00000  Uiso   1.00
H147   H     0.45827   0.69225   0.44500   0.00000  Uiso   1.00
H148   H     0.76065   0.58977   0.43716   0.00000  Uiso   1.00
C149   C     0.48405   0.00122   0.51029   0.00000  Uiso   1.00
C150   C     0.48463   0.03694   0.52227   0.00000  Uiso   1.00
C151   C     0.46141   0.04278   0.33396   0.00000  Uiso   1.00
C152   C     0.46257   0.07658   0.32626   0.00000  Uiso   1.00
C153   C     0.48685   0.10547   0.51208   0.00000  Uiso   1.00
C154   C     0.50920   0.09936   0.70909   0.00000  Uiso   1.00
C155   C     0.50797   0.06557   0.71265   0.00000  Uiso   1.00
H156   H     0.52621   0.06081   0.85741   0.00000  Uiso   1.00
C157   C     0.44634   0.96870   0.50266   0.00000  Uiso   1.00
C158   C     0.41762   0.96878   0.66477   0.00000  Uiso   1.00
C159   C     0.38195   0.93842   0.66400   0.00000  Uiso   1.00
C160   C     0.37396   0.90694   0.49751   0.00000  Uiso   1.00
C161   C     0.40214   0.90729   0.32474   0.00000  Uiso   1.00
C162   C     0.43756   0.93740   0.33149   0.00000  Uiso   1.00
N163   N     0.49026   0.14016   0.50772   0.00000  Uiso   1.00
C164   C     0.46210   0.14431   0.45334   0.00000  Uiso   1.00
N165   N     0.33844   0.87675   0.50134   0.00000  Uiso   1.00
C166   C     0.33367   0.84392   0.45864   0.00000  Uiso   1.00
C167   C     0.29741   0.81256   0.44560   0.00000  Uiso   1.00
H168   H     0.44301   0.02022   0.18530   0.00000  Uiso   1.00
H169   H     0.44635   0.08194   0.16345   0.00000  Uiso   1.00
H170   H     0.52734   0.12227   0.85559   0.00000  Uiso   1.00
H171   H     0.42386   0.99352   0.79399   0.00000  Uiso   1.00
H172   H     0.35938   0.93791   0.79197   0.00000  Uiso   1.00
H173   H     0.39523   0.88412   0.17369   0.00000  Uiso   1.00
H174   H     0.45961   0.93737   0.20080   0.00000  Uiso   1.00
H175   H     0.43343   0.12024   0.42717   0.00000  Uiso   1.00
H176   H     0.35739   0.83864   0.44246   0.00000  Uiso   1.00
C177   C     0.28727   0.77532   0.44343   0.00000  Uiso   1.00
C178   C     0.24850   0.75285   0.44385   0.00000  Uiso   1.00
C179   C     0.22977   0.77338   0.44215   0.00000  Uiso   1.00
S180   S     0.26018   0.82035   0.44513   0.00000  Uiso   1.00
C181   C     0.46704   0.18069   0.44274   0.00000  Uiso   1.00
C182   C     0.44008   0.19101   0.43881   0.00000  Uiso   1.00
S183   S     0.51209   0.21792   0.45012   0.00000  Uiso   1.00
H184   H     0.30775   0.76602   0.44500   0.00000  Uiso   1.00
H185   H     0.41023   0.17088   0.43716   0.00000  Uiso   1.00
C186   C     0.99878   0.48283   0.51029   0.00000  Uiso   1.00
C187   C     0.96306   0.44769   0.52227   0.00000  Uiso   1.00
C188   C     0.95722   0.41863   0.33396   0.00000  Uiso   1.00
C189   C     0.92342   0.38599   0.32626   0.00000  Uiso   1.00
C190   C     0.89453   0.38138   0.51208   0.00000  Uiso   1.00
C191   C     0.90064   0.40984   0.70909   0.00000  Uiso   1.00
C192   C     0.93443   0.44240   0.71265   0.00000  Uiso   1.00
H193   H     0.93919   0.46540   0.85741   0.00000  Uiso   1.00
C194   C     0.03130   0.47764   0.50266   0.00000  Uiso   1.00
C195   C     0.03122   0.44884   0.66477   0.00000  Uiso   1.00
C196   C     0.06158   0.44353   0.66400   0.00000  Uiso   1.00
C197   C     0.09306   0.46702   0.49751   0.00000  Uiso   1.00
C198   C     0.09271   0.49485   0.32474   0.00000  Uiso   1.00
C199   C     0.06260   0.50016   0.33149   0.00000  Uiso   1.00
N200   N     0.85984   0.35010   0.50772   0.00000  Uiso   1.00
C201   C     0.85569   0.31779   0.45334   0.00000  Uiso   1.00
N202   N     0.12325   0.46169   0.50134   0.00000  Uiso   1.00
C203   C     0.15608   0.48975   0.45864   0.00000  Uiso   1.00
C204   C     0.18744   0.48485   0.44560   0.00000  Uiso   1.00
H205   H     0.97978   0.42279   0.18530   0.00000  Uiso   1.00
H206   H     0.91806   0.36441   0.16345   0.00000  Uiso   1.00
H207   H     0.87773   0.40507   0.85559   0.00000  Uiso   1.00
H208   H     0.00648   0.43034   0.79399   0.00000  Uiso   1.00
H209   H     0.06209   0.42147   0.79197   0.00000  Uiso   1.00
H210   H     0.11588   0.51111   0.17369   0.00000  Uiso   1.00
H211   H     0.06263   0.52224   0.20080   0.00000  Uiso   1.00
H212   H     0.87976   0.31319   0.42717   0.00000  Uiso   1.00
H213   H     0.16136   0.51875   0.44246   0.00000  Uiso   1.00
C214   C     0.22468   0.51195   0.44343   0.00000  Uiso   1.00
C215   C     0.24715   0.49565   0.44385   0.00000  Uiso   1.00
C216   C     0.22662   0.45639   0.44215   0.00000  Uiso   1.00
S217   S     0.17965   0.43983   0.44513   0.00000  Uiso   1.00
C218   C     0.81931   0.28635   0.44274   0.00000  Uiso   1.00
C219   C     0.80899   0.24907   0.43881   0.00000  Uiso   1.00
S220   S     0.78208   0.29417   0.45012   0.00000  Uiso   1.00
H221   H     0.23398   0.54173   0.44500   0.00000  Uiso   1.00
H222   H     0.82912   0.23935   0.43716   0.00000  Uiso   1.00
loop_
_geom_bond_atom_site_label_1
_geom_bond_atom_site_label_2
_geom_bond_distance
_geom_bond_site_symmetry_2
_ccdc_geom_bond_type
C1     C2      1.461   .     S
C1     C9      1.459   .     S
C1     C112    1.367   .     D
C2     C3      1.396   .     D
C2     C7      1.394   .     S
C3     C4      1.370   .     S
C3     H20     1.095   .     S
C4     C5      1.397   .     D
C4     H21     1.095   .     S
C5     C6      1.399   .     S
C5     N15     1.365   .     S
C6     C7      1.368   .     D
C6     H22     1.093   .     S
C7     H8      1.091   .     S
C9     C10     1.399   .     S
C9     C14     1.394   .     D
C10    C11     1.373   .     D
C10    H23     1.093   .     S
C11    C12     1.395   .     S
C11    H24     1.091   .     S
C12    C13     1.399   .     D
C12    N17     1.367   .     S
C13    C14     1.363   .     S
C13    H25     1.095   .     S
C14    H26     1.089   .     S
N15    C16     1.279   .     D
C16    H27     1.105   .     S
C16    C33     1.409   .     S
N17    C18     1.281   .     D
C18    C19     1.405   .     S
C18    H28     1.105   .     S
C19    C29     1.374   .     D
C19    S32     1.717   .     S
C29    C30     1.389   .     S
C29    H36     1.087   .     S
C30    C31     1.401   .     D
C30    S183    1.703   .     S
C31    S32     1.700   .     S
C31    C182    1.389   .     S
C33    C34     1.374   .     D
C33    S35     1.718   .     S
C34    H37     1.086   .     S
C34    C216    1.389   .     S
S35    C215    1.703   .     S
C38    C39     1.461   .     S
C38    C46     1.459   1_565 S
C38    C149    1.367   1_565 D
C39    C40     1.396   .     D
C39    C44     1.394   .     S
C40    C41     1.370   .     S
C40    H57     1.095   .     S
C41    C42     1.397   .     D
C41    H58     1.095   .     S
C42    C43     1.399   .     S
C42    N52     1.365   .     S
C43    C44     1.368   .     D
C43    H59     1.093   .     S
C44    H45     1.091   .     S
C46    C38     1.459   1_545 S
C46    C47     1.399   .     S
C46    C51     1.394   .     D
C47    C48     1.373   .     D
C47    H60     1.093   .     S
C48    C49     1.395   .     S
C48    H61     1.091   .     S
C49    C50     1.399   .     D
C49    N54     1.367   .     S
C50    C51     1.363   .     S
C50    H62     1.095   .     S
C51    H63     1.089   .     S
N52    C53     1.279   .     D
C53    H64     1.105   .     S
C53    C70     1.409   .     S
N54    C55     1.281   .     D
C55    C56     1.405   .     S
C55    H65     1.105   .     S
C56    C66     1.374   .     D
C56    S69     1.717   .     S
C66    C67     1.389   .     S
C66    H73     1.087   .     S
C67    C68     1.401   .     D
C67    S220    1.703   .     S
C68    S69     1.700   .     S
C68    C219    1.389   .     S
C70    C71     1.374   .     D
C70    S72     1.718   .     S
C71    H74     1.086   .     S
C71    C142    1.389   .     S
S72    C141    1.703   .     S
C75    C76     1.461   .     S
C75    C83     1.459   1_455 S
C75    C186    1.367   1_455 D
C76    C77     1.396   .     S
C76    C81     1.394   .     D
C77    C78     1.370   .     D
C77    H94     1.095   .     S
C78    C79     1.397   .     S
C78    H95     1.095   .     S
C79    C80     1.399   .     D
C79    N89     1.365   .     S
C80    C81     1.368   .     S
C80    H96     1.093   .     S
C81    H82     1.091   .     S
C83    C75     1.459   1_655 S
C83    C84     1.399   .     D
C83    C88     1.394   .     S
C84    C85     1.373   .     S
C84    H97     1.093   .     S
C85    C86     1.395   .     D
C85    H98     1.091   .     S
C86    C87     1.399   .     S
C86    N91     1.367   .     S
C87    C88     1.363   .     D
C87    H99     1.095   .     S
C88    H100    1.089   .     S
N89    C90     1.279   .     D
C90    H101    1.105   .     S
C90    C107    1.409   .     S
N91    C92     1.281   .     D
C92    C93     1.405   .     S
C92    H102    1.105   .     S
C93    C103    1.374   .     D
C93    S106    1.717   .     S
C103   C104    1.389   .     S
C103   H110    1.087   .     S
C104   C105    1.401   .     D
C104   S146    1.703   .     S
C105   S106    1.700   .     S
C105   C145    1.389   .     S
C107   C108    1.374   .     D
C107   S109    1.718   .     S
C108   H111    1.086   .     S
C108   C179    1.389   .     S
S109   C178    1.703   .     S
C112   C113    1.461   .     S
C112   C120    1.459   .     S
C113   C114    1.396   .     D
C113   C118    1.394   .     S
C114   C115    1.370   .     S
C114   H131    1.095   .     S
C115   C116    1.397   .     D
C115   H132    1.095   .     S
C116   C117    1.399   .     S
C116   N126    1.365   .     S
C117   C118    1.368   .     D
C117   H133    1.093   .     S
C118   H119    1.091   .     S
C120   C121    1.399   .     D
C120   C125    1.394   .     S
C121   C122    1.373   .     S
C121   H134    1.093   .     S
C122   C123    1.395   .     D
C122   H135    1.091   .     S
C123   C124    1.399   .     S
C123   N128    1.367   .     S
C124   C125    1.363   .     D
C124   H136    1.095   .     S
C125   H137    1.089   .     S
N126   C127    1.279   .     D
C127   H138    1.105   .     S
C127   C144    1.409   .     S
N128   C129    1.281   .     D
C129   C130    1.405   .     S
C129   H139    1.105   .     S
C130   C140    1.374   .     D
C130   S143    1.717   .     S
C140   C141    1.389   .     S
C140   H147    1.087   .     S
C141   C142    1.401   .     D
C142   S143    1.700   .     S
C144   C145    1.374   .     D
C144   S146    1.718   .     S
C145   H148    1.086   .     S
C149   C38     1.367   1_545 D
C149   C150    1.461   .     S
C149   C157    1.459   1_545 S
C150   C151    1.396   .     S
C150   C155    1.394   .     D
C151   C152    1.370   .     D
C151   H168    1.095   .     S
C152   C153    1.397   .     S
C152   H169    1.095   .     S
C153   C154    1.399   .     D
C153   N163    1.365   .     S
C154   C155    1.368   .     S
C154   H170    1.093   .     S
C155   H156    1.091   .     S
C157   C149    1.459   1_565 S
C157   C158    1.399   .     D
C157   C162    1.394   .     S
C158   C159    1.373   .     S
C158   H171    1.093   .     S
C159   C160    1.395   .     D
C159   H172    1.091   .     S
C160   C161    1.399   .     S
C160   N165    1.367   .     S
C161   C162    1.363   .     D
C161   H173    1.095   .     S
C162   H174    1.089   .     S
N163   C164    1.279   .     D
C164   H175    1.105   .     S
C164   C181    1.409   .     S
N165   C166    1.281   .     D
C166   C167    1.405   .     S
C166   H176    1.105   .     S
C167   C177    1.374   .     D
C167   S180    1.717   .     S
C177   C178    1.389   .     S
C177   H184    1.087   .     S
C178   C179    1.401   .     D
C179   S180    1.700   .     S
C181   C182    1.374   .     D
C181   S183    1.718   .     S
C182   H185    1.086   .     S
C186   C75     1.367   1_655 D
C186   C187    1.461   .     S
C186   C194    1.459   1_655 S
C187   C188    1.396   .     S
C187   C192    1.394   .     D
C188   C189    1.370   .     D
C188   H205    1.095   .     S
C189   C190    1.397   .     S
C189   H206    1.095   .     S
C190   C191    1.399   .     D
C190   N200    1.365   .     S
C191   C192    1.368   .     S
C191   H207    1.093   .     S
C192   H193    1.091   .     S
C194   C186    1.459   1_455 S
C194   C195    1.399   .     D
C194   C199    1.394   .     S
C195   C196    1.373   .     S
C195   H208    1.093   .     S
C196   C197    1.395   .     D
C196   H209    1.091   .     S
C197   C198    1.399   .     S
C197   N202    1.367   .     S
C198   C199    1.363   .     D
C198   H210    1.095   .     S
C199   H211    1.089   .     S
N200   C201    1.279   .     D
C201   H212    1.105   .     S
C201   C218    1.409   .     S
N202   C203    1.281   .     D
C203   C204    1.405   .     S
C203   H213    1.105   .     S
C204   C214    1.374   .     D
C204   S217    1.717   .     S
C214   C215    1.389   .     S
C214   H221    1.087   .     S
C215   C216    1.401   .     D
C216   S217    1.700   .     S
C218   C219    1.374   .     D
C218   S220    1.718   .     S
C219   H222    1.086   .     S
