data_270
_audit_creation_date              2023-09-08
_audit_creation_method            'Materials Studio'
_symmetry_space_group_name_H-M    'P1'
_symmetry_Int_Tables_number       1
_symmetry_cell_setting            triclinic
loop_
_symmetry_equiv_pos_as_xyz
  x,y,z
_cell_length_a                    43.0452
_cell_length_b                    43.0452
_cell_length_c                    3.3639
_cell_angle_alpha                 90.0000
_cell_angle_beta                  90.0000
_cell_angle_gamma                 120.0000
loop_
_atom_site_label
_atom_site_type_symbol
_atom_site_fract_x
_atom_site_fract_y
_atom_site_fract_z
_atom_site_U_iso_or_equiv
_atom_site_adp_type
_atom_site_occupancy
N1     N     0.31561   0.69036   0.50000   0.00000  Uiso   1.00
C2     C     0.29163   0.64882   0.50000   0.00000  Uiso   1.00
C3     C     0.38322   0.75390   0.50000   0.00000  Uiso   1.00
C4     C     0.34713   0.57442   0.50000   0.00000  Uiso   1.00
C5     C     0.36572   0.55005   0.50000   0.00000  Uiso   1.00
C6     C     0.40806   0.56744   0.50000   0.00000  Uiso   1.00
C7     C     0.43141   0.60938   0.50000   0.00000  Uiso   1.00
C8     C     0.41304   0.63398   0.50000   0.00000  Uiso   1.00
N9     N     0.11537   0.57394   0.50000   0.00000  Uiso   1.00
C10    C     0.46495   0.55381   0.50000   0.00000  Uiso   1.00
C11    C     0.48247   0.52585   0.50000   0.00000  Uiso   1.00
C12    C     0.45727   0.48272   0.50000   0.00000  Uiso   1.00
C13    C     0.47465   0.45725   0.50000   0.00000  Uiso   1.00
O14    O     0.89740   0.48582   0.50000   0.00000  Uiso   1.00
H15    H     0.31444   0.56031   0.50000   0.00000  Uiso   1.00
H16    H     0.34729   0.51761   0.50000   0.00000  Uiso   1.00
H17    H     0.46366   0.62260   0.50000   0.00000  Uiso   1.00
H18    H     0.43177   0.66628   0.50000   0.00000  Uiso   1.00
H19    H     0.10345   0.59191   0.50000   0.00000  Uiso   1.00
H20    H     0.42426   0.46855   0.50000   0.00000  Uiso   1.00
H21    H     0.45472   0.42411   0.50000   0.00000  Uiso   1.00
N22    N     0.30964   0.62525   0.50000   0.00000  Uiso   1.00
C23    C     0.35118   0.64281   0.50000   0.00000  Uiso   1.00
C24    C     0.24610   0.62932   0.50000   0.00000  Uiso   1.00
C25    C     0.42558   0.77271   0.50000   0.00000  Uiso   1.00
C26    C     0.44995   0.81567   0.50000   0.00000  Uiso   1.00
C27    C     0.43256   0.84062   0.50000   0.00000  Uiso   1.00
C28    C     0.39062   0.82203   0.50000   0.00000  Uiso   1.00
C29    C     0.36602   0.77906   0.50000   0.00000  Uiso   1.00
N30    N     0.42606   0.54143   0.50000   0.00000  Uiso   1.00
C31    C     0.44619   0.91114   0.50000   0.00000  Uiso   1.00
C32    C     0.47415   0.95662   0.50000   0.00000  Uiso   1.00
C33    C     0.51728   0.97455   0.50000   0.00000  Uiso   1.00
C34    C     0.54275   0.01740   0.50000   0.00000  Uiso   1.00
O35    O     0.51418   0.41158   0.50000   0.00000  Uiso   1.00
H36    H     0.43969   0.75413   0.50000   0.00000  Uiso   1.00
H37    H     0.48239   0.82968   0.50000   0.00000  Uiso   1.00
H38    H     0.37740   0.84106   0.50000   0.00000  Uiso   1.00
H39    H     0.33372   0.76549   0.50000   0.00000  Uiso   1.00
H40    H     0.40809   0.51154   0.50000   0.00000  Uiso   1.00
H41    H     0.53145   0.95571   0.50000   0.00000  Uiso   1.00
H42    H     0.57589   0.03061   0.50000   0.00000  Uiso   1.00
N43    N     0.37475   0.68439   0.50000   0.00000  Uiso   1.00
C44    C     0.35719   0.70837   0.50000   0.00000  Uiso   1.00
C45    C     0.37068   0.61678   0.50000   0.00000  Uiso   1.00
C46    C     0.22729   0.65287   0.50000   0.00000  Uiso   1.00
C47    C     0.18433   0.63428   0.50000   0.00000  Uiso   1.00
C48    C     0.15938   0.59194   0.50000   0.00000  Uiso   1.00
C49    C     0.17797   0.56859   0.50000   0.00000  Uiso   1.00
C50    C     0.22094   0.58696   0.50000   0.00000  Uiso   1.00
N51    N     0.45857   0.88463   0.50000   0.00000  Uiso   1.00
C52    C     0.08886   0.53505   0.50000   0.00000  Uiso   1.00
C53    C     0.04338   0.51753   0.50000   0.00000  Uiso   1.00
C54    C     0.02545   0.54273   0.50000   0.00000  Uiso   1.00
C55    C     0.98260   0.52535   0.50000   0.00000  Uiso   1.00
O56    O     0.58842   0.10260   0.50000   0.00000  Uiso   1.00
H57    H     0.24587   0.68556   0.50000   0.00000  Uiso   1.00
H58    H     0.17032   0.65271   0.50000   0.00000  Uiso   1.00
H59    H     0.15894   0.53634   0.50000   0.00000  Uiso   1.00
H60    H     0.23451   0.56823   0.50000   0.00000  Uiso   1.00
H61    H     0.48846   0.89655   0.50000   0.00000  Uiso   1.00
H62    H     0.04429   0.57574   0.50000   0.00000  Uiso   1.00
H63    H     0.96939   0.54528   0.50000   0.00000  Uiso   1.00
N64    N     0.68439   0.30964   0.50000   0.00000  Uiso   1.00
C65    C     0.70837   0.35118   0.50000   0.00000  Uiso   1.00
C66    C     0.61678   0.24610   0.50000   0.00000  Uiso   1.00
C67    C     0.65287   0.42558   0.50000   0.00000  Uiso   1.00
C68    C     0.63428   0.44995   0.50000   0.00000  Uiso   1.00
C69    C     0.59194   0.43256   0.50000   0.00000  Uiso   1.00
C70    C     0.56859   0.39062   0.50000   0.00000  Uiso   1.00
C71    C     0.58696   0.36602   0.50000   0.00000  Uiso   1.00
N72    N     0.88463   0.42606   0.50000   0.00000  Uiso   1.00
C73    C     0.53505   0.44619   0.50000   0.00000  Uiso   1.00
C74    C     0.51753   0.47415   0.50000   0.00000  Uiso   1.00
C75    C     0.54273   0.51728   0.50000   0.00000  Uiso   1.00
C76    C     0.52535   0.54275   0.50000   0.00000  Uiso   1.00
O77    O     0.10260   0.51418   0.50000   0.00000  Uiso   1.00
H78    H     0.68556   0.43969   0.50000   0.00000  Uiso   1.00
H79    H     0.65271   0.48239   0.50000   0.00000  Uiso   1.00
H80    H     0.53634   0.37740   0.50000   0.00000  Uiso   1.00
H81    H     0.56823   0.33372   0.50000   0.00000  Uiso   1.00
H82    H     0.89655   0.40809   0.50000   0.00000  Uiso   1.00
H83    H     0.57574   0.53145   0.50000   0.00000  Uiso   1.00
H84    H     0.54528   0.57589   0.50000   0.00000  Uiso   1.00
N85    N     0.69036   0.37475   0.50000   0.00000  Uiso   1.00
C86    C     0.64882   0.35719   0.50000   0.00000  Uiso   1.00
C87    C     0.75390   0.37068   0.50000   0.00000  Uiso   1.00
C88    C     0.57442   0.22729   0.50000   0.00000  Uiso   1.00
C89    C     0.55005   0.18433   0.50000   0.00000  Uiso   1.00
C90    C     0.56744   0.15938   0.50000   0.00000  Uiso   1.00
C91    C     0.60938   0.17797   0.50000   0.00000  Uiso   1.00
C92    C     0.63398   0.22094   0.50000   0.00000  Uiso   1.00
N93    N     0.57394   0.45857   0.50000   0.00000  Uiso   1.00
C94    C     0.55381   0.08886   0.50000   0.00000  Uiso   1.00
C95    C     0.52585   0.04338   0.50000   0.00000  Uiso   1.00
C96    C     0.48272   0.02545   0.50000   0.00000  Uiso   1.00
C97    C     0.45725   0.98260   0.50000   0.00000  Uiso   1.00
O98    O     0.48582   0.58842   0.50000   0.00000  Uiso   1.00
H99    H     0.56031   0.24587   0.50000   0.00000  Uiso   1.00
H100   H     0.51761   0.17032   0.50000   0.00000  Uiso   1.00
H101   H     0.62260   0.15894   0.50000   0.00000  Uiso   1.00
H102   H     0.66628   0.23451   0.50000   0.00000  Uiso   1.00
H103   H     0.59191   0.48846   0.50000   0.00000  Uiso   1.00
H104   H     0.46855   0.04429   0.50000   0.00000  Uiso   1.00
H105   H     0.42411   0.96939   0.50000   0.00000  Uiso   1.00
N106   N     0.62525   0.31561   0.50000   0.00000  Uiso   1.00
C107   C     0.64281   0.29163   0.50000   0.00000  Uiso   1.00
C108   C     0.62932   0.38322   0.50000   0.00000  Uiso   1.00
C109   C     0.77271   0.34713   0.50000   0.00000  Uiso   1.00
C110   C     0.81567   0.36572   0.50000   0.00000  Uiso   1.00
C111   C     0.84062   0.40806   0.50000   0.00000  Uiso   1.00
C112   C     0.82203   0.43141   0.50000   0.00000  Uiso   1.00
C113   C     0.77906   0.41304   0.50000   0.00000  Uiso   1.00
N114   N     0.54143   0.11537   0.50000   0.00000  Uiso   1.00
C115   C     0.91114   0.46495   0.50000   0.00000  Uiso   1.00
C116   C     0.95662   0.48247   0.50000   0.00000  Uiso   1.00
C117   C     0.97455   0.45727   0.50000   0.00000  Uiso   1.00
C118   C     0.01740   0.47465   0.50000   0.00000  Uiso   1.00
O119   O     0.41158   0.89740   0.50000   0.00000  Uiso   1.00
H120   H     0.75413   0.31444   0.50000   0.00000  Uiso   1.00
H121   H     0.82968   0.34729   0.50000   0.00000  Uiso   1.00
H122   H     0.84106   0.46366   0.50000   0.00000  Uiso   1.00
H123   H     0.76549   0.43177   0.50000   0.00000  Uiso   1.00
H124   H     0.51154   0.10345   0.50000   0.00000  Uiso   1.00
H125   H     0.95571   0.42426   0.50000   0.00000  Uiso   1.00
H126   H     0.03061   0.45472   0.50000   0.00000  Uiso   1.00
loop_
_geom_bond_atom_site_label_1
_geom_bond_atom_site_label_2
_geom_bond_distance
_geom_bond_site_symmetry_2
_ccdc_geom_bond_type
N1     C2      1.555   .     D
N1     C44     1.555   .     S
C2     N22     1.555   .     S
C2     C24     1.703   .     S
C3     C25     1.582   .     D
C3     C29     1.588   .     S
C3     C44     1.703   .     S
C4     C5      1.606   .     D
C4     H15     1.222   .     S
C4     C45     1.582   .     S
C5     C6      1.587   .     S
C5     H16     1.213   .     S
C6     C7      1.567   .     D
C6     N30     1.650   .     S
C7     C8      1.607   .     S
C7     H17     1.209   .     S
C8     H18     1.209   .     S
C8     C45     1.588   .     D
N9     H19     1.122   .     S
N9     C48     1.650   .     S
N9     C52     1.481   .     S
C10    C11     1.710   .     S
C10    N30     1.481   .     S
C10    O98     1.299   .     D
C11    C12     1.615   .     S
C11    C76     1.610   .     D
C12    C13     1.607   .     D
C12    H20     1.235   .     S
C13    H21     1.244   .     S
C13    C74     1.610   .     S
O14    C115    1.299   .     D
N22    C23     1.555   .     D
C23    N43     1.555   .     S
C23    C45     1.703   .     S
C24    C46     1.582   .     D
C24    C50     1.588   .     S
C25    C26     1.606   .     S
C25    H36     1.222   .     S
C26    C27     1.587   .     D
C26    H37     1.213   .     S
C27    C28     1.567   .     S
C27    N51     1.650   .     S
C28    C29     1.607   .     D
C28    H38     1.209   .     S
C29    H39     1.209   .     S
N30    H40     1.122   .     S
C31    C32     1.710   .     S
C31    N51     1.481   .     S
C31    O119    1.299   .     D
C32    C33     1.615   .     D
C32    C97     1.610   .     S
C33    C34     1.607   1_565 S
C33    H41     1.235   .     S
C34    C33     1.607   1_545 S
C34    H42     1.244   .     S
C34    C95     1.610   .     D
O35    C73     1.299   .     D
N43    C44     1.555   .     D
C46    C47     1.606   .     S
C46    H57     1.222   .     S
C47    C48     1.587   .     D
C47    H58     1.213   .     S
C48    C49     1.567   .     S
C49    C50     1.607   .     D
C49    H59     1.209   .     S
C50    H60     1.209   .     S
N51    H61     1.122   .     S
C52    C53     1.710   .     S
C52    O77     1.299   .     D
C53    C54     1.615   .     S
C53    C118    1.610   .     D
C54    C55     1.607   1_455 D
C54    H62     1.235   .     S
C55    C54     1.607   1_655 D
C55    H63     1.244   .     S
C55    C116    1.610   .     S
O56    C94     1.299   .     D
N64    C65     1.555   .     S
N64    C107    1.555   .     D
C65    N85     1.555   .     D
C65    C87     1.703   .     S
C66    C88     1.582   .     D
C66    C92     1.588   .     S
C66    C107    1.703   .     S
C67    C68     1.606   .     D
C67    H78     1.222   .     S
C67    C108    1.582   .     S
C68    C69     1.587   .     S
C68    H79     1.213   .     S
C69    C70     1.567   .     D
C69    N93     1.650   .     S
C70    C71     1.607   .     S
C70    H80     1.209   .     S
C71    H81     1.209   .     S
C71    C108    1.588   .     D
N72    H82     1.122   .     S
N72    C111    1.650   .     S
N72    C115    1.481   .     S
C73    C74     1.710   .     S
C73    N93     1.481   .     S
C74    C75     1.615   .     D
C75    C76     1.607   .     S
C75    H83     1.235   .     S
C76    H84     1.244   .     S
N85    C86     1.555   .     S
C86    N106    1.555   .     D
C86    C108    1.703   .     S
C87    C109    1.582   .     D
C87    C113    1.588   .     S
C88    C89     1.606   .     S
C88    H99     1.222   .     S
C89    C90     1.587   .     D
C89    H100    1.213   .     S
C90    C91     1.567   .     S
C90    N114    1.650   .     S
C91    C92     1.607   .     D
C91    H101    1.209   .     S
C92    H102    1.209   .     S
N93    H103    1.122   .     S
C94    C95     1.710   .     S
C94    N114    1.481   .     S
C95    C96     1.615   .     S
C96    C97     1.607   1_545 D
C96    H104    1.235   .     S
C97    C96     1.607   1_565 D
C97    H105    1.244   .     S
N106   C107    1.555   .     S
C109   C110    1.606   .     S
C109   H120    1.222   .     S
C110   C111    1.587   .     D
C110   H121    1.213   .     S
C111   C112    1.567   .     S
C112   C113    1.607   .     D
C112   H122    1.209   .     S
C113   H123    1.209   .     S
N114   H124    1.122   .     S
C115   C116    1.710   .     S
C116   C117    1.615   .     D
C117   C118    1.607   1_655 S
C117   H125    1.235   .     S
C118   C117    1.607   1_455 S
C118   H126    1.244   .     S
