data_271
_audit_creation_date              2023-09-08
_audit_creation_method            'Materials Studio'
_symmetry_space_group_name_H-M    'P1'
_symmetry_Int_Tables_number       1
_symmetry_cell_setting            triclinic
loop_
_symmetry_equiv_pos_as_xyz
  x,y,z
_cell_length_a                    45.9100
_cell_length_b                    45.9100
_cell_length_c                    3.6600
_cell_angle_alpha                 90.0000
_cell_angle_beta                  90.0000
_cell_angle_gamma                 90.0000
loop_
_atom_site_label
_atom_site_type_symbol
_atom_site_fract_x
_atom_site_fract_y
_atom_site_fract_z
_atom_site_U_iso_or_equiv
_atom_site_adp_type
_atom_site_occupancy
C1     C     0.02074   0.56050   0.47439   0.00000  Uiso   1.00
C2     C     0.04970   0.55427   0.55174   0.00000  Uiso   1.00
C3     C     0.05832   0.52543   0.59197   0.00000  Uiso   1.00
C4     C     0.08667   0.51783   0.67256   0.00000  Uiso   1.00
C5     C     0.14664   0.34067   0.51120   0.00000  Uiso   1.00
C6     C     0.11246   0.62481   0.60152   0.00000  Uiso   1.00
C7     C     0.07175   0.57863   0.57415   0.00000  Uiso   1.00
C8     C     0.20015   0.32910   0.41027   0.00000  Uiso   1.00
C9     C     0.21701   0.27965   0.50607   0.00000  Uiso   1.00
C10    C     0.18877   0.27105   0.59687   0.00000  Uiso   1.00
C11    C     0.16618   0.29142   0.59551   0.00000  Uiso   1.00
C12    C     0.17154   0.32049   0.50273   0.00000  Uiso   1.00
C13    C     0.24024   0.25877   0.50920   0.00000  Uiso   1.00
N14    N     0.99825   0.54137   0.49356   0.00000  Uiso   1.00
N15    N     0.04137   0.50175   0.52780   0.00000  Uiso   1.00
C16    C     0.97457   0.55832   0.42939   0.00000  Uiso   1.00
C17    C     0.08807   0.48843   0.64317   0.00000  Uiso   1.00
C18    C     0.06050   0.47926   0.54697   0.00000  Uiso   1.00
C19    C     0.05427   0.45030   0.46963   0.00000  Uiso   1.00
C20    C     0.98843   0.41193   0.37820   0.00000  Uiso   1.00
C21    C     0.07863   0.42825   0.44720   0.00000  Uiso   1.00
C22    C     0.06435   0.60569   0.72852   0.00000  Uiso   1.00
N23    N     0.85128   0.63243   0.40750   0.00000  Uiso   1.00
C24    C     0.77734   0.69140   0.41327   0.00000  Uiso   1.00
C25    C     0.58667   0.01783   0.34881   0.00000  Uiso   1.00
C26    C     0.40214   0.12029   0.44999   0.00000  Uiso   1.00
C27    C     0.37143   0.08438   0.73974   0.00000  Uiso   1.00
C28    C     0.57519   0.89993   0.43441   0.00000  Uiso   1.00
N29    N     0.64872   0.86756   0.61381   0.00000  Uiso   1.00
C30    C     0.61246   0.12481   0.41980   0.00000  Uiso   1.00
C31    C     0.70014   0.82909   0.61103   0.00000  Uiso   1.00
C32    C     0.72266   0.80860   0.60801   0.00000  Uiso   1.00
C33    C     0.71701   0.77965   0.51519   0.00000  Uiso   1.00
C34    C     0.68876   0.77105   0.42437   0.00000  Uiso   1.00
C35    C     0.66618   0.79142   0.42575   0.00000  Uiso   1.00
C36    C     0.67153   0.82049   0.51856   0.00000  Uiso   1.00
C37    C     0.35336   0.15934   0.51010   0.00000  Uiso   1.00
C38    C     0.74023   0.75877   0.51203   0.00000  Uiso   1.00
C39    C     0.10569   0.43565   0.29283   0.00000  Uiso   1.00
C40    C     0.12857   0.41563   0.28159   0.00000  Uiso   1.00
C41    C     0.09786   0.37971   0.57134   0.00000  Uiso   1.00
C42    C     0.07520   0.39993   0.58694   0.00000  Uiso   1.00
O43    O     0.20649   0.35728   0.31896   0.00000  Uiso   1.00
O44    O     0.70649   0.85728   0.70237   0.00000  Uiso   1.00
H45    H     0.10323   0.53541   0.74495   0.00000  Uiso   1.00
H46    H     0.18415   0.24740   0.67213   0.00000  Uiso   1.00
H47    H     0.14312   0.28442   0.67046   0.00000  Uiso   1.00
H48    H     0.10951   0.47664   0.69628   0.00000  Uiso   1.00
H49    H     0.97183   0.39371   0.34063   0.00000  Uiso   1.00
H50    H     0.04167   0.60924   0.84729   0.00000  Uiso   1.00
H51    H     0.75422   0.68452   0.33968   0.00000  Uiso   1.00
H52    H     0.60323   0.03541   0.27642   0.00000  Uiso   1.00
H53    H     0.40558   0.14324   0.33903   0.00000  Uiso   1.00
H54    H     0.34961   0.07770   0.86252   0.00000  Uiso   1.00
H55    H     0.55361   0.89316   0.30573   0.00000  Uiso   1.00
H56    H     0.74578   0.81550   0.68158   0.00000  Uiso   1.00
H57    H     0.68413   0.74740   0.34911   0.00000  Uiso   1.00
H58    H     0.64312   0.78442   0.35077   0.00000  Uiso   1.00
H59    H     0.37508   0.16817   0.40748   0.00000  Uiso   1.00
H60    H     0.10924   0.45833   0.17405   0.00000  Uiso   1.00
H61    H     0.15044   0.42220   0.15916   0.00000  Uiso   1.00
H62    H     0.09450   0.35674   0.68197   0.00000  Uiso   1.00
H63    H     0.05345   0.39360   0.71459   0.00000  Uiso   1.00
C64    C     0.97926   0.43950   0.47439   0.00000  Uiso   1.00
C65    C     0.95030   0.44573   0.55174   0.00000  Uiso   1.00
C66    C     0.94168   0.47457   0.59197   0.00000  Uiso   1.00
C67    C     0.91333   0.48217   0.67256   0.00000  Uiso   1.00
C68    C     0.85336   0.65933   0.51120   0.00000  Uiso   1.00
C69    C     0.88754   0.37519   0.60152   0.00000  Uiso   1.00
C70    C     0.92825   0.42137   0.57415   0.00000  Uiso   1.00
C71    C     0.79985   0.67090   0.41027   0.00000  Uiso   1.00
C72    C     0.78299   0.72035   0.50607   0.00000  Uiso   1.00
C73    C     0.81123   0.72895   0.59687   0.00000  Uiso   1.00
C74    C     0.83382   0.70858   0.59551   0.00000  Uiso   1.00
C75    C     0.82846   0.67951   0.50273   0.00000  Uiso   1.00
C76    C     0.75976   0.74123   0.50920   0.00000  Uiso   1.00
N77    N     0.00175   0.45863   0.49356   0.00000  Uiso   1.00
N78    N     0.95863   0.49825   0.52780   0.00000  Uiso   1.00
C79    C     0.02543   0.44168   0.42939   0.00000  Uiso   1.00
C80    C     0.91193   0.51157   0.64317   0.00000  Uiso   1.00
C81    C     0.93950   0.52074   0.54697   0.00000  Uiso   1.00
C82    C     0.94573   0.54970   0.46963   0.00000  Uiso   1.00
C83    C     0.01157   0.58807   0.37820   0.00000  Uiso   1.00
C84    C     0.92137   0.57175   0.44720   0.00000  Uiso   1.00
C85    C     0.93565   0.39431   0.72852   0.00000  Uiso   1.00
N86    N     0.14872   0.36757   0.40750   0.00000  Uiso   1.00
C87    C     0.22266   0.30860   0.41327   0.00000  Uiso   1.00
C88    C     0.41333   0.98217   0.34881   0.00000  Uiso   1.00
C89    C     0.59786   0.87971   0.44999   0.00000  Uiso   1.00
C90    C     0.62857   0.91562   0.73974   0.00000  Uiso   1.00
C91    C     0.42481   0.10007   0.43441   0.00000  Uiso   1.00
N92    N     0.35128   0.13244   0.61381   0.00000  Uiso   1.00
C93    C     0.38754   0.87519   0.41980   0.00000  Uiso   1.00
C94    C     0.29986   0.17091   0.61103   0.00000  Uiso   1.00
C95    C     0.27734   0.19140   0.60801   0.00000  Uiso   1.00
C96    C     0.28299   0.22035   0.51519   0.00000  Uiso   1.00
C97    C     0.31124   0.22895   0.42437   0.00000  Uiso   1.00
C98    C     0.33382   0.20858   0.42575   0.00000  Uiso   1.00
C99    C     0.32847   0.17951   0.51856   0.00000  Uiso   1.00
C100   C     0.64664   0.84066   0.51010   0.00000  Uiso   1.00
C101   C     0.25977   0.24123   0.51203   0.00000  Uiso   1.00
C102   C     0.89431   0.56435   0.29283   0.00000  Uiso   1.00
C103   C     0.87143   0.58437   0.28159   0.00000  Uiso   1.00
C104   C     0.90214   0.62029   0.57134   0.00000  Uiso   1.00
C105   C     0.92480   0.60007   0.58694   0.00000  Uiso   1.00
O106   O     0.79351   0.64272   0.31896   0.00000  Uiso   1.00
O107   O     0.29351   0.14272   0.70237   0.00000  Uiso   1.00
H108   H     0.89677   0.46459   0.74495   0.00000  Uiso   1.00
H109   H     0.81585   0.75260   0.67213   0.00000  Uiso   1.00
H110   H     0.85688   0.71558   0.67046   0.00000  Uiso   1.00
H111   H     0.89049   0.52336   0.69628   0.00000  Uiso   1.00
H112   H     0.02817   0.60629   0.34063   0.00000  Uiso   1.00
H113   H     0.95833   0.39076   0.84729   0.00000  Uiso   1.00
H114   H     0.24579   0.31548   0.33968   0.00000  Uiso   1.00
H115   H     0.39677   0.96459   0.27642   0.00000  Uiso   1.00
H116   H     0.59442   0.85677   0.33903   0.00000  Uiso   1.00
H117   H     0.65039   0.92230   0.86252   0.00000  Uiso   1.00
H118   H     0.44639   0.10684   0.30573   0.00000  Uiso   1.00
H119   H     0.25422   0.18451   0.68158   0.00000  Uiso   1.00
H120   H     0.31587   0.25260   0.34911   0.00000  Uiso   1.00
H121   H     0.35688   0.21558   0.35077   0.00000  Uiso   1.00
H122   H     0.62492   0.83183   0.40748   0.00000  Uiso   1.00
H123   H     0.89076   0.54167   0.17405   0.00000  Uiso   1.00
H124   H     0.84956   0.57780   0.15916   0.00000  Uiso   1.00
H125   H     0.90550   0.64326   0.68197   0.00000  Uiso   1.00
H126   H     0.94655   0.60640   0.71459   0.00000  Uiso   1.00
C127   C     0.43950   0.02074   0.47439   0.00000  Uiso   1.00
C128   C     0.44573   0.04970   0.55174   0.00000  Uiso   1.00
C129   C     0.47457   0.05832   0.59197   0.00000  Uiso   1.00
C130   C     0.48217   0.08667   0.67256   0.00000  Uiso   1.00
C131   C     0.65933   0.14664   0.51120   0.00000  Uiso   1.00
C132   C     0.37519   0.11246   0.60152   0.00000  Uiso   1.00
C133   C     0.42137   0.07175   0.57415   0.00000  Uiso   1.00
C134   C     0.67090   0.20015   0.41027   0.00000  Uiso   1.00
C135   C     0.72035   0.21701   0.50607   0.00000  Uiso   1.00
C136   C     0.72895   0.18877   0.59687   0.00000  Uiso   1.00
C137   C     0.70858   0.16618   0.59551   0.00000  Uiso   1.00
C138   C     0.67951   0.17154   0.50273   0.00000  Uiso   1.00
C139   C     0.74123   0.24024   0.50920   0.00000  Uiso   1.00
N140   N     0.45863   0.99825   0.49356   0.00000  Uiso   1.00
N141   N     0.49825   0.04137   0.52780   0.00000  Uiso   1.00
C142   C     0.44168   0.97457   0.42939   0.00000  Uiso   1.00
C143   C     0.51157   0.08807   0.64317   0.00000  Uiso   1.00
C144   C     0.52074   0.06050   0.54697   0.00000  Uiso   1.00
C145   C     0.54970   0.05427   0.46963   0.00000  Uiso   1.00
C146   C     0.58807   0.98843   0.37820   0.00000  Uiso   1.00
C147   C     0.57175   0.07863   0.44720   0.00000  Uiso   1.00
C148   C     0.39431   0.06435   0.72852   0.00000  Uiso   1.00
N149   N     0.36757   0.85128   0.40750   0.00000  Uiso   1.00
C150   C     0.30860   0.77734   0.41327   0.00000  Uiso   1.00
C151   C     0.98217   0.58667   0.34881   0.00000  Uiso   1.00
C152   C     0.87971   0.40214   0.44999   0.00000  Uiso   1.00
C153   C     0.91562   0.37143   0.73974   0.00000  Uiso   1.00
C154   C     0.10007   0.57519   0.43441   0.00000  Uiso   1.00
N155   N     0.13244   0.64872   0.61381   0.00000  Uiso   1.00
C156   C     0.87519   0.61246   0.41980   0.00000  Uiso   1.00
C157   C     0.17091   0.70014   0.61103   0.00000  Uiso   1.00
C158   C     0.19140   0.72266   0.60801   0.00000  Uiso   1.00
C159   C     0.22035   0.71701   0.51519   0.00000  Uiso   1.00
C160   C     0.22895   0.68876   0.42437   0.00000  Uiso   1.00
C161   C     0.20858   0.66618   0.42575   0.00000  Uiso   1.00
C162   C     0.17951   0.67153   0.51856   0.00000  Uiso   1.00
C163   C     0.84066   0.35336   0.51010   0.00000  Uiso   1.00
C164   C     0.24123   0.74023   0.51203   0.00000  Uiso   1.00
C165   C     0.56435   0.10569   0.29283   0.00000  Uiso   1.00
C166   C     0.58437   0.12857   0.28159   0.00000  Uiso   1.00
C167   C     0.62029   0.09786   0.57134   0.00000  Uiso   1.00
C168   C     0.60007   0.07520   0.58694   0.00000  Uiso   1.00
O169   O     0.64272   0.20649   0.31896   0.00000  Uiso   1.00
O170   O     0.14272   0.70649   0.70237   0.00000  Uiso   1.00
H171   H     0.46459   0.10323   0.74495   0.00000  Uiso   1.00
H172   H     0.75260   0.18415   0.67213   0.00000  Uiso   1.00
H173   H     0.71558   0.14312   0.67046   0.00000  Uiso   1.00
H174   H     0.52336   0.10951   0.69628   0.00000  Uiso   1.00
H175   H     0.60629   0.97183   0.34063   0.00000  Uiso   1.00
H176   H     0.39076   0.04167   0.84729   0.00000  Uiso   1.00
H177   H     0.31548   0.75422   0.33968   0.00000  Uiso   1.00
H178   H     0.96459   0.60323   0.27642   0.00000  Uiso   1.00
H179   H     0.85677   0.40558   0.33903   0.00000  Uiso   1.00
H180   H     0.92230   0.34961   0.86252   0.00000  Uiso   1.00
H181   H     0.10684   0.55361   0.30573   0.00000  Uiso   1.00
H182   H     0.18451   0.74578   0.68158   0.00000  Uiso   1.00
H183   H     0.25260   0.68413   0.34911   0.00000  Uiso   1.00
H184   H     0.21558   0.64312   0.35077   0.00000  Uiso   1.00
H185   H     0.83183   0.37508   0.40748   0.00000  Uiso   1.00
H186   H     0.54167   0.10924   0.17405   0.00000  Uiso   1.00
H187   H     0.57780   0.15044   0.15916   0.00000  Uiso   1.00
H188   H     0.64326   0.09450   0.68197   0.00000  Uiso   1.00
H189   H     0.60640   0.05345   0.71459   0.00000  Uiso   1.00
C190   C     0.56050   0.97926   0.47439   0.00000  Uiso   1.00
C191   C     0.55427   0.95030   0.55174   0.00000  Uiso   1.00
C192   C     0.52543   0.94168   0.59197   0.00000  Uiso   1.00
C193   C     0.51783   0.91333   0.67256   0.00000  Uiso   1.00
C194   C     0.34067   0.85336   0.51120   0.00000  Uiso   1.00
C195   C     0.62481   0.88754   0.60152   0.00000  Uiso   1.00
C196   C     0.57863   0.92825   0.57415   0.00000  Uiso   1.00
C197   C     0.32910   0.79985   0.41027   0.00000  Uiso   1.00
C198   C     0.27965   0.78299   0.50607   0.00000  Uiso   1.00
C199   C     0.27105   0.81123   0.59687   0.00000  Uiso   1.00
C200   C     0.29142   0.83382   0.59551   0.00000  Uiso   1.00
C201   C     0.32049   0.82846   0.50273   0.00000  Uiso   1.00
C202   C     0.25877   0.75976   0.50920   0.00000  Uiso   1.00
N203   N     0.54137   0.00175   0.49356   0.00000  Uiso   1.00
N204   N     0.50175   0.95863   0.52780   0.00000  Uiso   1.00
C205   C     0.55832   0.02543   0.42939   0.00000  Uiso   1.00
C206   C     0.48843   0.91193   0.64317   0.00000  Uiso   1.00
C207   C     0.47926   0.93950   0.54697   0.00000  Uiso   1.00
C208   C     0.45030   0.94573   0.46963   0.00000  Uiso   1.00
C209   C     0.41193   0.01157   0.37820   0.00000  Uiso   1.00
C210   C     0.42825   0.92137   0.44720   0.00000  Uiso   1.00
C211   C     0.60569   0.93565   0.72852   0.00000  Uiso   1.00
N212   N     0.63243   0.14872   0.40750   0.00000  Uiso   1.00
C213   C     0.69140   0.22266   0.41327   0.00000  Uiso   1.00
C214   C     0.01783   0.41333   0.34881   0.00000  Uiso   1.00
C215   C     0.12029   0.59786   0.44999   0.00000  Uiso   1.00
C216   C     0.08438   0.62857   0.73974   0.00000  Uiso   1.00
C217   C     0.89993   0.42481   0.43441   0.00000  Uiso   1.00
N218   N     0.86756   0.35128   0.61381   0.00000  Uiso   1.00
C219   C     0.12481   0.38754   0.41980   0.00000  Uiso   1.00
C220   C     0.82909   0.29986   0.61103   0.00000  Uiso   1.00
C221   C     0.80860   0.27734   0.60801   0.00000  Uiso   1.00
C222   C     0.77965   0.28299   0.51519   0.00000  Uiso   1.00
C223   C     0.77105   0.31124   0.42437   0.00000  Uiso   1.00
C224   C     0.79142   0.33382   0.42575   0.00000  Uiso   1.00
C225   C     0.82049   0.32847   0.51856   0.00000  Uiso   1.00
C226   C     0.15934   0.64664   0.51010   0.00000  Uiso   1.00
C227   C     0.75877   0.25977   0.51203   0.00000  Uiso   1.00
C228   C     0.43565   0.89431   0.29283   0.00000  Uiso   1.00
C229   C     0.41563   0.87143   0.28159   0.00000  Uiso   1.00
C230   C     0.37971   0.90214   0.57134   0.00000  Uiso   1.00
C231   C     0.39993   0.92480   0.58694   0.00000  Uiso   1.00
O232   O     0.35728   0.79351   0.31896   0.00000  Uiso   1.00
O233   O     0.85728   0.29351   0.70237   0.00000  Uiso   1.00
H234   H     0.53541   0.89677   0.74495   0.00000  Uiso   1.00
H235   H     0.24740   0.81585   0.67213   0.00000  Uiso   1.00
H236   H     0.28442   0.85688   0.67046   0.00000  Uiso   1.00
H237   H     0.47664   0.89049   0.69628   0.00000  Uiso   1.00
H238   H     0.39371   0.02817   0.34063   0.00000  Uiso   1.00
H239   H     0.60924   0.95833   0.84729   0.00000  Uiso   1.00
H240   H     0.68452   0.24579   0.33968   0.00000  Uiso   1.00
H241   H     0.03541   0.39677   0.27642   0.00000  Uiso   1.00
H242   H     0.14324   0.59442   0.33903   0.00000  Uiso   1.00
H243   H     0.07770   0.65039   0.86252   0.00000  Uiso   1.00
H244   H     0.89316   0.44639   0.30573   0.00000  Uiso   1.00
H245   H     0.81550   0.25422   0.68158   0.00000  Uiso   1.00
H246   H     0.74740   0.31587   0.34911   0.00000  Uiso   1.00
H247   H     0.78442   0.35688   0.35077   0.00000  Uiso   1.00
H248   H     0.16817   0.62492   0.40748   0.00000  Uiso   1.00
H249   H     0.45833   0.89076   0.17405   0.00000  Uiso   1.00
H250   H     0.42220   0.84956   0.15916   0.00000  Uiso   1.00
H251   H     0.35674   0.90550   0.68197   0.00000  Uiso   1.00
H252   H     0.39360   0.94655   0.71459   0.00000  Uiso   1.00
Ni253  Ni    0.00000   0.50000   0.51068   0.00000  Uiso   1.00
Ni254  Ni    0.50000   0.00000   0.51068   0.00000  Uiso   1.00
loop_
_geom_bond_atom_site_label_1
_geom_bond_atom_site_label_2
_geom_bond_distance
_geom_bond_site_symmetry_2
_ccdc_geom_bond_type
C1     C2      1.389   .     S
C1     N14     1.357   1_455 D
C1     C83     1.380   .     S
C2     C3      1.390   .     S
C2     C7      1.511   .     D
C3     C4      1.379   .     S
C3     N15     1.357   .     D
C4     C17     1.356   .     D
C4     H45     1.140   .     S
C5     C12     1.472   .     D
C5     N86     1.296   .     D
C6     N155    1.431   .     D
C6     C215    1.403   .     S
C6     C216    1.396   .     S
C7     C22     1.406   .     S
C7     C154    1.406   .     S
C8     C12     1.413   .     S
C8     O43     1.368   .     D
C8     C87     1.398   .     S
C9     C10     1.395   .     S
C9     C13     1.434   .     S
C9     C87     1.396   .     D
C10    C11     1.396   .     D
C10    H46     1.140   .     S
C11    C12     1.399   .     S
C11    H47     1.140   .     S
C13    C101    1.205   .     T
N14    C1      1.357   1_655 D
N14    C16     1.357   .     S
N14    Ni253   1.902   1_655 S
N15    C18     1.357   .     S
N15    Ni253   1.902   .     S
C16    C82     1.390   .     D
C16    C151    1.379   .     S
C17    C18     1.380   .     S
C17    H48     1.140   .     S
C18    C19     1.389   .     D
C19    C21     1.511   .     S
C19    C79     1.390   .     S
C20    H49     1.140   .     S
C20    C64     1.380   .     D
C20    C214    1.356   1_655 S
C21    C39     1.406   .     D
C21    C42     1.406   .     S
C22    H50     1.140   .     S
C22    C216    1.397   .     D
N23    C68     1.296   .     D
N23    C156    1.431   .     S
C24    H51     1.140   .     S
C24    C71     1.398   .     S
C24    C72     1.396   .     D
C25    H52     1.140   .     S
C25    C146    1.356   1_545 S
C25    C205    1.379   .     D
C26    H53     1.140   .     S
C26    C91     1.396   .     D
C26    C132    1.403   .     S
C27    H54     1.140   .     S
C27    C132    1.396   .     S
C27    C148    1.397   .     D
C28    H55     1.140   .     S
C28    C89     1.396   .     D
C28    C196    1.406   .     S
N29    C100    1.296   .     S
N29    C195    1.431   .     D
C30    C166    1.396   .     D
C30    C167    1.403   .     S
C30    N212    1.431   .     S
C31    C32     1.398   .     S
C31    C36     1.413   .     S
C31    O44     1.368   .     D
C32    C33     1.396   .     D
C32    H56     1.140   .     S
C33    C34     1.396   .     S
C33    C38     1.434   .     S
C34    C35     1.396   .     D
C34    H57     1.140   .     S
C35    C36     1.399   .     S
C35    H58     1.140   .     S
C36    C100    1.471   .     D
C37    H59     1.140   .     S
C37    N92     1.296   .     S
C37    C99     1.471   .     D
C38    C76     1.205   .     T
C39    C40     1.396   .     S
C39    H60     1.140   .     S
C40    H61     1.140   .     S
C40    C219    1.396   .     D
C41    C42     1.395   .     D
C41    H62     1.140   .     S
C41    C219    1.403   .     S
C42    H63     1.140   .     S
C64    C65     1.389   .     S
C64    N77     1.357   1_655 S
C65    C66     1.390   .     S
C65    C70     1.511   .     D
C66    C67     1.379   .     D
C66    N78     1.357   .     S
C67    C80     1.356   .     S
C67    H108    1.140   .     S
C68    C75     1.472   .     D
C69    C152    1.403   .     S
C69    C153    1.396   .     S
C69    N218    1.431   .     D
C70    C85     1.406   .     S
C70    C217    1.406   .     S
C71    C75     1.413   .     S
C71    O106    1.368   .     D
C72    C73     1.395   .     S
C72    C76     1.434   .     S
C73    C74     1.396   .     D
C73    H109    1.140   .     S
C74    C75     1.399   .     S
C74    H110    1.140   .     S
N77    C64     1.357   1_455 S
N77    C79     1.357   .     S
N77    Ni253   1.902   .     S
N78    C81     1.357   .     S
N78    Ni253   1.902   1_655 S
C79    C214    1.379   .     D
C80    C81     1.380   .     D
C80    H111    1.140   .     S
C81    C82     1.389   .     S
C82    C84     1.511   .     S
C83    H112    1.140   .     S
C83    C151    1.356   1_455 D
C84    C102    1.406   .     D
C84    C105    1.406   .     S
C85    H113    1.140   .     S
C85    C153    1.397   .     D
N86    C219    1.431   .     S
C87    H114    1.140   .     S
C88    H115    1.140   .     S
C88    C142    1.379   .     D
C88    C209    1.356   1_565 S
C89    H116    1.140   .     S
C89    C195    1.403   .     S
C90    H117    1.140   .     S
C90    C195    1.396   .     S
C90    C211    1.397   .     D
C91    H118    1.140   .     S
C91    C133    1.406   .     S
N92    C132    1.431   .     D
C93    N149    1.431   .     S
C93    C229    1.396   .     S
C93    C230    1.403   .     D
C94    C95     1.398   .     S
C94    C99     1.413   .     S
C94    O107    1.368   .     D
C95    C96     1.396   .     D
C95    H119    1.140   .     S
C96    C97     1.396   .     S
C96    C101    1.434   .     S
C97    C98     1.396   .     D
C97    H120    1.140   .     S
C98    C99     1.399   .     S
C98    H121    1.140   .     S
C100   H122    1.140   .     S
C102   C103    1.396   .     S
C102   H123    1.140   .     S
C103   H124    1.140   .     S
C103   C156    1.396   .     D
C104   C105    1.395   .     D
C104   H125    1.140   .     S
C104   C156    1.403   .     S
C105   H126    1.140   .     S
C127   C128    1.389   .     S
C127   N140    1.357   1_545 S
C127   C209    1.380   .     D
C128   C129    1.390   .     S
C128   C133    1.511   .     D
C129   C130    1.379   .     S
C129   N141    1.357   .     D
C130   C143    1.356   .     D
C130   H171    1.140   .     S
C131   C138    1.472   .     D
C131   N212    1.296   .     D
C133   C148    1.406   .     S
C134   C138    1.413   .     S
C134   O169    1.368   .     D
C134   C213    1.398   .     S
C135   C136    1.395   .     S
C135   C139    1.434   .     S
C135   C213    1.396   .     D
C136   C137    1.396   .     D
C136   H172    1.140   .     S
C137   C138    1.399   .     S
C137   H173    1.140   .     S
C139   C227    1.205   .     T
N140   C127    1.357   1_565 S
N140   C142    1.357   .     S
N140   Ni254   1.902   1_565 S
N141   C144    1.357   .     S
N141   Ni254   1.902   .     S
C142   C208    1.390   .     S
C143   C144    1.380   .     S
C143   H174    1.140   .     S
C144   C145    1.389   .     D
C145   C147    1.511   .     S
C145   C205    1.390   .     S
C146   C25     1.356   1_565 S
C146   H175    1.140   .     S
C146   C190    1.380   .     D
C147   C165    1.406   .     D
C147   C168    1.406   .     S
C148   H176    1.140   .     S
N149   C194    1.296   .     D
C150   H177    1.140   .     S
C150   C197    1.398   .     S
C150   C198    1.396   .     D
C151   C83     1.356   1_655 D
C151   H178    1.140   .     S
C152   H179    1.140   .     S
C152   C217    1.396   .     D
C153   H180    1.140   .     S
C154   H181    1.140   .     S
C154   C215    1.396   .     D
N155   C226    1.296   .     S
C157   C158    1.398   .     S
C157   C162    1.413   .     S
C157   O170    1.368   .     D
C158   C159    1.396   .     D
C158   H182    1.140   .     S
C159   C160    1.396   .     S
C159   C164    1.434   .     S
C160   C161    1.396   .     D
C160   H183    1.140   .     S
C161   C162    1.399   .     S
C161   H184    1.140   .     S
C162   C226    1.471   .     D
C163   H185    1.140   .     S
C163   N218    1.296   .     S
C163   C225    1.471   .     D
C164   C202    1.205   .     T
C165   C166    1.396   .     S
C165   H186    1.140   .     S
C166   H187    1.140   .     S
C167   C168    1.395   .     D
C167   H188    1.140   .     S
C168   H189    1.140   .     S
C190   C191    1.389   .     S
C190   N203    1.357   1_565 S
C191   C192    1.390   .     S
C191   C196    1.511   .     D
C192   C193    1.379   .     S
C192   N204    1.357   .     D
C193   C206    1.356   .     D
C193   H234    1.140   .     S
C194   C201    1.472   .     D
C196   C211    1.406   .     S
C197   C201    1.413   .     S
C197   O232    1.368   .     D
C198   C199    1.395   .     S
C198   C202    1.434   .     S
C199   C200    1.396   .     D
C199   H235    1.140   .     S
C200   C201    1.399   .     S
C200   H236    1.140   .     S
N203   C190    1.357   1_545 S
N203   C205    1.357   .     S
N203   Ni254   1.902   .     S
N204   C207    1.357   .     S
N204   Ni254   1.902   1_565 S
C206   C207    1.380   .     S
C206   H237    1.140   .     S
C207   C208    1.389   .     D
C208   C210    1.511   .     S
C209   C88     1.356   1_545 S
C209   H238    1.140   .     S
C210   C228    1.406   .     S
C210   C231    1.406   .     D
C211   H239    1.140   .     S
C213   H240    1.140   .     S
C214   C20     1.356   1_455 S
C214   H241    1.140   .     S
C215   H242    1.140   .     S
C216   H243    1.140   .     S
C217   H244    1.140   .     S
C220   C221    1.398   .     S
C220   C225    1.413   .     S
C220   O233    1.368   .     D
C221   C222    1.396   .     D
C221   H245    1.140   .     S
C222   C223    1.396   .     S
C222   C227    1.434   .     S
C223   C224    1.396   .     D
C223   H246    1.140   .     S
C224   C225    1.399   .     S
C224   H247    1.140   .     S
C226   H248    1.140   .     S
C228   C229    1.396   .     D
C228   H249    1.140   .     S
C229   H250    1.140   .     S
C230   C231    1.395   .     S
C230   H251    1.140   .     S
C231   H252    1.140   .     S
Ni253  N14     1.902   1_455 S
Ni253  N78     1.902   1_455 S
Ni254  N204    1.902   1_545 S
Ni254  N140    1.902   1_545 S
