data_272
_audit_creation_date              2023-09-08
_audit_creation_method            'Materials Studio'
_symmetry_space_group_name_H-M    'P1'
_symmetry_Int_Tables_number       1
_symmetry_cell_setting            triclinic
loop_
_symmetry_equiv_pos_as_xyz
  x,y,z
_cell_length_a                    45.6000
_cell_length_b                    45.6000
_cell_length_c                    3.7100
_cell_angle_alpha                 90.0000
_cell_angle_beta                  90.0000
_cell_angle_gamma                 90.0000
loop_
_atom_site_label
_atom_site_type_symbol
_atom_site_fract_x
_atom_site_fract_y
_atom_site_fract_z
_atom_site_U_iso_or_equiv
_atom_site_adp_type
_atom_site_occupancy
C1     C     0.01983   0.55902   0.35382   0.00000  Uiso   1.00
C2     C     0.04773   0.55420   0.51397   0.00000  Uiso   1.00
C3     C     0.05602   0.52702   0.67113   0.00000  Uiso   1.00
C4     C     0.08457   0.52038   0.76817   0.00000  Uiso   1.00
C5     C     0.14707   0.34245   0.56908   0.00000  Uiso   1.00
C6     C     0.11008   0.62539   0.53336   0.00000  Uiso   1.00
C7     C     0.06934   0.57890   0.51833   0.00000  Uiso   1.00
C8     C     0.20059   0.33037   0.45016   0.00000  Uiso   1.00
C9     C     0.21722   0.28029   0.52945   0.00000  Uiso   1.00
C10    C     0.18897   0.27188   0.63077   0.00000  Uiso   1.00
C11    C     0.16648   0.29265   0.64226   0.00000  Uiso   1.00
C12    C     0.17195   0.32194   0.55235   0.00000  Uiso   1.00
C13    C     0.24030   0.25896   0.51631   0.00000  Uiso   1.00
N14    N     0.99755   0.53958   0.35063   0.00000  Uiso   1.00
N15    N     0.03958   0.50245   0.67069   0.00000  Uiso   1.00
C16    C     0.97298   0.55602   0.35018   0.00000  Uiso   1.00
C17    C     0.08650   0.49029   0.76557   0.00000  Uiso   1.00
C18    C     0.05902   0.48017   0.66749   0.00000  Uiso   1.00
C19    C     0.05420   0.45227   0.50734   0.00000  Uiso   1.00
C20    C     0.99029   0.41350   0.25575   0.00000  Uiso   1.00
C21    C     0.07890   0.43066   0.50298   0.00000  Uiso   1.00
C22    C     0.06145   0.60648   0.65598   0.00000  Uiso   1.00
N23    N     0.85065   0.63032   0.47378   0.00000  Uiso   1.00
C24    C     0.77701   0.69054   0.43977   0.00000  Uiso   1.00
C25    C     0.58457   0.02038   0.25314   0.00000  Uiso   1.00
C26    C     0.40211   0.11819   0.39554   0.00000  Uiso   1.00
C27    C     0.37047   0.08159   0.66195   0.00000  Uiso   1.00
C28    C     0.57495   0.90207   0.38691   0.00000  Uiso   1.00
N29    N     0.64935   0.86968   0.54754   0.00000  Uiso   1.00
C30    C     0.61008   0.12539   0.48795   0.00000  Uiso   1.00
C31    C     0.70058   0.83036   0.57117   0.00000  Uiso   1.00
C32    C     0.72299   0.80946   0.58155   0.00000  Uiso   1.00
C33    C     0.71722   0.78029   0.49187   0.00000  Uiso   1.00
C34    C     0.68896   0.77188   0.39057   0.00000  Uiso   1.00
C35    C     0.66648   0.79265   0.37908   0.00000  Uiso   1.00
C36    C     0.67195   0.82194   0.46899   0.00000  Uiso   1.00
C37    C     0.35294   0.15755   0.45226   0.00000  Uiso   1.00
C38    C     0.74030   0.75896   0.50501   0.00000  Uiso   1.00
C39    C     0.10648   0.43855   0.36533   0.00000  Uiso   1.00
C40    C     0.12953   0.41841   0.35936   0.00000  Uiso   1.00
C41    C     0.09790   0.38181   0.62577   0.00000  Uiso   1.00
C42    C     0.07495   0.40207   0.63440   0.00000  Uiso   1.00
O43    O     0.20704   0.35874   0.36025   0.00000  Uiso   1.00
O44    O     0.70704   0.85873   0.66108   0.00000  Uiso   1.00
H45    H     0.10075   0.53877   0.83000   0.00000  Uiso   1.00
H46    H     0.18426   0.24806   0.70412   0.00000  Uiso   1.00
H47    H     0.14341   0.28580   0.72547   0.00000  Uiso   1.00
H48    H     0.10810   0.47911   0.83676   0.00000  Uiso   1.00
H49    H     0.97405   0.39510   0.19717   0.00000  Uiso   1.00
H50    H     0.03837   0.61025   0.76455   0.00000  Uiso   1.00
H51    H     0.75388   0.68381   0.35773   0.00000  Uiso   1.00
H52    H     0.60075   0.03877   0.19131   0.00000  Uiso   1.00
H53    H     0.40577   0.14139   0.29018   0.00000  Uiso   1.00
H54    H     0.34819   0.07469   0.77245   0.00000  Uiso   1.00
H55    H     0.55283   0.89518   0.27154   0.00000  Uiso   1.00
H56    H     0.67118   0.87709   0.64370   0.00000  Uiso   1.00
H57    H     0.74612   0.81620   0.66356   0.00000  Uiso   1.00
H58    H     0.68425   0.74806   0.31728   0.00000  Uiso   1.00
H59    H     0.64341   0.78580   0.29585   0.00000  Uiso   1.00
H60    H     0.37482   0.16640   0.35100   0.00000  Uiso   1.00
H61    H     0.11025   0.46163   0.25675   0.00000  Uiso   1.00
H62    H     0.15186   0.42518   0.24917   0.00000  Uiso   1.00
H63    H     0.09434   0.35859   0.73090   0.00000  Uiso   1.00
H64    H     0.05272   0.39546   0.74905   0.00000  Uiso   1.00
C65    C     0.98017   0.44098   0.35382   0.00000  Uiso   1.00
C66    C     0.95227   0.44580   0.51397   0.00000  Uiso   1.00
C67    C     0.94398   0.47298   0.67113   0.00000  Uiso   1.00
C68    C     0.91543   0.47962   0.76817   0.00000  Uiso   1.00
C69    C     0.85293   0.65755   0.56908   0.00000  Uiso   1.00
C70    C     0.88992   0.37461   0.53336   0.00000  Uiso   1.00
C71    C     0.93066   0.42110   0.51833   0.00000  Uiso   1.00
C72    C     0.79941   0.66963   0.45016   0.00000  Uiso   1.00
C73    C     0.78278   0.71971   0.52945   0.00000  Uiso   1.00
C74    C     0.81103   0.72812   0.63077   0.00000  Uiso   1.00
C75    C     0.83352   0.70735   0.64226   0.00000  Uiso   1.00
C76    C     0.82805   0.67806   0.55235   0.00000  Uiso   1.00
C77    C     0.75970   0.74104   0.51631   0.00000  Uiso   1.00
N78    N     0.00245   0.46042   0.35063   0.00000  Uiso   1.00
N79    N     0.96042   0.49755   0.67069   0.00000  Uiso   1.00
C80    C     0.02702   0.44398   0.35018   0.00000  Uiso   1.00
C81    C     0.91350   0.50971   0.76557   0.00000  Uiso   1.00
C82    C     0.94098   0.51983   0.66749   0.00000  Uiso   1.00
C83    C     0.94580   0.54773   0.50734   0.00000  Uiso   1.00
C84    C     0.00971   0.58650   0.25575   0.00000  Uiso   1.00
C85    C     0.92110   0.56934   0.50298   0.00000  Uiso   1.00
C86    C     0.93855   0.39352   0.65598   0.00000  Uiso   1.00
N87    N     0.14935   0.36968   0.47378   0.00000  Uiso   1.00
C88    C     0.22299   0.30946   0.43977   0.00000  Uiso   1.00
C89    C     0.41543   0.97962   0.25314   0.00000  Uiso   1.00
C90    C     0.59789   0.88181   0.39554   0.00000  Uiso   1.00
C91    C     0.62953   0.91841   0.66195   0.00000  Uiso   1.00
C92    C     0.42505   0.09793   0.38691   0.00000  Uiso   1.00
N93    N     0.35065   0.13032   0.54754   0.00000  Uiso   1.00
C94    C     0.38992   0.87461   0.48795   0.00000  Uiso   1.00
C95    C     0.29942   0.16964   0.57117   0.00000  Uiso   1.00
C96    C     0.27701   0.19054   0.58155   0.00000  Uiso   1.00
C97    C     0.28278   0.21971   0.49187   0.00000  Uiso   1.00
C98    C     0.31104   0.22812   0.39057   0.00000  Uiso   1.00
C99    C     0.33352   0.20735   0.37908   0.00000  Uiso   1.00
C100   C     0.32805   0.17806   0.46899   0.00000  Uiso   1.00
C101   C     0.64706   0.84245   0.45226   0.00000  Uiso   1.00
C102   C     0.25970   0.24104   0.50501   0.00000  Uiso   1.00
C103   C     0.89352   0.56145   0.36533   0.00000  Uiso   1.00
C104   C     0.87047   0.58159   0.35936   0.00000  Uiso   1.00
C105   C     0.90210   0.61819   0.62577   0.00000  Uiso   1.00
C106   C     0.92505   0.59793   0.63440   0.00000  Uiso   1.00
O107   O     0.79296   0.64126   0.36025   0.00000  Uiso   1.00
O108   O     0.29296   0.14127   0.66108   0.00000  Uiso   1.00
H109   H     0.89925   0.46123   0.83000   0.00000  Uiso   1.00
H110   H     0.81574   0.75194   0.70412   0.00000  Uiso   1.00
H111   H     0.85659   0.71420   0.72547   0.00000  Uiso   1.00
H112   H     0.89190   0.52089   0.83676   0.00000  Uiso   1.00
H113   H     0.02595   0.60490   0.19717   0.00000  Uiso   1.00
H114   H     0.96163   0.38975   0.76455   0.00000  Uiso   1.00
H115   H     0.24612   0.31619   0.35773   0.00000  Uiso   1.00
H116   H     0.39925   0.96123   0.19131   0.00000  Uiso   1.00
H117   H     0.59423   0.85861   0.29018   0.00000  Uiso   1.00
H118   H     0.65181   0.92531   0.77245   0.00000  Uiso   1.00
H119   H     0.44717   0.10482   0.27154   0.00000  Uiso   1.00
H120   H     0.32882   0.12291   0.64370   0.00000  Uiso   1.00
H121   H     0.25388   0.18380   0.66356   0.00000  Uiso   1.00
H122   H     0.31576   0.25194   0.31728   0.00000  Uiso   1.00
H123   H     0.35659   0.21420   0.29585   0.00000  Uiso   1.00
H124   H     0.62518   0.83360   0.35100   0.00000  Uiso   1.00
H125   H     0.88975   0.53837   0.25675   0.00000  Uiso   1.00
H126   H     0.84814   0.57482   0.24917   0.00000  Uiso   1.00
H127   H     0.90566   0.64141   0.73090   0.00000  Uiso   1.00
H128   H     0.94728   0.60454   0.74905   0.00000  Uiso   1.00
C129   C     0.44098   0.01983   0.35382   0.00000  Uiso   1.00
C130   C     0.44580   0.04773   0.51397   0.00000  Uiso   1.00
C131   C     0.47298   0.05602   0.67113   0.00000  Uiso   1.00
C132   C     0.47962   0.08457   0.76817   0.00000  Uiso   1.00
C133   C     0.65755   0.14707   0.56908   0.00000  Uiso   1.00
C134   C     0.37461   0.11008   0.53336   0.00000  Uiso   1.00
C135   C     0.42110   0.06934   0.51833   0.00000  Uiso   1.00
C136   C     0.66963   0.20059   0.45016   0.00000  Uiso   1.00
C137   C     0.71971   0.21722   0.52945   0.00000  Uiso   1.00
C138   C     0.72812   0.18897   0.63077   0.00000  Uiso   1.00
C139   C     0.70735   0.16648   0.64226   0.00000  Uiso   1.00
C140   C     0.67806   0.17195   0.55235   0.00000  Uiso   1.00
C141   C     0.74104   0.24030   0.51631   0.00000  Uiso   1.00
N142   N     0.46042   0.99755   0.35063   0.00000  Uiso   1.00
N143   N     0.49755   0.03958   0.67069   0.00000  Uiso   1.00
C144   C     0.44398   0.97298   0.35018   0.00000  Uiso   1.00
C145   C     0.50971   0.08650   0.76557   0.00000  Uiso   1.00
C146   C     0.51983   0.05902   0.66749   0.00000  Uiso   1.00
C147   C     0.54773   0.05420   0.50734   0.00000  Uiso   1.00
C148   C     0.58650   0.99029   0.25575   0.00000  Uiso   1.00
C149   C     0.56934   0.07890   0.50298   0.00000  Uiso   1.00
C150   C     0.39352   0.06145   0.65598   0.00000  Uiso   1.00
N151   N     0.36968   0.85065   0.47378   0.00000  Uiso   1.00
C152   C     0.30946   0.77701   0.43977   0.00000  Uiso   1.00
C153   C     0.97962   0.58457   0.25314   0.00000  Uiso   1.00
C154   C     0.88181   0.40211   0.39554   0.00000  Uiso   1.00
C155   C     0.91841   0.37047   0.66195   0.00000  Uiso   1.00
C156   C     0.09793   0.57495   0.38691   0.00000  Uiso   1.00
N157   N     0.13032   0.64935   0.54754   0.00000  Uiso   1.00
C158   C     0.87461   0.61008   0.48795   0.00000  Uiso   1.00
C159   C     0.16964   0.70058   0.57117   0.00000  Uiso   1.00
C160   C     0.19054   0.72299   0.58155   0.00000  Uiso   1.00
C161   C     0.21971   0.71722   0.49187   0.00000  Uiso   1.00
C162   C     0.22812   0.68896   0.39057   0.00000  Uiso   1.00
C163   C     0.20735   0.66648   0.37908   0.00000  Uiso   1.00
C164   C     0.17806   0.67195   0.46899   0.00000  Uiso   1.00
C165   C     0.84245   0.35294   0.45226   0.00000  Uiso   1.00
C166   C     0.24104   0.74030   0.50501   0.00000  Uiso   1.00
C167   C     0.56145   0.10648   0.36533   0.00000  Uiso   1.00
C168   C     0.58159   0.12953   0.35936   0.00000  Uiso   1.00
C169   C     0.61819   0.09790   0.62577   0.00000  Uiso   1.00
C170   C     0.59793   0.07495   0.63440   0.00000  Uiso   1.00
O171   O     0.64126   0.20704   0.36025   0.00000  Uiso   1.00
O172   O     0.14127   0.70704   0.66108   0.00000  Uiso   1.00
H173   H     0.46123   0.10075   0.83000   0.00000  Uiso   1.00
H174   H     0.75194   0.18426   0.70412   0.00000  Uiso   1.00
H175   H     0.71420   0.14341   0.72547   0.00000  Uiso   1.00
H176   H     0.52089   0.10810   0.83676   0.00000  Uiso   1.00
H177   H     0.60490   0.97405   0.19717   0.00000  Uiso   1.00
H178   H     0.38975   0.03837   0.76455   0.00000  Uiso   1.00
H179   H     0.31619   0.75388   0.35773   0.00000  Uiso   1.00
H180   H     0.96123   0.60075   0.19131   0.00000  Uiso   1.00
H181   H     0.85861   0.40577   0.29018   0.00000  Uiso   1.00
H182   H     0.92531   0.34819   0.77245   0.00000  Uiso   1.00
H183   H     0.10482   0.55283   0.27154   0.00000  Uiso   1.00
H184   H     0.12291   0.67118   0.64370   0.00000  Uiso   1.00
H185   H     0.18380   0.74612   0.66356   0.00000  Uiso   1.00
H186   H     0.25194   0.68425   0.31728   0.00000  Uiso   1.00
H187   H     0.21420   0.64341   0.29585   0.00000  Uiso   1.00
H188   H     0.83360   0.37482   0.35100   0.00000  Uiso   1.00
H189   H     0.53837   0.11025   0.25675   0.00000  Uiso   1.00
H190   H     0.57482   0.15186   0.24917   0.00000  Uiso   1.00
H191   H     0.64141   0.09434   0.73090   0.00000  Uiso   1.00
H192   H     0.60454   0.05272   0.74905   0.00000  Uiso   1.00
C193   C     0.55902   0.98017   0.35382   0.00000  Uiso   1.00
C194   C     0.55420   0.95227   0.51397   0.00000  Uiso   1.00
C195   C     0.52702   0.94398   0.67113   0.00000  Uiso   1.00
C196   C     0.52038   0.91543   0.76817   0.00000  Uiso   1.00
C197   C     0.34245   0.85293   0.56908   0.00000  Uiso   1.00
C198   C     0.62539   0.88992   0.53336   0.00000  Uiso   1.00
C199   C     0.57890   0.93066   0.51833   0.00000  Uiso   1.00
C200   C     0.33037   0.79941   0.45016   0.00000  Uiso   1.00
C201   C     0.28029   0.78278   0.52945   0.00000  Uiso   1.00
C202   C     0.27188   0.81103   0.63077   0.00000  Uiso   1.00
C203   C     0.29265   0.83352   0.64226   0.00000  Uiso   1.00
C204   C     0.32194   0.82805   0.55235   0.00000  Uiso   1.00
C205   C     0.25896   0.75970   0.51631   0.00000  Uiso   1.00
N206   N     0.53958   0.00245   0.35063   0.00000  Uiso   1.00
N207   N     0.50245   0.96042   0.67069   0.00000  Uiso   1.00
C208   C     0.55602   0.02702   0.35018   0.00000  Uiso   1.00
C209   C     0.49029   0.91350   0.76557   0.00000  Uiso   1.00
C210   C     0.48017   0.94098   0.66749   0.00000  Uiso   1.00
C211   C     0.45227   0.94580   0.50734   0.00000  Uiso   1.00
C212   C     0.41350   0.00971   0.25575   0.00000  Uiso   1.00
C213   C     0.43066   0.92110   0.50298   0.00000  Uiso   1.00
C214   C     0.60648   0.93855   0.65598   0.00000  Uiso   1.00
N215   N     0.63032   0.14935   0.47378   0.00000  Uiso   1.00
C216   C     0.69054   0.22299   0.43977   0.00000  Uiso   1.00
C217   C     0.02038   0.41543   0.25314   0.00000  Uiso   1.00
C218   C     0.11819   0.59789   0.39554   0.00000  Uiso   1.00
C219   C     0.08159   0.62953   0.66195   0.00000  Uiso   1.00
C220   C     0.90207   0.42505   0.38691   0.00000  Uiso   1.00
N221   N     0.86968   0.35065   0.54754   0.00000  Uiso   1.00
C222   C     0.12539   0.38992   0.48795   0.00000  Uiso   1.00
C223   C     0.83036   0.29942   0.57117   0.00000  Uiso   1.00
C224   C     0.80946   0.27701   0.58155   0.00000  Uiso   1.00
C225   C     0.78029   0.28278   0.49187   0.00000  Uiso   1.00
C226   C     0.77188   0.31104   0.39057   0.00000  Uiso   1.00
C227   C     0.79265   0.33352   0.37908   0.00000  Uiso   1.00
C228   C     0.82194   0.32805   0.46899   0.00000  Uiso   1.00
C229   C     0.15755   0.64706   0.45226   0.00000  Uiso   1.00
C230   C     0.75896   0.25970   0.50501   0.00000  Uiso   1.00
C231   C     0.43855   0.89352   0.36533   0.00000  Uiso   1.00
C232   C     0.41841   0.87047   0.35936   0.00000  Uiso   1.00
C233   C     0.38181   0.90210   0.62577   0.00000  Uiso   1.00
C234   C     0.40207   0.92505   0.63440   0.00000  Uiso   1.00
O235   O     0.35874   0.79296   0.36025   0.00000  Uiso   1.00
O236   O     0.85873   0.29296   0.66108   0.00000  Uiso   1.00
H237   H     0.53877   0.89925   0.83000   0.00000  Uiso   1.00
H238   H     0.24806   0.81574   0.70412   0.00000  Uiso   1.00
H239   H     0.28580   0.85659   0.72547   0.00000  Uiso   1.00
H240   H     0.47911   0.89190   0.83676   0.00000  Uiso   1.00
H241   H     0.39510   0.02595   0.19717   0.00000  Uiso   1.00
H242   H     0.61025   0.96163   0.76455   0.00000  Uiso   1.00
H243   H     0.68381   0.24612   0.35773   0.00000  Uiso   1.00
H244   H     0.03877   0.39925   0.19131   0.00000  Uiso   1.00
H245   H     0.14139   0.59423   0.29018   0.00000  Uiso   1.00
H246   H     0.07469   0.65181   0.77245   0.00000  Uiso   1.00
H247   H     0.89518   0.44717   0.27154   0.00000  Uiso   1.00
H248   H     0.87709   0.32882   0.64370   0.00000  Uiso   1.00
H249   H     0.81620   0.25388   0.66356   0.00000  Uiso   1.00
H250   H     0.74806   0.31576   0.31728   0.00000  Uiso   1.00
H251   H     0.78580   0.35659   0.29585   0.00000  Uiso   1.00
H252   H     0.16640   0.62518   0.35100   0.00000  Uiso   1.00
H253   H     0.46163   0.88975   0.25675   0.00000  Uiso   1.00
H254   H     0.42519   0.84814   0.24917   0.00000  Uiso   1.00
H255   H     0.35859   0.90566   0.73090   0.00000  Uiso   1.00
H256   H     0.39546   0.94728   0.74905   0.00000  Uiso   1.00
Cu257  Cu    0.00000   0.50000   0.51060   0.00000  Uiso   1.00
Cu258  Cu    0.50000   0.00000   0.51060   0.00000  Uiso   1.00
loop_
_geom_bond_atom_site_label_1
_geom_bond_atom_site_label_2
_geom_bond_distance
_geom_bond_site_symmetry_2
_ccdc_geom_bond_type
C1     C2      1.421   .     D
C1     N14     1.348   1_455 S
C1     C84     1.384   .     S
C2     C3      1.421   .     S
C2     C7      1.497   .     S
C3     C4      1.384   .     S
C3     N15     1.348   .     D
C4     C17     1.375   .     D
C4     H45     1.140   .     S
C5     C12     1.472   .     D
C5     N87     1.295   .     D
C6     N157    1.431   .     S
C6     C218    1.404   .     D
C6     C219    1.397   .     S
C7     C22     1.404   .     S
C7     C156    1.403   .     D
C8     C12     1.413   .     S
C8     O43     1.368   .     D
C8     C88     1.398   .     S
C9     C10     1.396   .     S
C9     C13     1.434   .     S
C9     C88     1.396   .     D
C10    C11     1.397   .     D
C10    H46     1.140   .     S
C11    C12     1.399   .     S
C11    H47     1.140   .     S
C13    C102    1.205   .     T
N14    C1      1.348   1_655 S
N14    C16     1.348   .     D
N14    Cu257   1.903   1_655 S
N15    C18     1.348   .     S
N15    Cu257   1.903   .     S
C16    C83     1.421   .     S
C16    C153    1.384   .     S
C17    C18     1.384   .     S
C17    H48     1.140   .     S
C18    C19     1.421   .     D
C19    C21     1.497   .     S
C19    C80     1.421   .     S
C20    H49     1.140   .     S
C20    C65     1.384   .     S
C20    C217    1.375   1_655 D
C21    C39     1.404   .     D
C21    C42     1.403   .     S
C22    H50     1.140   .     S
C22    C219    1.396   .     D
N23    C69     1.295   .     D
N23    C158    1.431   .     S
C24    H51     1.140   .     S
C24    C72     1.398   .     S
C24    C73     1.396   .     D
C25    H52     1.140   .     S
C25    C148    1.375   1_545 D
C25    C208    1.384   .     S
C26    H53     1.140   .     S
C26    C92     1.396   .     S
C26    C134    1.404   .     D
C27    H54     1.140   .     S
C27    C134    1.397   .     S
C27    C150    1.396   .     D
C28    H55     1.140   .     S
C28    C90     1.396   .     S
C28    C199    1.403   .     D
N29    H56     1.110   .     S
N29    C101    1.295   .     S
N29    C198    1.431   .     S
C30    C168    1.397   .     D
C30    C169    1.403   .     S
C30    N215    1.431   .     S
C31    C32     1.398   .     S
C31    C36     1.413   .     S
C31    O44     1.368   .     D
C32    C33     1.396   .     D
C32    H57     1.140   .     S
C33    C34     1.396   .     S
C33    C38     1.434   .     S
C34    C35     1.396   .     D
C34    H58     1.140   .     S
C35    C36     1.399   .     S
C35    H59     1.140   .     S
C36    C101    1.472   .     D
C37    H60     1.140   .     S
C37    N93     1.295   .     S
C37    C100    1.472   .     D
C38    C77     1.205   .     T
C39    C40     1.396   .     S
C39    H61     1.140   .     S
C40    H62     1.140   .     S
C40    C222    1.397   .     D
C41    C42     1.396   .     D
C41    H63     1.140   .     S
C41    C222    1.403   .     S
C42    H64     1.140   .     S
C65    C66     1.421   .     D
C65    N78     1.348   1_655 S
C66    C67     1.421   .     S
C66    C71     1.497   .     S
C67    C68     1.384   .     S
C67    N79     1.348   .     D
C68    C81     1.375   .     D
C68    H109    1.140   .     S
C69    C76     1.472   .     D
C70    C154    1.404   .     D
C70    C155    1.397   .     S
C70    N221    1.431   .     S
C71    C86     1.404   .     S
C71    C220    1.403   .     D
C72    C76     1.413   .     S
C72    O107    1.368   .     D
C73    C74     1.396   .     S
C73    C77     1.434   .     S
C74    C75     1.397   .     D
C74    H110    1.140   .     S
C75    C76     1.399   .     S
C75    H111    1.140   .     S
N78    C65     1.348   1_455 S
N78    C80     1.348   .     D
N78    Cu257   1.903   .     S
N79    C82     1.348   .     S
N79    Cu257   1.903   1_655 S
C80    C217    1.384   .     S
C81    C82     1.384   .     S
C81    H112    1.140   .     S
C82    C83     1.421   .     D
C83    C85     1.497   .     S
C84    H113    1.140   .     S
C84    C153    1.375   1_455 D
C85    C103    1.404   .     D
C85    C106    1.403   .     S
C86    H114    1.140   .     S
C86    C155    1.396   .     D
N87    C222    1.431   .     S
C88    H115    1.140   .     S
C89    H116    1.140   .     S
C89    C144    1.384   .     S
C89    C212    1.375   1_565 D
C90    H117    1.140   .     S
C90    C198    1.404   .     D
C91    H118    1.140   .     S
C91    C198    1.397   .     S
C91    C214    1.396   .     D
C92    H119    1.140   .     S
C92    C135    1.403   .     D
N93    H120    1.110   .     S
N93    C134    1.431   .     S
C94    N151    1.431   .     S
C94    C232    1.397   .     S
C94    C233    1.403   .     D
C95    C96     1.398   .     S
C95    C100    1.413   .     S
C95    O108    1.368   .     D
C96    C97     1.396   .     D
C96    H121    1.140   .     S
C97    C98     1.396   .     S
C97    C102    1.434   .     S
C98    C99     1.396   .     D
C98    H122    1.140   .     S
C99    C100    1.399   .     S
C99    H123    1.140   .     S
C101   H124    1.140   .     S
C103   C104    1.396   .     S
C103   H125    1.140   .     S
C104   H126    1.140   .     S
C104   C158    1.397   .     D
C105   C106    1.396   .     D
C105   H127    1.140   .     S
C105   C158    1.403   .     S
C106   H128    1.140   .     S
C129   C130    1.421   .     D
C129   N142    1.348   1_545 S
C129   C212    1.384   .     S
C130   C131    1.421   .     S
C130   C135    1.497   .     S
C131   C132    1.384   .     S
C131   N143    1.348   .     D
C132   C145    1.375   .     D
C132   H173    1.140   .     S
C133   C140    1.472   .     D
C133   N215    1.295   .     D
C135   C150    1.404   .     S
C136   C140    1.413   .     S
C136   O171    1.368   .     D
C136   C216    1.398   .     S
C137   C138    1.396   .     S
C137   C141    1.434   .     S
C137   C216    1.396   .     D
C138   C139    1.397   .     D
C138   H174    1.140   .     S
C139   C140    1.399   .     S
C139   H175    1.140   .     S
C141   C230    1.205   .     T
N142   C129    1.348   1_565 S
N142   C144    1.348   .     D
N142   Cu258   1.903   1_565 S
N143   C146    1.348   .     S
N143   Cu258   1.903   .     S
C144   C211    1.421   .     S
C145   C146    1.384   .     S
C145   H176    1.140   .     S
C146   C147    1.421   .     D
C147   C149    1.497   .     S
C147   C208    1.421   .     S
C148   C25     1.375   1_565 D
C148   H177    1.140   .     S
C148   C193    1.384   .     S
C149   C167    1.404   .     D
C149   C170    1.403   .     S
C150   H178    1.140   .     S
N151   C197    1.295   .     D
C152   H179    1.140   .     S
C152   C200    1.398   .     S
C152   C201    1.396   .     D
C153   C84     1.375   1_655 D
C153   H180    1.140   .     S
C154   H181    1.140   .     S
C154   C220    1.396   .     S
C155   H182    1.140   .     S
C156   H183    1.140   .     S
C156   C218    1.396   .     S
N157   H184    1.110   .     S
N157   C229    1.295   .     S
C159   C160    1.398   .     S
C159   C164    1.413   .     S
C159   O172    1.368   .     D
C160   C161    1.396   .     D
C160   H185    1.140   .     S
C161   C162    1.396   .     S
C161   C166    1.434   .     S
C162   C163    1.396   .     D
C162   H186    1.140   .     S
C163   C164    1.399   .     S
C163   H187    1.140   .     S
C164   C229    1.472   .     D
C165   H188    1.140   .     S
C165   N221    1.295   .     S
C165   C228    1.472   .     D
C166   C205    1.205   .     T
C167   C168    1.396   .     S
C167   H189    1.140   .     S
C168   H190    1.140   .     S
C169   C170    1.396   .     D
C169   H191    1.140   .     S
C170   H192    1.140   .     S
C193   C194    1.421   .     D
C193   N206    1.348   1_565 S
C194   C195    1.421   .     S
C194   C199    1.497   .     S
C195   C196    1.384   .     S
C195   N207    1.348   .     D
C196   C209    1.375   .     D
C196   H237    1.140   .     S
C197   C204    1.472   .     D
C199   C214    1.404   .     S
C200   C204    1.413   .     S
C200   O235    1.368   .     D
C201   C202    1.396   .     S
C201   C205    1.434   .     S
C202   C203    1.397   .     D
C202   H238    1.140   .     S
C203   C204    1.399   .     S
C203   H239    1.140   .     S
N206   C193    1.348   1_545 S
N206   C208    1.348   .     D
N206   Cu258   1.903   .     S
N207   C210    1.348   .     S
N207   Cu258   1.903   1_565 S
C209   C210    1.384   .     S
C209   H240    1.140   .     S
C210   C211    1.421   .     D
C211   C213    1.497   .     S
C212   C89     1.375   1_545 D
C212   H241    1.140   .     S
C213   C231    1.404   .     S
C213   C234    1.403   .     D
C214   H242    1.140   .     S
C216   H243    1.140   .     S
C217   C20     1.375   1_455 D
C217   H244    1.140   .     S
C218   H245    1.140   .     S
C219   H246    1.140   .     S
C220   H247    1.140   .     S
N221   H248    1.110   .     S
C223   C224    1.398   .     S
C223   C228    1.413   .     S
C223   O236    1.368   .     D
C224   C225    1.396   .     D
C224   H249    1.140   .     S
C225   C226    1.396   .     S
C225   C230    1.434   .     S
C226   C227    1.396   .     D
C226   H250    1.140   .     S
C227   C228    1.399   .     S
C227   H251    1.140   .     S
C229   H252    1.140   .     S
C231   C232    1.396   .     D
C231   H253    1.140   .     S
C232   H254    1.140   .     S
C233   C234    1.396   .     S
C233   H255    1.140   .     S
C234   H256    1.140   .     S
Cu257  N14     1.903   1_455 S
Cu257  N79     1.903   1_455 S
Cu258  N207    1.903   1_545 S
Cu258  N142    1.903   1_545 S
