data_273
_audit_creation_date              2023-09-08
_audit_creation_method            'Materials Studio'
_symmetry_space_group_name_H-M    'P1'
_symmetry_Int_Tables_number       1
_symmetry_cell_setting            triclinic
loop_
_symmetry_equiv_pos_as_xyz
  x,y,z
_cell_length_a                    35.9218
_cell_length_b                    35.9218
_cell_length_c                    3.5630
_cell_angle_alpha                 90.0000
_cell_angle_beta                  90.0000
_cell_angle_gamma                 120.0000
loop_
_atom_site_label
_atom_site_type_symbol
_atom_site_fract_x
_atom_site_fract_y
_atom_site_fract_z
_atom_site_U_iso_or_equiv
_atom_site_adp_type
_atom_site_occupancy
C1     C     0.28831   0.64876   0.00000   0.00000  Uiso   1.00
C2     C     0.31564   0.69348   0.00000   0.00000  Uiso   1.00
C3     C     0.43383   0.77722   0.00000   0.00000  Uiso   1.00
C4     C     0.46069   0.82182   0.00000   0.00000  Uiso   1.00
C5     C     0.44304   0.84899   0.00000   0.00000  Uiso   1.00
C6     C     0.39839   0.83097   0.00000   0.00000  Uiso   1.00
C7     C     0.37154   0.78636   0.00000   0.00000  Uiso   1.00
C8     C     0.38895   0.75898   0.00000   0.00000  Uiso   1.00
C9     C     0.51128   0.91423   0.00000   0.00000  Uiso   1.00
N10    N     0.46966   0.89482   0.00000   0.00000  Uiso   1.00
C11    C     0.71017   0.36615   0.00000   0.00000  Uiso   1.00
C12    C     0.69911   0.32277   0.00000   0.00000  Uiso   1.00
C13    C     0.60158   0.21116   0.00000   0.00000  Uiso   1.00
C14    C     0.59101   0.16807   0.00000   0.00000  Uiso   1.00
C15    C     0.62355   0.15724   0.00000   0.00000  Uiso   1.00
C16    C     0.66657   0.18997   0.00000   0.00000  Uiso   1.00
C17    C     0.67713   0.23306   0.00000   0.00000  Uiso   1.00
C18    C     0.64476   0.24414   0.00000   0.00000  Uiso   1.00
C19    C     0.57486   0.08110   0.00000   0.00000  Uiso   1.00
N20    N     0.61380   0.11341   0.00000   0.00000  Uiso   1.00
C21    C     0.42414   0.46294   0.00000   0.00000  Uiso   1.00
C22    C     0.40098   0.41868   0.00000   0.00000  Uiso   1.00
C23    C     0.42772   0.40163   0.00000   0.00000  Uiso   1.00
C24    C     0.47037   0.43361   0.00000   0.00000  Uiso   1.00
S25    S     0.47879   0.48477   0.00000   0.00000  Uiso   1.00
H26    H     0.30150   0.71571   0.00000   0.00000  Uiso   1.00
H27    H     0.44831   0.75529   0.00000   0.00000  Uiso   1.00
H28    H     0.49710   0.83630   0.00000   0.00000  Uiso   1.00
H29    H     0.38369   0.85271   0.00000   0.00000  Uiso   1.00
H30    H     0.33513   0.77186   0.00000   0.00000  Uiso   1.00
H31    H     0.52779   0.89414   0.00000   0.00000  Uiso   1.00
H32    H     0.72539   0.31378   0.00000   0.00000  Uiso   1.00
H33    H     0.57504   0.21979   0.00000   0.00000  Uiso   1.00
H34    H     0.55583   0.14153   0.00000   0.00000  Uiso   1.00
H35    H     0.69327   0.18156   0.00000   0.00000  Uiso   1.00
H36    H     0.71229   0.25961   0.00000   0.00000  Uiso   1.00
H37    H     0.54693   0.08769   0.00000   0.00000  Uiso   1.00
H38    H     0.36433   0.40122   0.00000   0.00000  Uiso   1.00
H39    H     0.41355   0.36527   0.00000   0.00000  Uiso   1.00
C40    C     0.35124   0.63955   0.00000   0.00000  Uiso   1.00
C41    C     0.30652   0.62216   0.00000   0.00000  Uiso   1.00
C42    C     0.22278   0.65661   0.00000   0.00000  Uiso   1.00
C43    C     0.17818   0.63887   0.00000   0.00000  Uiso   1.00
C44    C     0.15101   0.59405   0.00000   0.00000  Uiso   1.00
C45    C     0.16903   0.56742   0.00000   0.00000  Uiso   1.00
C46    C     0.21364   0.58518   0.00000   0.00000  Uiso   1.00
C47    C     0.24102   0.62997   0.00000   0.00000  Uiso   1.00
C48    C     0.08577   0.59705   0.00000   0.00000  Uiso   1.00
N49    N     0.10518   0.57484   0.00000   0.00000  Uiso   1.00
C50    C     0.63385   0.34402   0.00000   0.00000  Uiso   1.00
C51    C     0.67723   0.37634   0.00000   0.00000  Uiso   1.00
C52    C     0.78884   0.39042   0.00000   0.00000  Uiso   1.00
C53    C     0.83193   0.42294   0.00000   0.00000  Uiso   1.00
C54    C     0.84276   0.46631   0.00000   0.00000  Uiso   1.00
C55    C     0.81003   0.47660   0.00000   0.00000  Uiso   1.00
C56    C     0.76694   0.44407   0.00000   0.00000  Uiso   1.00
C57    C     0.75586   0.40062   0.00000   0.00000  Uiso   1.00
C58    C     0.91890   0.49376   0.00000   0.00000  Uiso   1.00
N59    N     0.88659   0.50039   0.00000   0.00000  Uiso   1.00
C60    C     0.53706   0.96120   0.00000   0.00000  Uiso   1.00
C61    C     0.58132   0.98230   0.00000   0.00000  Uiso   1.00
C62    C     0.59837   0.02609   0.00000   0.00000  Uiso   1.00
C63    C     0.56639   0.03676   0.00000   0.00000  Uiso   1.00
S64    S     0.51523   0.99402   0.00000   0.00000  Uiso   1.00
H65    H     0.28429   0.58579   0.00000   0.00000  Uiso   1.00
H66    H     0.24471   0.69302   0.00000   0.00000  Uiso   1.00
H67    H     0.16370   0.66080   0.00000   0.00000  Uiso   1.00
H68    H     0.14729   0.53098   0.00000   0.00000  Uiso   1.00
H69    H     0.22814   0.56327   0.00000   0.00000  Uiso   1.00
H70    H     0.10586   0.63365   0.00000   0.00000  Uiso   1.00
H71    H     0.68622   0.41161   0.00000   0.00000  Uiso   1.00
H72    H     0.78021   0.35525   0.00000   0.00000  Uiso   1.00
H73    H     0.85847   0.41430   0.00000   0.00000  Uiso   1.00
H74    H     0.81844   0.51171   0.00000   0.00000  Uiso   1.00
H75    H     0.74039   0.45268   0.00000   0.00000  Uiso   1.00
H76    H     0.91231   0.45924   0.00000   0.00000  Uiso   1.00
H77    H     0.59878   0.96311   0.00000   0.00000  Uiso   1.00
H78    H     0.63473   0.04828   0.00000   0.00000  Uiso   1.00
C79    C     0.36045   0.71169   0.00000   0.00000  Uiso   1.00
C80    C     0.37784   0.68436   0.00000   0.00000  Uiso   1.00
C81    C     0.34339   0.56617   0.00000   0.00000  Uiso   1.00
C82    C     0.36113   0.53931   0.00000   0.00000  Uiso   1.00
C83    C     0.40595   0.55696   0.00000   0.00000  Uiso   1.00
C84    C     0.43258   0.60161   0.00000   0.00000  Uiso   1.00
C85    C     0.41482   0.62846   0.00000   0.00000  Uiso   1.00
C86    C     0.37003   0.61105   0.00000   0.00000  Uiso   1.00
C87    C     0.40295   0.48872   0.00000   0.00000  Uiso   1.00
N88    N     0.42516   0.53034   0.00000   0.00000  Uiso   1.00
C89    C     0.65598   0.28983   0.00000   0.00000  Uiso   1.00
C90    C     0.62366   0.30089   0.00000   0.00000  Uiso   1.00
C91    C     0.60958   0.39842   0.00000   0.00000  Uiso   1.00
C92    C     0.57706   0.40899   0.00000   0.00000  Uiso   1.00
C93    C     0.53369   0.37645   0.00000   0.00000  Uiso   1.00
C94    C     0.52340   0.33343   0.00000   0.00000  Uiso   1.00
C95    C     0.55593   0.32287   0.00000   0.00000  Uiso   1.00
C96    C     0.59938   0.35524   0.00000   0.00000  Uiso   1.00
C97    C     0.50624   0.42514   0.00000   0.00000  Uiso   1.00
N98    N     0.49961   0.38620   0.00000   0.00000  Uiso   1.00
C99    C     0.03880   0.57586   0.00000   0.00000  Uiso   1.00
C100   C     0.01770   0.59902   0.00000   0.00000  Uiso   1.00
C101   C     0.97391   0.57228   0.00000   0.00000  Uiso   1.00
C102   C     0.96324   0.52963   0.00000   0.00000  Uiso   1.00
S103   S     0.00598   0.52121   0.00000   0.00000  Uiso   1.00
H104   H     0.41421   0.69850   0.00000   0.00000  Uiso   1.00
H105   H     0.30698   0.55169   0.00000   0.00000  Uiso   1.00
H106   H     0.33920   0.50290   0.00000   0.00000  Uiso   1.00
H107   H     0.46902   0.61631   0.00000   0.00000  Uiso   1.00
H108   H     0.43673   0.66487   0.00000   0.00000  Uiso   1.00
H109   H     0.36635   0.47221   0.00000   0.00000  Uiso   1.00
H110   H     0.58839   0.27461   0.00000   0.00000  Uiso   1.00
H111   H     0.64475   0.42496   0.00000   0.00000  Uiso   1.00
H112   H     0.58570   0.44417   0.00000   0.00000  Uiso   1.00
H113   H     0.48829   0.30673   0.00000   0.00000  Uiso   1.00
H114   H     0.54732   0.28771   0.00000   0.00000  Uiso   1.00
H115   H     0.54076   0.45307   0.00000   0.00000  Uiso   1.00
H116   H     0.03689   0.63567   0.00000   0.00000  Uiso   1.00
H117   H     0.95172   0.58645   0.00000   0.00000  Uiso   1.00
loop_
_geom_bond_atom_site_label_1
_geom_bond_atom_site_label_2
_geom_bond_distance
_geom_bond_site_symmetry_2
_ccdc_geom_bond_type
C1     C2      1.403   .     S
C1     C41     1.402   .     D
C1     C47     1.481   .     S
C2     H26     1.141   .     S
C2     C79     1.402   .     D
C3     C4      1.397   .     S
C3     C8      1.404   .     D
C3     H27     1.141   .     S
C4     C5      1.405   .     D
C4     H28     1.141   .     S
C5     C6      1.398   .     S
C5     N10     1.432   .     S
C6     C7      1.397   .     D
C6     H29     1.141   .     S
C7     C8      1.405   .     S
C7     H30     1.140   .     S
C8     C79     1.481   .     S
C9     N10     1.296   .     D
C9     H31     1.140   .     S
C9     C60     1.464   .     S
C11    C12     1.402   .     S
C11    C51     1.403   .     D
C11    C57     1.481   .     S
C12    H32     1.140   .     S
C12    C89     1.403   .     D
C13    C14     1.397   .     D
C13    C18     1.404   .     S
C13    H33     1.140   .     S
C14    C15     1.404   .     S
C14    H34     1.141   .     S
C15    C16     1.398   .     D
C15    N20     1.432   .     S
C16    C17     1.397   .     S
C16    H35     1.141   .     S
C17    C18     1.405   .     D
C17    H36     1.140   .     S
C18    C89     1.481   .     S
C19    N20     1.296   .     D
C19    H37     1.140   .     S
C19    C63     1.465   .     S
C21    C22     1.377   .     D
C21    S25     1.712   .     S
C21    C87     1.464   .     S
C22    C23     1.373   .     S
C22    H38     1.141   .     S
C23    C24     1.381   .     D
C23    H39     1.140   .     S
C24    S25     1.707   .     S
C24    C97     1.465   .     S
C40    C41     1.403   .     S
C40    C80     1.402   .     D
C40    C86     1.481   .     S
C41    H65     1.141   .     S
C42    C43     1.397   .     S
C42    C47     1.404   .     D
C42    H66     1.141   .     S
C43    C44     1.405   .     D
C43    H67     1.141   .     S
C44    C45     1.398   .     S
C44    N49     1.432   .     S
C45    C46     1.397   .     D
C45    H68     1.141   .     S
C46    C47     1.405   .     S
C46    H69     1.140   .     S
C48    N49     1.296   .     D
C48    H70     1.140   .     S
C48    C99     1.464   .     S
C50    C51     1.402   .     S
C50    C90     1.403   .     D
C50    C96     1.481   .     S
C51    H71     1.140   .     S
C52    C53     1.397   .     D
C52    C57     1.404   .     S
C52    H72     1.140   .     S
C53    C54     1.404   .     S
C53    H73     1.141   .     S
C54    C55     1.398   .     D
C54    N59     1.432   .     S
C55    C56     1.397   .     S
C55    H74     1.141   .     S
C56    C57     1.405   .     D
C56    H75     1.140   .     S
C58    N59     1.296   .     D
C58    H76     1.140   .     S
C58    C102    1.465   .     S
C60    C61     1.377   .     D
C60    S64     1.712   .     S
C61    C62     1.373   1_565 S
C61    H77     1.141   .     S
C62    C61     1.373   1_545 S
C62    C63     1.381   .     D
C62    H78     1.140   .     S
C63    S64     1.707   1_545 S
S64    C63     1.707   1_565 S
C79    C80     1.403   .     S
C80    H104    1.141   .     S
C81    C82     1.397   .     D
C81    C86     1.404   .     S
C81    H105    1.141   .     S
C82    C83     1.405   .     S
C82    H106    1.141   .     S
C83    C84     1.398   .     D
C83    N88     1.432   .     S
C84    C85     1.397   .     S
C84    H107    1.141   .     S
C85    C86     1.405   .     D
C85    H108    1.140   .     S
C87    N88     1.296   .     D
C87    H109    1.140   .     S
C89    C90     1.402   .     S
C90    H110    1.140   .     S
C91    C92     1.397   .     D
C91    C96     1.404   .     S
C91    H111    1.140   .     S
C92    C93     1.404   .     S
C92    H112    1.141   .     S
C93    C94     1.398   .     D
C93    N98     1.432   .     S
C94    C95     1.397   .     S
C94    H113    1.141   .     S
C95    C96     1.405   .     D
C95    H114    1.140   .     S
C97    N98     1.296   .     D
C97    H115    1.140   .     S
C99    C100    1.377   .     D
C99    S103    1.712   .     S
C100   C101    1.373   1_455 S
C100   H116    1.141   .     S
C101   C100    1.373   1_655 S
C101   C102    1.381   .     D
C101   H117    1.140   .     S
C102   S103    1.707   1_655 S
S103   C102    1.707   1_455 S
