data_274
_audit_creation_date              2023-09-08
_audit_creation_method            'Materials Studio'
_symmetry_space_group_name_H-M    'P1'
_symmetry_Int_Tables_number       1
_symmetry_cell_setting            triclinic
loop_
_symmetry_equiv_pos_as_xyz
  x,y,z
_cell_length_a                    42.8965
_cell_length_b                    42.8965
_cell_length_c                    3.9522
_cell_angle_alpha                 90.0000
_cell_angle_beta                  90.0000
_cell_angle_gamma                 120.0000
loop_
_atom_site_label
_atom_site_type_symbol
_atom_site_fract_x
_atom_site_fract_y
_atom_site_fract_z
_atom_site_U_iso_or_equiv
_atom_site_adp_type
_atom_site_occupancy
C1     C     0.35121   0.64751   0.00000   0.00000  Uiso   1.00
C2     C     0.31428   0.62983   0.00000   0.00000  Uiso   1.00
C3     C     0.65161   0.35512   0.00000   0.00000  Uiso   1.00
C4     C     0.68834   0.36998   0.00000   0.00000  Uiso   1.00
C5     C     0.59744   0.36344   0.00000   0.00000  Uiso   1.00
C6     C     0.58198   0.38576   0.00000   0.00000  Uiso   1.00
C7     C     0.60413   0.42359   0.00000   0.00000  Uiso   1.00
C8     C     0.64210   0.43897   0.00000   0.00000  Uiso   1.00
C9     C     0.65755   0.41663   0.00000   0.00000  Uiso   1.00
C10    C     0.63533   0.37869   0.00000   0.00000  Uiso   1.00
C11    C     0.60584   0.48092   0.00000   0.00000  Uiso   1.00
N12    N     0.58744   0.44570   0.00000   0.00000  Uiso   1.00
S13    S     0.54122   0.48331   0.00000   0.00000  Uiso   1.00
C14    C     0.54763   0.52646   0.00000   0.00000  Uiso   1.00
C15    C     0.58364   0.55368   0.00000   0.00000  Uiso   1.00
C16    C     0.60663   0.53971   0.00000   0.00000  Uiso   1.00
C17    C     0.58747   0.50230   0.00000   0.00000  Uiso   1.00
S18    S     0.52372   0.57710   0.00000   0.00000  Uiso   1.00
C19    C     0.47759   0.55821   0.00000   0.00000  Uiso   1.00
C20    C     0.45834   0.52070   0.00000   0.00000  Uiso   1.00
C21    C     0.48130   0.50671   0.00000   0.00000  Uiso   1.00
C22    C     0.51730   0.53394   0.00000   0.00000  Uiso   1.00
N23    N     0.42533   0.56617   0.00000   0.00000  Uiso   1.00
C24    C     0.46040   0.58072   0.00000   0.00000  Uiso   1.00
C25    C     0.42699   0.62531   0.00000   0.00000  Uiso   1.00
C26    C     0.40867   0.64496   0.00000   0.00000  Uiso   1.00
C27    C     0.37056   0.62679   0.00000   0.00000  Uiso   1.00
C28    C     0.35106   0.58866   0.00000   0.00000  Uiso   1.00
C29    C     0.36938   0.56899   0.00000   0.00000  Uiso   1.00
C30    C     0.40738   0.58712   0.00000   0.00000  Uiso   1.00
H31    H     0.29812   0.59883   0.00000   0.00000  Uiso   1.00
H32    H     0.70669   0.40080   0.00000   0.00000  Uiso   1.00
H33    H     0.57922   0.33260   0.00000   0.00000  Uiso   1.00
H34    H     0.55114   0.37315   0.00000   0.00000  Uiso   1.00
H35    H     0.66045   0.46979   0.00000   0.00000  Uiso   1.00
H36    H     0.68838   0.42924   0.00000   0.00000  Uiso   1.00
H37    H     0.63684   0.49571   0.00000   0.00000  Uiso   1.00
H38    H     0.59089   0.58342   0.00000   0.00000  Uiso   1.00
H39    H     0.63733   0.55880   0.00000   0.00000  Uiso   1.00
H40    H     0.42734   0.50561   0.00000   0.00000  Uiso   1.00
H41    H     0.46968   0.47600   0.00000   0.00000  Uiso   1.00
H42    H     0.47846   0.61158   0.00000   0.00000  Uiso   1.00
H43    H     0.45799   0.64027   0.00000   0.00000  Uiso   1.00
H44    H     0.42471   0.67596   0.00000   0.00000  Uiso   1.00
H45    H     0.32006   0.57351   0.00000   0.00000  Uiso   1.00
H46    H     0.35333   0.53799   0.00000   0.00000  Uiso   1.00
C47    C     0.35249   0.70370   0.00000   0.00000  Uiso   1.00
C48    C     0.37017   0.68445   0.00000   0.00000  Uiso   1.00
C49    C     0.64488   0.29649   0.00000   0.00000  Uiso   1.00
C50    C     0.63002   0.31836   0.00000   0.00000  Uiso   1.00
C51    C     0.63656   0.23400   0.00000   0.00000  Uiso   1.00
C52    C     0.61424   0.19622   0.00000   0.00000  Uiso   1.00
C53    C     0.57641   0.18054   0.00000   0.00000  Uiso   1.00
C54    C     0.56103   0.20313   0.00000   0.00000  Uiso   1.00
C55    C     0.58337   0.24092   0.00000   0.00000  Uiso   1.00
C56    C     0.62131   0.25664   0.00000   0.00000  Uiso   1.00
C57    C     0.51908   0.12492   0.00000   0.00000  Uiso   1.00
N58    N     0.55430   0.14174   0.00000   0.00000  Uiso   1.00
S59    S     0.51669   0.05791   0.00000   0.00000  Uiso   1.00
C60    C     0.47354   0.02117   0.00000   0.00000  Uiso   1.00
C61    C     0.44632   0.02996   0.00000   0.00000  Uiso   1.00
C62    C     0.46029   0.06692   0.00000   0.00000  Uiso   1.00
C63    C     0.49770   0.08517   0.00000   0.00000  Uiso   1.00
S64    S     0.42290   0.94662   0.00000   0.00000  Uiso   1.00
C65    C     0.44179   0.91938   0.00000   0.00000  Uiso   1.00
C66    C     0.47930   0.93764   0.00000   0.00000  Uiso   1.00
C67    C     0.49329   0.97459   0.00000   0.00000  Uiso   1.00
C68    C     0.46606   0.98336   0.00000   0.00000  Uiso   1.00
N69    N     0.43383   0.85916   0.00000   0.00000  Uiso   1.00
C70    C     0.41928   0.87968   0.00000   0.00000  Uiso   1.00
C71    C     0.37469   0.80168   0.00000   0.00000  Uiso   1.00
C72    C     0.35504   0.76371   0.00000   0.00000  Uiso   1.00
C73    C     0.37321   0.74377   0.00000   0.00000  Uiso   1.00
C74    C     0.41134   0.76240   0.00000   0.00000  Uiso   1.00
C75    C     0.43101   0.80039   0.00000   0.00000  Uiso   1.00
C76    C     0.41288   0.82026   0.00000   0.00000  Uiso   1.00
H77    H     0.40117   0.69929   0.00000   0.00000  Uiso   1.00
H78    H     0.59920   0.30589   0.00000   0.00000  Uiso   1.00
H79    H     0.66740   0.24662   0.00000   0.00000  Uiso   1.00
H80    H     0.62685   0.17799   0.00000   0.00000  Uiso   1.00
H81    H     0.53021   0.19066   0.00000   0.00000  Uiso   1.00
H82    H     0.57076   0.25914   0.00000   0.00000  Uiso   1.00
H83    H     0.50429   0.14113   0.00000   0.00000  Uiso   1.00
H84    H     0.41658   0.00747   0.00000   0.00000  Uiso   1.00
H85    H     0.44120   0.07853   0.00000   0.00000  Uiso   1.00
H86    H     0.49439   0.92173   0.00000   0.00000  Uiso   1.00
H87    H     0.52400   0.99368   0.00000   0.00000  Uiso   1.00
H88    H     0.38842   0.86688   0.00000   0.00000  Uiso   1.00
H89    H     0.35973   0.81772   0.00000   0.00000  Uiso   1.00
H90    H     0.32404   0.74875   0.00000   0.00000  Uiso   1.00
H91    H     0.42649   0.74655   0.00000   0.00000  Uiso   1.00
H92    H     0.46201   0.81534   0.00000   0.00000  Uiso   1.00
C93    C     0.29630   0.64879   0.00000   0.00000  Uiso   1.00
C94    C     0.31555   0.68572   0.00000   0.00000  Uiso   1.00
C95    C     0.70351   0.34839   0.00000   0.00000  Uiso   1.00
C96    C     0.68164   0.31166   0.00000   0.00000  Uiso   1.00
C97    C     0.76600   0.40256   0.00000   0.00000  Uiso   1.00
C98    C     0.80378   0.41802   0.00000   0.00000  Uiso   1.00
C99    C     0.81946   0.39587   0.00000   0.00000  Uiso   1.00
C100   C     0.79687   0.35790   0.00000   0.00000  Uiso   1.00
C101   C     0.75908   0.34245   0.00000   0.00000  Uiso   1.00
C102   C     0.74336   0.36467   0.00000   0.00000  Uiso   1.00
C103   C     0.87508   0.39416   0.00000   0.00000  Uiso   1.00
N104   N     0.85826   0.41256   0.00000   0.00000  Uiso   1.00
S105   S     0.94209   0.45878   0.00000   0.00000  Uiso   1.00
C106   C     0.97883   0.45237   0.00000   0.00000  Uiso   1.00
C107   C     0.97004   0.41636   0.00000   0.00000  Uiso   1.00
C108   C     0.93308   0.39337   0.00000   0.00000  Uiso   1.00
C109   C     0.91483   0.41253   0.00000   0.00000  Uiso   1.00
S110   S     0.05338   0.47628   0.00000   0.00000  Uiso   1.00
C111   C     0.08062   0.52241   0.00000   0.00000  Uiso   1.00
C112   C     0.06236   0.54166   0.00000   0.00000  Uiso   1.00
C113   C     0.02541   0.51870   0.00000   0.00000  Uiso   1.00
C114   C     0.01664   0.48270   0.00000   0.00000  Uiso   1.00
N115   N     0.14084   0.57467   0.00000   0.00000  Uiso   1.00
C116   C     0.12032   0.53960   0.00000   0.00000  Uiso   1.00
C117   C     0.19832   0.57301   0.00000   0.00000  Uiso   1.00
C118   C     0.23629   0.59133   0.00000   0.00000  Uiso   1.00
C119   C     0.25623   0.62944   0.00000   0.00000  Uiso   1.00
C120   C     0.23760   0.64894   0.00000   0.00000  Uiso   1.00
C121   C     0.19961   0.63062   0.00000   0.00000  Uiso   1.00
C122   C     0.17974   0.59262   0.00000   0.00000  Uiso   1.00
H123   H     0.30071   0.70188   0.00000   0.00000  Uiso   1.00
H124   H     0.69411   0.29331   0.00000   0.00000  Uiso   1.00
H125   H     0.75338   0.42078   0.00000   0.00000  Uiso   1.00
H126   H     0.82201   0.44886   0.00000   0.00000  Uiso   1.00
H127   H     0.80934   0.33955   0.00000   0.00000  Uiso   1.00
H128   H     0.74086   0.31162   0.00000   0.00000  Uiso   1.00
H129   H     0.85887   0.36316   0.00000   0.00000  Uiso   1.00
H130   H     0.99253   0.40911   0.00000   0.00000  Uiso   1.00
H131   H     0.92147   0.36267   0.00000   0.00000  Uiso   1.00
H132   H     0.07827   0.57266   0.00000   0.00000  Uiso   1.00
H133   H     0.00632   0.53032   0.00000   0.00000  Uiso   1.00
H134   H     0.13312   0.52154   0.00000   0.00000  Uiso   1.00
H135   H     0.18228   0.54201   0.00000   0.00000  Uiso   1.00
H136   H     0.25125   0.57529   0.00000   0.00000  Uiso   1.00
H137   H     0.25345   0.67994   0.00000   0.00000  Uiso   1.00
H138   H     0.18466   0.64667   0.00000   0.00000  Uiso   1.00
loop_
_geom_bond_atom_site_label_1
_geom_bond_atom_site_label_2
_geom_bond_distance
_geom_bond_site_symmetry_2
_ccdc_geom_bond_type
C1     C2      1.372   .     D
C1     C27     1.489   .     S
C1     C48     1.372   .     S
C2     H31     1.152   .     S
C2     C93     1.372   .     S
C3     C4      1.373   .     D
C3     C10     1.489   .     S
C3     C50     1.373   .     S
C4     H32     1.152   .     S
C4     C95     1.373   .     S
C5     C6      1.411   .     S
C5     C10     1.416   .     D
C5     H33     1.152   .     S
C6     C7      1.412   .     D
C6     H34     1.152   .     S
C7     C8      1.419   .     S
C7     N12     1.446   .     S
C8     C9      1.412   .     D
C8     H35     1.152   .     S
C9     C10     1.416   .     S
C9     H36     1.152   .     S
C11    N12     1.309   .     D
C11    C17     1.478   .     S
C11    H37     1.152   .     S
S13    C14     1.730   .     S
S13    C17     1.727   .     S
C14    C15     1.395   .     D
C14    C22     1.488   .     S
C15    C16     1.387   .     S
C15    H38     1.152   .     S
C16    C17     1.390   .     D
C16    H39     1.152   .     S
S18    C19     1.723   .     S
S18    C22     1.730   .     S
C19    C20     1.394   .     D
C19    C24     1.479   .     S
C20    C21     1.386   .     S
C20    H40     1.152   .     S
C21    C22     1.395   .     D
C21    H41     1.152   .     S
N23    C24     1.309   .     D
N23    C30     1.447   .     S
C24    H42     1.152   .     S
C25    C26     1.411   .     S
C25    C30     1.419   .     D
C25    H43     1.152   .     S
C26    C27     1.416   .     D
C26    H44     1.152   .     S
C27    C28     1.417   .     S
C28    C29     1.412   .     D
C28    H45     1.152   .     S
C29    C30     1.412   .     S
C29    H46     1.152   .     S
C47    C48     1.372   .     D
C47    C73     1.489   .     S
C47    C94     1.372   .     S
C48    H77     1.152   .     S
C49    C50     1.373   .     D
C49    C56     1.489   .     S
C49    C96     1.373   .     S
C50    H78     1.152   .     S
C51    C52     1.411   .     D
C51    C56     1.416   .     S
C51    H79     1.152   .     S
C52    C53     1.412   .     S
C52    H80     1.152   .     S
C53    C54     1.419   .     D
C53    N58     1.446   .     S
C54    C55     1.412   .     S
C54    H81     1.152   .     S
C55    C56     1.416   .     D
C55    H82     1.152   .     S
C57    N58     1.309   .     D
C57    C63     1.478   .     S
C57    H83     1.152   .     S
S59    C60     1.730   .     S
S59    C63     1.727   .     S
C60    C61     1.395   .     D
C60    C68     1.488   1_545 S
C61    C62     1.387   .     S
C61    H84     1.152   .     S
C62    C63     1.390   .     D
C62    H85     1.152   .     S
S64    C65     1.723   .     S
S64    C68     1.730   .     S
C65    C66     1.394   .     D
C65    C70     1.479   .     S
C66    C67     1.386   .     S
C66    H86     1.152   .     S
C67    C68     1.395   .     D
C67    H87     1.152   .     S
C68    C60     1.488   1_565 S
N69    C70     1.309   .     D
N69    C76     1.447   .     S
C70    H88     1.152   .     S
C71    C72     1.411   .     S
C71    C76     1.419   .     D
C71    H89     1.152   .     S
C72    C73     1.416   .     D
C72    H90     1.152   .     S
C73    C74     1.417   .     S
C74    C75     1.412   .     D
C74    H91     1.152   .     S
C75    C76     1.412   .     S
C75    H92     1.152   .     S
C93    C94     1.372   .     D
C93    C119    1.489   .     S
C94    H123    1.152   .     S
C95    C96     1.373   .     D
C95    C102    1.489   .     S
C96    H124    1.152   .     S
C97    C98     1.411   .     D
C97    C102    1.416   .     S
C97    H125    1.152   .     S
C98    C99     1.412   .     S
C98    H126    1.152   .     S
C99    C100    1.419   .     D
C99    N104    1.446   .     S
C100   C101    1.412   .     S
C100   H127    1.152   .     S
C101   C102    1.416   .     D
C101   H128    1.152   .     S
C103   N104    1.309   .     D
C103   C109    1.478   .     S
C103   H129    1.152   .     S
S105   C106    1.730   .     S
S105   C109    1.727   .     S
C106   C107    1.395   .     D
C106   C114    1.488   1_655 S
C107   C108    1.387   .     S
C107   H130    1.152   .     S
C108   C109    1.390   .     D
C108   H131    1.152   .     S
S110   C111    1.723   .     S
S110   C114    1.730   .     S
C111   C112    1.394   .     D
C111   C116    1.479   .     S
C112   C113    1.386   .     S
C112   H132    1.152   .     S
C113   C114    1.395   .     D
C113   H133    1.152   .     S
C114   C106    1.488   1_455 S
N115   C116    1.309   .     D
N115   C122    1.447   .     S
C116   H134    1.152   .     S
C117   C118    1.411   .     D
C117   C122    1.419   .     S
C117   H135    1.152   .     S
C118   C119    1.416   .     S
C118   H136    1.152   .     S
C119   C120    1.417   .     D
C120   C121    1.412   .     S
C120   H137    1.152   .     S
C121   C122    1.412   .     D
C121   H138    1.152   .     S
