data_277
_audit_creation_date              2023-09-08
_audit_creation_method            'Materials Studio'
_symmetry_space_group_name_H-M    'P1'
_symmetry_Int_Tables_number       1
_symmetry_cell_setting            triclinic
loop_
_symmetry_equiv_pos_as_xyz
  x,y,z
_cell_length_a                    18.3630
_cell_length_b                    18.3630
_cell_length_c                    37.6578
_cell_angle_alpha                 90.0000
_cell_angle_beta                  90.0000
_cell_angle_gamma                 90.0000
loop_
_atom_site_label
_atom_site_type_symbol
_atom_site_fract_x
_atom_site_fract_y
_atom_site_fract_z
_atom_site_U_iso_or_equiv
_atom_site_adp_type
_atom_site_occupancy
C1     C     0.47348   0.47353   0.56003   0.00000  Uiso   1.00
C2     C     0.43991   0.44001   0.58884   0.00000  Uiso   1.00
C3     C     0.38646   0.38665   0.58227   0.00000  Uiso   1.00
C4     C     0.36750   0.36777   0.54692   0.00000  Uiso   1.00
C5     C     0.40285   0.40306   0.51827   0.00000  Uiso   1.00
C6     C     0.45553   0.45562   0.52551   0.00000  Uiso   1.00
C7     C     0.27803   0.27837   0.67044   0.00000  Uiso   1.00
C8     C     0.24580   0.24613   0.70015   0.00000  Uiso   1.00
C9     C     0.26666   0.26667   0.73464   0.00000  Uiso   1.00
C10    C     0.32063   0.32035   0.73859   0.00000  Uiso   1.00
C11    C     0.35287   0.35262   0.70890   0.00000  Uiso   1.00
C12    C     0.33188   0.33193   0.67469   0.00000  Uiso   1.00
C13    C     0.14972   0.85006   0.11219   0.00000  Uiso   1.00
N14    N     0.13393   0.86601   0.14483   0.00000  Uiso   1.00
O15    O     0.81422   0.18622   0.04148   0.00000  Uiso   1.00
C16    C     0.79779   0.20273   0.00541   0.00000  Uiso   1.00
H17    H     0.84824   0.19343   0.98836   0.00000  Uiso   1.00
H18    H     0.78013   0.26208   0.00320   0.00000  Uiso   1.00
H19    H     0.75187   0.16591   0.99579   0.00000  Uiso   1.00
H20    H     0.19265   0.80695   0.10617   0.00000  Uiso   1.00
H21    H     0.45533   0.45539   0.61719   0.00000  Uiso   1.00
H22    H     0.38808   0.38834   0.48976   0.00000  Uiso   1.00
H23    H     0.26062   0.26120   0.64261   0.00000  Uiso   1.00
H24    H     0.20211   0.20269   0.69642   0.00000  Uiso   1.00
H25    H     0.33835   0.33781   0.76633   0.00000  Uiso   1.00
H26    H     0.39657   0.39610   0.71251   0.00000  Uiso   1.00
C27    C     0.52652   0.52647   0.56003   0.00000  Uiso   1.00
C28    C     0.56009   0.55999   0.58884   0.00000  Uiso   1.00
C29    C     0.61354   0.61335   0.58227   0.00000  Uiso   1.00
C30    C     0.63250   0.63223   0.54692   0.00000  Uiso   1.00
C31    C     0.59715   0.59694   0.51827   0.00000  Uiso   1.00
C32    C     0.54447   0.54438   0.52551   0.00000  Uiso   1.00
C33    C     0.72197   0.72163   0.67044   0.00000  Uiso   1.00
C34    C     0.75420   0.75387   0.70015   0.00000  Uiso   1.00
C35    C     0.73334   0.73333   0.73464   0.00000  Uiso   1.00
C36    C     0.67937   0.67965   0.73859   0.00000  Uiso   1.00
C37    C     0.64713   0.64738   0.70890   0.00000  Uiso   1.00
C38    C     0.66812   0.66807   0.67469   0.00000  Uiso   1.00
C39    C     0.85028   0.14994   0.11219   0.00000  Uiso   1.00
N40    N     0.86607   0.13399   0.14483   0.00000  Uiso   1.00
O41    O     0.18578   0.81378   0.04148   0.00000  Uiso   1.00
C42    C     0.20221   0.79727   0.00541   0.00000  Uiso   1.00
H43    H     0.15176   0.80657   0.98836   0.00000  Uiso   1.00
H44    H     0.21987   0.73792   0.00320   0.00000  Uiso   1.00
H45    H     0.24813   0.83409   0.99579   0.00000  Uiso   1.00
H46    H     0.80735   0.19305   0.10617   0.00000  Uiso   1.00
H47    H     0.54467   0.54461   0.61719   0.00000  Uiso   1.00
H48    H     0.61192   0.61166   0.48976   0.00000  Uiso   1.00
H49    H     0.73938   0.73880   0.64261   0.00000  Uiso   1.00
H50    H     0.79789   0.79731   0.69642   0.00000  Uiso   1.00
H51    H     0.66165   0.66219   0.76633   0.00000  Uiso   1.00
H52    H     0.60343   0.60390   0.71251   0.00000  Uiso   1.00
C53    C     0.02647   0.97348   0.06003   0.00000  Uiso   1.00
C54    C     0.05999   0.93991   0.08884   0.00000  Uiso   1.00
C55    C     0.11335   0.88646   0.08227   0.00000  Uiso   1.00
C56    C     0.13223   0.86750   0.04692   0.00000  Uiso   1.00
C57    C     0.09694   0.90285   0.01827   0.00000  Uiso   1.00
C58    C     0.04438   0.95553   0.02551   0.00000  Uiso   1.00
C59    C     0.22163   0.77803   0.17044   0.00000  Uiso   1.00
C60    C     0.25387   0.74580   0.20015   0.00000  Uiso   1.00
C61    C     0.23333   0.76666   0.23464   0.00000  Uiso   1.00
C62    C     0.17965   0.82063   0.23859   0.00000  Uiso   1.00
C63    C     0.14738   0.85287   0.20890   0.00000  Uiso   1.00
C64    C     0.16807   0.83188   0.17469   0.00000  Uiso   1.00
C65    C     0.64994   0.64972   0.61219   0.00000  Uiso   1.00
N66    N     0.63399   0.63393   0.64483   0.00000  Uiso   1.00
O67    O     0.31378   0.31422   0.54148   0.00000  Uiso   1.00
C68    C     0.29727   0.29779   0.50541   0.00000  Uiso   1.00
H69    H     0.30657   0.34824   0.48836   0.00000  Uiso   1.00
H70    H     0.23792   0.28013   0.50320   0.00000  Uiso   1.00
H71    H     0.33409   0.25187   0.49579   0.00000  Uiso   1.00
H72    H     0.69305   0.69265   0.60617   0.00000  Uiso   1.00
H73    H     0.04461   0.95533   0.11719   0.00000  Uiso   1.00
H74    H     0.11166   0.88808   0.98976   0.00000  Uiso   1.00
H75    H     0.23880   0.76062   0.14261   0.00000  Uiso   1.00
H76    H     0.29731   0.70211   0.19642   0.00000  Uiso   1.00
H77    H     0.16219   0.83835   0.26633   0.00000  Uiso   1.00
H78    H     0.10390   0.89657   0.21251   0.00000  Uiso   1.00
C79    C     0.97353   0.02652   0.06003   0.00000  Uiso   1.00
C80    C     0.94001   0.06009   0.08884   0.00000  Uiso   1.00
C81    C     0.88665   0.11354   0.08227   0.00000  Uiso   1.00
C82    C     0.86777   0.13250   0.04692   0.00000  Uiso   1.00
C83    C     0.90306   0.09715   0.01827   0.00000  Uiso   1.00
C84    C     0.95562   0.04447   0.02551   0.00000  Uiso   1.00
C85    C     0.77837   0.22197   0.17044   0.00000  Uiso   1.00
C86    C     0.74613   0.25420   0.20015   0.00000  Uiso   1.00
C87    C     0.76667   0.23334   0.23464   0.00000  Uiso   1.00
C88    C     0.82035   0.17937   0.23859   0.00000  Uiso   1.00
C89    C     0.85262   0.14713   0.20890   0.00000  Uiso   1.00
C90    C     0.83193   0.16812   0.17469   0.00000  Uiso   1.00
C91    C     0.35006   0.35028   0.61219   0.00000  Uiso   1.00
N92    N     0.36601   0.36607   0.64483   0.00000  Uiso   1.00
O93    O     0.68622   0.68578   0.54148   0.00000  Uiso   1.00
C94    C     0.70273   0.70221   0.50541   0.00000  Uiso   1.00
H95    H     0.69343   0.65176   0.48836   0.00000  Uiso   1.00
H96    H     0.76208   0.71987   0.50320   0.00000  Uiso   1.00
H97    H     0.66591   0.74813   0.49579   0.00000  Uiso   1.00
H98    H     0.30695   0.30735   0.60617   0.00000  Uiso   1.00
H99    H     0.95539   0.04467   0.11719   0.00000  Uiso   1.00
H100   H     0.88834   0.11192   0.98976   0.00000  Uiso   1.00
H101   H     0.76120   0.23938   0.14261   0.00000  Uiso   1.00
H102   H     0.70269   0.29789   0.19642   0.00000  Uiso   1.00
H103   H     0.83781   0.16165   0.26633   0.00000  Uiso   1.00
H104   H     0.89610   0.10343   0.21251   0.00000  Uiso   1.00
C105   C     0.02652   0.02647   0.93997   0.00000  Uiso   1.00
C106   C     0.06009   0.05999   0.91116   0.00000  Uiso   1.00
C107   C     0.11354   0.11335   0.91773   0.00000  Uiso   1.00
C108   C     0.13250   0.13223   0.95308   0.00000  Uiso   1.00
C109   C     0.09715   0.09694   0.98173   0.00000  Uiso   1.00
C110   C     0.04447   0.04438   0.97449   0.00000  Uiso   1.00
C111   C     0.22197   0.22163   0.82956   0.00000  Uiso   1.00
C112   C     0.25420   0.25387   0.79985   0.00000  Uiso   1.00
C113   C     0.23334   0.23333   0.76536   0.00000  Uiso   1.00
C114   C     0.17937   0.17965   0.76141   0.00000  Uiso   1.00
C115   C     0.14713   0.14738   0.79110   0.00000  Uiso   1.00
C116   C     0.16812   0.16807   0.82531   0.00000  Uiso   1.00
C117   C     0.35028   0.64994   0.38781   0.00000  Uiso   1.00
N118   N     0.36607   0.63399   0.35517   0.00000  Uiso   1.00
O119   O     0.68578   0.31378   0.45852   0.00000  Uiso   1.00
C120   C     0.70221   0.29727   0.49459   0.00000  Uiso   1.00
H121   H     0.65176   0.30657   0.51164   0.00000  Uiso   1.00
H122   H     0.71987   0.23792   0.49680   0.00000  Uiso   1.00
H123   H     0.74813   0.33409   0.50421   0.00000  Uiso   1.00
H124   H     0.30735   0.69305   0.39383   0.00000  Uiso   1.00
H125   H     0.04467   0.04461   0.88281   0.00000  Uiso   1.00
H126   H     0.11192   0.11166   0.01024   0.00000  Uiso   1.00
H127   H     0.23938   0.23880   0.85739   0.00000  Uiso   1.00
H128   H     0.29789   0.29731   0.80358   0.00000  Uiso   1.00
H129   H     0.16165   0.16219   0.73367   0.00000  Uiso   1.00
H130   H     0.10343   0.10390   0.78749   0.00000  Uiso   1.00
C131   C     0.97348   0.97353   0.93997   0.00000  Uiso   1.00
C132   C     0.93991   0.94001   0.91116   0.00000  Uiso   1.00
C133   C     0.88646   0.88665   0.91773   0.00000  Uiso   1.00
C134   C     0.86750   0.86777   0.95308   0.00000  Uiso   1.00
C135   C     0.90285   0.90306   0.98173   0.00000  Uiso   1.00
C136   C     0.95553   0.95562   0.97449   0.00000  Uiso   1.00
C137   C     0.77803   0.77837   0.82956   0.00000  Uiso   1.00
C138   C     0.74580   0.74613   0.79985   0.00000  Uiso   1.00
C139   C     0.76666   0.76667   0.76536   0.00000  Uiso   1.00
C140   C     0.82063   0.82035   0.76141   0.00000  Uiso   1.00
C141   C     0.85287   0.85262   0.79110   0.00000  Uiso   1.00
C142   C     0.83188   0.83193   0.82531   0.00000  Uiso   1.00
C143   C     0.64972   0.35006   0.38781   0.00000  Uiso   1.00
N144   N     0.63393   0.36601   0.35517   0.00000  Uiso   1.00
O145   O     0.31422   0.68622   0.45852   0.00000  Uiso   1.00
C146   C     0.29779   0.70273   0.49459   0.00000  Uiso   1.00
H147   H     0.34824   0.69343   0.51164   0.00000  Uiso   1.00
H148   H     0.28013   0.76208   0.49680   0.00000  Uiso   1.00
H149   H     0.25187   0.66591   0.50421   0.00000  Uiso   1.00
H150   H     0.69265   0.30695   0.39383   0.00000  Uiso   1.00
H151   H     0.95533   0.95539   0.88281   0.00000  Uiso   1.00
H152   H     0.88808   0.88834   0.01024   0.00000  Uiso   1.00
H153   H     0.76062   0.76120   0.85739   0.00000  Uiso   1.00
H154   H     0.70211   0.70269   0.80358   0.00000  Uiso   1.00
H155   H     0.83835   0.83781   0.73367   0.00000  Uiso   1.00
H156   H     0.89657   0.89610   0.78749   0.00000  Uiso   1.00
C157   C     0.47353   0.52652   0.43997   0.00000  Uiso   1.00
C158   C     0.44001   0.56009   0.41116   0.00000  Uiso   1.00
C159   C     0.38665   0.61354   0.41773   0.00000  Uiso   1.00
C160   C     0.36777   0.63250   0.45308   0.00000  Uiso   1.00
C161   C     0.40306   0.59715   0.48173   0.00000  Uiso   1.00
C162   C     0.45562   0.54447   0.47449   0.00000  Uiso   1.00
C163   C     0.27837   0.72197   0.32956   0.00000  Uiso   1.00
C164   C     0.24613   0.75420   0.29985   0.00000  Uiso   1.00
C165   C     0.26667   0.73334   0.26536   0.00000  Uiso   1.00
C166   C     0.32035   0.67937   0.26141   0.00000  Uiso   1.00
C167   C     0.35262   0.64713   0.29110   0.00000  Uiso   1.00
C168   C     0.33193   0.66812   0.32531   0.00000  Uiso   1.00
C169   C     0.85006   0.85028   0.88781   0.00000  Uiso   1.00
N170   N     0.86601   0.86607   0.85517   0.00000  Uiso   1.00
O171   O     0.18622   0.18578   0.95852   0.00000  Uiso   1.00
C172   C     0.20273   0.20221   0.99459   0.00000  Uiso   1.00
H173   H     0.19343   0.15176   0.01164   0.00000  Uiso   1.00
H174   H     0.26208   0.21987   0.99680   0.00000  Uiso   1.00
H175   H     0.16591   0.24813   0.00421   0.00000  Uiso   1.00
H176   H     0.80695   0.80735   0.89383   0.00000  Uiso   1.00
H177   H     0.45539   0.54467   0.38281   0.00000  Uiso   1.00
H178   H     0.38834   0.61192   0.51024   0.00000  Uiso   1.00
H179   H     0.26120   0.73938   0.35739   0.00000  Uiso   1.00
H180   H     0.20269   0.79789   0.30358   0.00000  Uiso   1.00
H181   H     0.33781   0.66165   0.23367   0.00000  Uiso   1.00
H182   H     0.39610   0.60343   0.28749   0.00000  Uiso   1.00
C183   C     0.52647   0.47348   0.43997   0.00000  Uiso   1.00
C184   C     0.55999   0.43991   0.41116   0.00000  Uiso   1.00
C185   C     0.61335   0.38646   0.41773   0.00000  Uiso   1.00
C186   C     0.63223   0.36750   0.45308   0.00000  Uiso   1.00
C187   C     0.59694   0.40285   0.48173   0.00000  Uiso   1.00
C188   C     0.54438   0.45553   0.47449   0.00000  Uiso   1.00
C189   C     0.72163   0.27803   0.32956   0.00000  Uiso   1.00
C190   C     0.75387   0.24580   0.29985   0.00000  Uiso   1.00
C191   C     0.73333   0.26666   0.26536   0.00000  Uiso   1.00
C192   C     0.67965   0.32063   0.26141   0.00000  Uiso   1.00
C193   C     0.64738   0.35287   0.29110   0.00000  Uiso   1.00
C194   C     0.66807   0.33188   0.32531   0.00000  Uiso   1.00
C195   C     0.14994   0.14972   0.88781   0.00000  Uiso   1.00
N196   N     0.13399   0.13393   0.85517   0.00000  Uiso   1.00
O197   O     0.81378   0.81422   0.95852   0.00000  Uiso   1.00
C198   C     0.79727   0.79779   0.99459   0.00000  Uiso   1.00
H199   H     0.80657   0.84824   0.01164   0.00000  Uiso   1.00
H200   H     0.73792   0.78013   0.99680   0.00000  Uiso   1.00
H201   H     0.83409   0.75187   0.00421   0.00000  Uiso   1.00
H202   H     0.19305   0.19265   0.89383   0.00000  Uiso   1.00
H203   H     0.54461   0.45533   0.38281   0.00000  Uiso   1.00
H204   H     0.61166   0.38808   0.51024   0.00000  Uiso   1.00
H205   H     0.73880   0.26062   0.35739   0.00000  Uiso   1.00
H206   H     0.79731   0.20211   0.30358   0.00000  Uiso   1.00
H207   H     0.66219   0.33835   0.23367   0.00000  Uiso   1.00
H208   H     0.60390   0.39657   0.28749   0.00000  Uiso   1.00
C209   C     0.50000   0.50000   0.50000   0.00000  Uiso   1.00
C210   C     0.00000   0.00000   0.00000   0.00000  Uiso   1.00
loop_
_geom_bond_atom_site_label_1
_geom_bond_atom_site_label_2
_geom_bond_distance
_geom_bond_site_symmetry_2
_ccdc_geom_bond_type
C1     C2      1.391   .     S
C1     C6      1.381   .     D
C1     C27     1.376   .     S
C2     C3      1.409   .     D
C2     H21     1.140   .     S
C3     C4      1.419   .     S
C3     C91     1.470   .     S
C4     C5      1.416   .     D
C4     O67     1.408   .     S
C5     C6      1.393   .     S
C5     H22     1.140   .     S
C6     C209    1.501   .     S
C7     C8      1.397   .     S
C7     C12     1.404   .     D
C7     H23     1.140   .     S
C8     C9      1.406   .     D
C8     H24     1.140   .     S
C9     C10     1.406   .     S
C9     C113    1.445   .     S
C10    C11     1.397   .     D
C10    H25     1.140   .     S
C11    C12     1.397   .     S
C11    H26     1.140   .     S
C12    N92     1.432   .     S
C13    N14     1.296   .     D
C13    H20     1.140   .     S
C13    C55     1.470   .     S
N14    C64     1.432   .     S
O15    C16     1.424   .     S
O15    C82     1.408   .     S
C16    H17     1.140   1_554 S
C16    H18     1.140   .     S
C16    H19     1.140   1_554 S
H17    C16     1.140   1_556 S
H19    C16     1.140   1_556 S
C27    C28     1.391   .     D
C27    C32     1.381   .     S
C28    C29     1.409   .     S
C28    H47     1.140   .     S
C29    C30     1.419   .     D
C29    C65     1.470   .     S
C30    C31     1.416   .     S
C30    O93     1.408   .     S
C31    C32     1.393   .     D
C31    H48     1.140   .     S
C32    C209    1.501   .     S
C33    C34     1.397   .     S
C33    C38     1.404   .     D
C33    H49     1.140   .     S
C34    C35     1.406   .     D
C34    H50     1.140   .     S
C35    C36     1.406   .     S
C35    C139    1.445   .     S
C36    C37     1.397   .     D
C36    H51     1.140   .     S
C37    C38     1.397   .     S
C37    H52     1.140   .     S
C38    N66     1.432   .     S
C39    N40     1.296   .     D
C39    H46     1.140   .     S
C39    C81     1.470   .     S
N40    C90     1.432   .     S
O41    C42     1.424   .     S
O41    C56     1.408   .     S
C42    H43     1.140   1_554 S
C42    H44     1.140   .     S
C42    H45     1.140   1_554 S
H43    C42     1.140   1_556 S
H45    C42     1.140   1_556 S
C53    C54     1.391   .     S
C53    C58     1.381   .     D
C53    C79     1.376   1_465 S
C54    C55     1.409   .     D
C54    H73     1.140   .     S
C55    C56     1.419   .     S
C56    C57     1.416   .     D
C57    C58     1.393   .     S
C57    H74     1.140   1_554 S
C58    C210    1.501   1_565 S
C59    C60     1.397   .     S
C59    C64     1.404   .     D
C59    H75     1.140   .     S
C60    C61     1.406   .     D
C60    H76     1.140   .     S
C61    C62     1.406   .     S
C61    C165    1.445   .     S
C62    C63     1.397   .     D
C62    H77     1.140   .     S
C63    C64     1.397   .     S
C63    H78     1.140   .     S
C65    N66     1.296   .     D
C65    H72     1.140   .     S
O67    C68     1.424   .     S
C68    H69     1.140   .     S
C68    H70     1.140   .     S
C68    H71     1.140   .     S
H74    C57     1.140   1_556 S
C79    C53     1.376   1_645 S
C79    C80     1.391   .     S
C79    C84     1.381   .     D
C80    C81     1.409   .     D
C80    H99     1.140   .     S
C81    C82     1.419   .     S
C82    C83     1.416   .     D
C83    C84     1.393   .     S
C83    H100    1.140   1_554 S
C84    C210    1.501   1_655 S
C85    C86     1.397   .     S
C85    C90     1.404   .     D
C85    H101    1.140   .     S
C86    C87     1.406   .     D
C86    H102    1.140   .     S
C87    C88     1.406   .     S
C87    C191    1.445   .     S
C88    C89     1.397   .     D
C88    H103    1.140   .     S
C89    C90     1.397   .     S
C89    H104    1.140   .     S
C91    N92     1.296   .     D
C91    H98     1.140   .     S
O93    C94     1.424   .     S
C94    H95     1.140   .     S
C94    H96     1.140   .     S
C94    H97     1.140   .     S
H100   C83     1.140   1_556 S
C105   C106    1.391   .     D
C105   C110    1.381   .     S
C105   C131    1.376   1_445 S
C106   C107    1.409   .     S
C106   H125    1.140   .     S
C107   C108    1.419   .     D
C107   C195    1.470   .     S
C108   C109    1.416   .     S
C108   O171    1.408   .     S
C109   C110    1.393   .     D
C109   H126    1.140   1_556 S
C110   C210    1.501   1_556 S
C111   C112    1.397   .     S
C111   C116    1.404   .     D
C111   H127    1.140   .     S
C112   C113    1.406   .     D
C112   H128    1.140   .     S
C113   C114    1.406   .     S
C114   C115    1.397   .     D
C114   H129    1.140   .     S
C115   C116    1.397   .     S
C115   H130    1.140   .     S
C116   N196    1.432   .     S
C117   N118    1.296   .     D
C117   H124    1.140   .     S
C117   C159    1.470   .     S
N118   C168    1.432   .     S
O119   C120    1.424   .     S
O119   C186    1.408   .     S
C120   H121    1.140   .     S
C120   H122    1.140   .     S
C120   H123    1.140   .     S
H126   C109    1.140   1_554 S
C131   C105    1.376   1_665 S
C131   C132    1.391   .     D
C131   C136    1.381   .     S
C132   C133    1.409   .     S
C132   H151    1.140   .     S
C133   C134    1.419   .     D
C133   C169    1.470   .     S
C134   C135    1.416   .     S
C134   O197    1.408   .     S
C135   C136    1.393   .     D
C135   H152    1.140   1_556 S
C136   C210    1.501   1_666 S
C137   C138    1.397   .     S
C137   C142    1.404   .     D
C137   H153    1.140   .     S
C138   C139    1.406   .     D
C138   H154    1.140   .     S
C139   C140    1.406   .     S
C140   C141    1.397   .     D
C140   H155    1.140   .     S
C141   C142    1.397   .     S
C141   H156    1.140   .     S
C142   N170    1.432   .     S
C143   N144    1.296   .     D
C143   H150    1.140   .     S
C143   C185    1.470   .     S
N144   C194    1.432   .     S
O145   C146    1.424   .     S
O145   C160    1.408   .     S
C146   H147    1.140   .     S
C146   H148    1.140   .     S
C146   H149    1.140   .     S
H152   C135    1.140   1_554 S
C157   C158    1.391   .     S
C157   C162    1.381   .     D
C157   C183    1.376   .     S
C158   C159    1.409   .     D
C158   H177    1.140   .     S
C159   C160    1.419   .     S
C160   C161    1.416   .     D
C161   C162    1.393   .     S
C161   H178    1.140   .     S
C162   C209    1.501   .     S
C163   C164    1.397   .     D
C163   C168    1.404   .     S
C163   H179    1.140   .     S
C164   C165    1.406   .     S
C164   H180    1.140   .     S
C165   C166    1.406   .     D
C166   C167    1.397   .     S
C166   H181    1.140   .     S
C167   C168    1.397   .     D
C167   H182    1.140   .     S
C169   N170    1.296   .     D
C169   H176    1.140   .     S
O171   C172    1.424   .     S
C172   H173    1.140   1_556 S
C172   H174    1.140   .     S
C172   H175    1.140   1_556 S
H173   C172    1.140   1_554 S
H175   C172    1.140   1_554 S
C183   C184    1.391   .     S
C183   C188    1.381   .     D
C184   C185    1.409   .     D
C184   H203    1.140   .     S
C185   C186    1.419   .     S
C186   C187    1.416   .     D
C187   C188    1.393   .     S
C187   H204    1.140   .     S
C188   C209    1.501   .     S
C189   C190    1.397   .     D
C189   C194    1.404   .     S
C189   H205    1.140   .     S
C190   C191    1.406   .     S
C190   H206    1.140   .     S
C191   C192    1.406   .     D
C192   C193    1.397   .     S
C192   H207    1.140   .     S
C193   C194    1.397   .     D
C193   H208    1.140   .     S
C195   N196    1.296   .     D
C195   H202    1.140   .     S
O197   C198    1.424   .     S
C198   H199    1.140   1_556 S
C198   H200    1.140   .     S
C198   H201    1.140   1_556 S
H199   C198    1.140   1_554 S
H201   C198    1.140   1_554 S
C210   C84     1.501   1_455 S
C210   C58     1.501   1_545 S
C210   C110    1.501   1_554 S
C210   C136    1.501   1_444 S
