data_28
_audit_creation_date              2023-09-08
_audit_creation_method            'Materials Studio'
_symmetry_space_group_name_H-M    'P1'
_symmetry_Int_Tables_number       1
_symmetry_cell_setting            triclinic
loop_
_symmetry_equiv_pos_as_xyz
  x,y,z
_cell_length_a                    33.0864
_cell_length_b                    33.0864
_cell_length_c                    4.3493
_cell_angle_alpha                 90.0000
_cell_angle_beta                  90.0000
_cell_angle_gamma                 90.0000
loop_
_atom_site_label
_atom_site_type_symbol
_atom_site_fract_x
_atom_site_fract_y
_atom_site_fract_z
_atom_site_U_iso_or_equiv
_atom_site_adp_type
_atom_site_occupancy
N1     N     0.93879   0.50277   0.42005   0.00000  Uiso   1.00
N2     N     0.00223   0.56282   0.45540   0.00000  Uiso   1.00
C3     C     0.87752   0.52561   0.22934   0.00000  Uiso   1.00
C4     C     0.87600   0.48442   0.22998   0.00000  Uiso   1.00
C5     C     0.91422   0.47042   0.36037   0.00000  Uiso   1.00
C6     C     0.91666   0.53682   0.35942   0.00000  Uiso   1.00
C7     C     0.02570   0.62102   0.65748   0.00000  Uiso   1.00
C8     C     0.98397   0.62291   0.65685   0.00000  Uiso   1.00
C9     C     0.96912   0.58640   0.51969   0.00000  Uiso   1.00
C10    C     0.03729   0.58331   0.52056   0.00000  Uiso   1.00
C11    C     0.92868   0.57656   0.43976   0.00000  Uiso   1.00
C12    C     0.07679   0.57010   0.44144   0.00000  Uiso   1.00
C13    C     0.89833   0.60904   0.44666   0.00000  Uiso   1.00
C14    C     0.89040   0.39989   0.44941   0.00000  Uiso   1.00
C15    C     0.14787   0.59002   0.57027   0.00000  Uiso   1.00
C16    C     0.17891   0.61829   0.57795   0.00000  Uiso   1.00
C17    C     0.17314   0.65785   0.46467   0.00000  Uiso   1.00
C18    C     0.13481   0.66792   0.34439   0.00000  Uiso   1.00
C19    C     0.10370   0.63969   0.33707   0.00000  Uiso   1.00
C20    C     0.09273   0.35190   0.33426   0.00000  Uiso   1.00
C21    C     0.12154   0.32137   0.34220   0.00000  Uiso   1.00
C22    C     0.16950   0.36781   0.57764   0.00000  Uiso   1.00
C23    C     0.14060   0.39821   0.56826   0.00000  Uiso   1.00
C24    C     0.83946   0.67115   0.46231   0.00000  Uiso   1.00
C25    C     0.20615   0.68763   0.47130   0.00000  Uiso   1.00
C26    C     0.75320   0.32498   0.48825   0.00000  Uiso   1.00
C27    C     0.72194   0.29695   0.49361   0.00000  Uiso   1.00
C28    C     0.73015   0.25521   0.48574   0.00000  Uiso   1.00
C29    C     0.77069   0.24241   0.46905   0.00000  Uiso   1.00
C30    C     0.80188   0.27051   0.46058   0.00000  Uiso   1.00
N31    N     0.81197   0.70335   0.47107   0.00000  Uiso   1.00
C32    C     0.77377   0.69693   0.50204   0.00000  Uiso   1.00
H33    H     0.00086   0.53429   0.35822   0.00000  Uiso   1.00
H34    H     0.85452   0.54623   0.13779   0.00000  Uiso   1.00
H35    H     0.85155   0.46550   0.13893   0.00000  Uiso   1.00
H36    H     0.04640   0.64354   0.75397   0.00000  Uiso   1.00
H37    H     0.96535   0.64719   0.75300   0.00000  Uiso   1.00
H38    H     0.15291   0.55971   0.66706   0.00000  Uiso   1.00
H39    H     0.20810   0.60959   0.67958   0.00000  Uiso   1.00
H40    H     0.12934   0.69825   0.24914   0.00000  Uiso   1.00
H41    H     0.07443   0.64810   0.23474   0.00000  Uiso   1.00
H42    H     0.06277   0.34582   0.23361   0.00000  Uiso   1.00
H43    H     0.11427   0.29128   0.24968   0.00000  Uiso   1.00
H44    H     0.19919   0.37422   0.68069   0.00000  Uiso   1.00
H45    H     0.14778   0.42808   0.66554   0.00000  Uiso   1.00
H46    H     0.74583   0.35734   0.49416   0.00000  Uiso   1.00
H47    H     0.69038   0.30729   0.50647   0.00000  Uiso   1.00
H48    H     0.77724   0.20986   0.46243   0.00000  Uiso   1.00
H49    H     0.83326   0.25974   0.44904   0.00000  Uiso   1.00
H50    H     0.76043   0.66574   0.51657   0.00000  Uiso   1.00
N51    N     0.06121   0.49723   0.42005   0.00000  Uiso   1.00
N52    N     0.99777   0.43718   0.45540   0.00000  Uiso   1.00
C53    C     0.12248   0.47439   0.22934   0.00000  Uiso   1.00
C54    C     0.12400   0.51558   0.22998   0.00000  Uiso   1.00
C55    C     0.08578   0.52958   0.36037   0.00000  Uiso   1.00
C56    C     0.08334   0.46318   0.35942   0.00000  Uiso   1.00
C57    C     0.97430   0.37898   0.65748   0.00000  Uiso   1.00
C58    C     0.01603   0.37709   0.65685   0.00000  Uiso   1.00
C59    C     0.03088   0.41360   0.51969   0.00000  Uiso   1.00
C60    C     0.96271   0.41669   0.52056   0.00000  Uiso   1.00
C61    C     0.07132   0.42344   0.43976   0.00000  Uiso   1.00
C62    C     0.92321   0.42990   0.44144   0.00000  Uiso   1.00
C63    C     0.10167   0.39096   0.44666   0.00000  Uiso   1.00
C64    C     0.10960   0.60011   0.44941   0.00000  Uiso   1.00
C65    C     0.85213   0.40998   0.57027   0.00000  Uiso   1.00
C66    C     0.82109   0.38171   0.57795   0.00000  Uiso   1.00
C67    C     0.82686   0.34215   0.46467   0.00000  Uiso   1.00
C68    C     0.86519   0.33208   0.34439   0.00000  Uiso   1.00
C69    C     0.89630   0.36031   0.33707   0.00000  Uiso   1.00
C70    C     0.90727   0.64810   0.33426   0.00000  Uiso   1.00
C71    C     0.87846   0.67863   0.34220   0.00000  Uiso   1.00
C72    C     0.83050   0.63219   0.57764   0.00000  Uiso   1.00
C73    C     0.85940   0.60179   0.56826   0.00000  Uiso   1.00
C74    C     0.16054   0.32885   0.46231   0.00000  Uiso   1.00
C75    C     0.79385   0.31237   0.47130   0.00000  Uiso   1.00
C76    C     0.24680   0.67502   0.48825   0.00000  Uiso   1.00
C77    C     0.27806   0.70305   0.49361   0.00000  Uiso   1.00
C78    C     0.26985   0.74479   0.48574   0.00000  Uiso   1.00
C79    C     0.22931   0.75759   0.46905   0.00000  Uiso   1.00
C80    C     0.19812   0.72949   0.46058   0.00000  Uiso   1.00
N81    N     0.18803   0.29665   0.47107   0.00000  Uiso   1.00
C82    C     0.22623   0.30307   0.50204   0.00000  Uiso   1.00
H83    H     0.99914   0.46571   0.35822   0.00000  Uiso   1.00
H84    H     0.14548   0.45377   0.13779   0.00000  Uiso   1.00
H85    H     0.14845   0.53450   0.13893   0.00000  Uiso   1.00
H86    H     0.95360   0.35646   0.75397   0.00000  Uiso   1.00
H87    H     0.03465   0.35281   0.75300   0.00000  Uiso   1.00
H88    H     0.84709   0.44029   0.66706   0.00000  Uiso   1.00
H89    H     0.79190   0.39041   0.67958   0.00000  Uiso   1.00
H90    H     0.87066   0.30175   0.24914   0.00000  Uiso   1.00
H91    H     0.92557   0.35190   0.23474   0.00000  Uiso   1.00
H92    H     0.93723   0.65418   0.23361   0.00000  Uiso   1.00
H93    H     0.88573   0.70872   0.24968   0.00000  Uiso   1.00
H94    H     0.80081   0.62578   0.68069   0.00000  Uiso   1.00
H95    H     0.85222   0.57192   0.66554   0.00000  Uiso   1.00
H96    H     0.25417   0.64266   0.49416   0.00000  Uiso   1.00
H97    H     0.30962   0.69271   0.50647   0.00000  Uiso   1.00
H98    H     0.22276   0.79014   0.46243   0.00000  Uiso   1.00
H99    H     0.16674   0.74026   0.44904   0.00000  Uiso   1.00
H100   H     0.23957   0.33426   0.51657   0.00000  Uiso   1.00
N101   N     0.49723   0.93879   0.42005   0.00000  Uiso   1.00
N102   N     0.43718   0.00223   0.45540   0.00000  Uiso   1.00
C103   C     0.47439   0.87752   0.22934   0.00000  Uiso   1.00
C104   C     0.51558   0.87600   0.22998   0.00000  Uiso   1.00
C105   C     0.52958   0.91422   0.36037   0.00000  Uiso   1.00
C106   C     0.46318   0.91666   0.35942   0.00000  Uiso   1.00
C107   C     0.37898   0.02570   0.65748   0.00000  Uiso   1.00
C108   C     0.37709   0.98397   0.65685   0.00000  Uiso   1.00
C109   C     0.41360   0.96912   0.51969   0.00000  Uiso   1.00
C110   C     0.41669   0.03729   0.52056   0.00000  Uiso   1.00
C111   C     0.42344   0.92868   0.43976   0.00000  Uiso   1.00
C112   C     0.42990   0.07679   0.44144   0.00000  Uiso   1.00
C113   C     0.39096   0.89833   0.44666   0.00000  Uiso   1.00
C114   C     0.60011   0.89040   0.44941   0.00000  Uiso   1.00
C115   C     0.40998   0.14787   0.57027   0.00000  Uiso   1.00
C116   C     0.38171   0.17891   0.57795   0.00000  Uiso   1.00
C117   C     0.34215   0.17314   0.46467   0.00000  Uiso   1.00
C118   C     0.33208   0.13481   0.34439   0.00000  Uiso   1.00
C119   C     0.36031   0.10370   0.33707   0.00000  Uiso   1.00
C120   C     0.64810   0.09273   0.33426   0.00000  Uiso   1.00
C121   C     0.67863   0.12154   0.34220   0.00000  Uiso   1.00
C122   C     0.63219   0.16950   0.57764   0.00000  Uiso   1.00
C123   C     0.60179   0.14060   0.56826   0.00000  Uiso   1.00
C124   C     0.32885   0.83946   0.46231   0.00000  Uiso   1.00
C125   C     0.31237   0.20615   0.47130   0.00000  Uiso   1.00
C126   C     0.67502   0.75320   0.48825   0.00000  Uiso   1.00
C127   C     0.70305   0.72194   0.49361   0.00000  Uiso   1.00
C128   C     0.74479   0.73015   0.48574   0.00000  Uiso   1.00
C129   C     0.75759   0.77069   0.46905   0.00000  Uiso   1.00
C130   C     0.72949   0.80188   0.46058   0.00000  Uiso   1.00
N131   N     0.29665   0.81197   0.47107   0.00000  Uiso   1.00
C132   C     0.30307   0.77377   0.50204   0.00000  Uiso   1.00
H133   H     0.46571   0.00086   0.35822   0.00000  Uiso   1.00
H134   H     0.45377   0.85452   0.13779   0.00000  Uiso   1.00
H135   H     0.53450   0.85155   0.13893   0.00000  Uiso   1.00
H136   H     0.35646   0.04640   0.75397   0.00000  Uiso   1.00
H137   H     0.35281   0.96535   0.75300   0.00000  Uiso   1.00
H138   H     0.44029   0.15291   0.66706   0.00000  Uiso   1.00
H139   H     0.39041   0.20810   0.67958   0.00000  Uiso   1.00
H140   H     0.30175   0.12934   0.24914   0.00000  Uiso   1.00
H141   H     0.35190   0.07443   0.23474   0.00000  Uiso   1.00
H142   H     0.65418   0.06277   0.23361   0.00000  Uiso   1.00
H143   H     0.70872   0.11427   0.24968   0.00000  Uiso   1.00
H144   H     0.62578   0.19919   0.68069   0.00000  Uiso   1.00
H145   H     0.57192   0.14778   0.66554   0.00000  Uiso   1.00
H146   H     0.64266   0.74583   0.49416   0.00000  Uiso   1.00
H147   H     0.69271   0.69038   0.50647   0.00000  Uiso   1.00
H148   H     0.79014   0.77724   0.46243   0.00000  Uiso   1.00
H149   H     0.74026   0.83326   0.44904   0.00000  Uiso   1.00
H150   H     0.33426   0.76043   0.51657   0.00000  Uiso   1.00
N151   N     0.50277   0.06121   0.42005   0.00000  Uiso   1.00
N152   N     0.56282   0.99777   0.45540   0.00000  Uiso   1.00
C153   C     0.52561   0.12248   0.22934   0.00000  Uiso   1.00
C154   C     0.48442   0.12400   0.22998   0.00000  Uiso   1.00
C155   C     0.47042   0.08578   0.36037   0.00000  Uiso   1.00
C156   C     0.53682   0.08334   0.35942   0.00000  Uiso   1.00
C157   C     0.62102   0.97430   0.65748   0.00000  Uiso   1.00
C158   C     0.62291   0.01603   0.65685   0.00000  Uiso   1.00
C159   C     0.58640   0.03088   0.51969   0.00000  Uiso   1.00
C160   C     0.58331   0.96271   0.52056   0.00000  Uiso   1.00
C161   C     0.57656   0.07132   0.43976   0.00000  Uiso   1.00
C162   C     0.57010   0.92321   0.44144   0.00000  Uiso   1.00
C163   C     0.60904   0.10167   0.44666   0.00000  Uiso   1.00
C164   C     0.39989   0.10960   0.44941   0.00000  Uiso   1.00
C165   C     0.59002   0.85213   0.57027   0.00000  Uiso   1.00
C166   C     0.61829   0.82109   0.57795   0.00000  Uiso   1.00
C167   C     0.65785   0.82686   0.46467   0.00000  Uiso   1.00
C168   C     0.66792   0.86519   0.34439   0.00000  Uiso   1.00
C169   C     0.63969   0.89630   0.33707   0.00000  Uiso   1.00
C170   C     0.35190   0.90727   0.33426   0.00000  Uiso   1.00
C171   C     0.32137   0.87846   0.34220   0.00000  Uiso   1.00
C172   C     0.36781   0.83050   0.57764   0.00000  Uiso   1.00
C173   C     0.39821   0.85940   0.56826   0.00000  Uiso   1.00
C174   C     0.67115   0.16054   0.46231   0.00000  Uiso   1.00
C175   C     0.68763   0.79385   0.47130   0.00000  Uiso   1.00
C176   C     0.32498   0.24680   0.48825   0.00000  Uiso   1.00
C177   C     0.29695   0.27806   0.49361   0.00000  Uiso   1.00
C178   C     0.25521   0.26985   0.48574   0.00000  Uiso   1.00
C179   C     0.24241   0.22931   0.46905   0.00000  Uiso   1.00
C180   C     0.27051   0.19812   0.46058   0.00000  Uiso   1.00
N181   N     0.70335   0.18803   0.47107   0.00000  Uiso   1.00
C182   C     0.69693   0.22623   0.50204   0.00000  Uiso   1.00
H183   H     0.53429   0.99914   0.35822   0.00000  Uiso   1.00
H184   H     0.54623   0.14548   0.13779   0.00000  Uiso   1.00
H185   H     0.46550   0.14845   0.13893   0.00000  Uiso   1.00
H186   H     0.64354   0.95360   0.75397   0.00000  Uiso   1.00
H187   H     0.64719   0.03465   0.75300   0.00000  Uiso   1.00
H188   H     0.55971   0.84709   0.66706   0.00000  Uiso   1.00
H189   H     0.60959   0.79190   0.67958   0.00000  Uiso   1.00
H190   H     0.69825   0.87066   0.24914   0.00000  Uiso   1.00
H191   H     0.64810   0.92557   0.23474   0.00000  Uiso   1.00
H192   H     0.34582   0.93723   0.23361   0.00000  Uiso   1.00
H193   H     0.29128   0.88573   0.24968   0.00000  Uiso   1.00
H194   H     0.37422   0.80081   0.68069   0.00000  Uiso   1.00
H195   H     0.42808   0.85222   0.66554   0.00000  Uiso   1.00
H196   H     0.35734   0.25417   0.49416   0.00000  Uiso   1.00
H197   H     0.30729   0.30962   0.50647   0.00000  Uiso   1.00
H198   H     0.20986   0.22276   0.46243   0.00000  Uiso   1.00
H199   H     0.25974   0.16674   0.44904   0.00000  Uiso   1.00
H200   H     0.66574   0.23957   0.51657   0.00000  Uiso   1.00
loop_
_geom_bond_atom_site_label_1
_geom_bond_atom_site_label_2
_geom_bond_distance
_geom_bond_site_symmetry_2
_ccdc_geom_bond_type
N1     C5      1.369   .     S
N1     C6      1.369   .     D
N2     C9      1.374   1_455 S
N2     C10     1.373   .     S
N2     H33     1.035   .     S
C3     C4      1.364   .     D
C3     C6      1.461   .     S
C3     H34     1.097   .     S
C4     C5      1.461   .     S
C4     H35     1.097   .     S
C5     C62     1.418   .     D
C6     C11     1.417   .     S
C7     C8      1.382   1_455 D
C7     C10     1.435   .     S
C7     H36     1.096   .     S
C8     C7      1.382   1_655 D
C8     C9      1.434   .     S
C8     H37     1.095   .     S
C9     N2      1.374   1_655 S
C9     C11     1.420   .     D
C10    C12     1.420   .     D
C11    C13     1.471   .     S
C12    C55     1.418   .     S
C12    C64     1.472   .     S
C13    C70     1.413   .     D
C13    C73     1.413   .     S
C14    C62     1.472   .     S
C14    C65     1.411   .     S
C14    C69     1.411   .     D
C15    C16     1.390   .     S
C15    H38     1.100   .     S
C15    C64     1.411   .     D
C16    C17     1.412   .     D
C16    H39     1.100   .     S
C17    C18     1.412   .     S
C17    C25     1.471   .     S
C18    C19     1.390   .     D
C18    H40     1.101   .     S
C19    H41     1.102   .     S
C19    C64     1.411   .     S
C20    C21     1.389   .     D
C20    H42     1.102   .     S
C20    C63     1.413   .     S
C21    H43     1.100   .     S
C21    C74     1.414   .     S
C22    C23     1.388   .     S
C22    H44     1.100   .     S
C22    C74     1.415   .     D
C23    H45     1.101   .     S
C23    C63     1.413   .     D
C24    N31     1.401   .     S
C24    C71     1.414   .     D
C24    C72     1.415   .     S
C25    C76     1.410   .     D
C25    C80     1.411   .     S
C26    C27     1.389   .     D
C26    H46     1.098   .     S
C26    C75     1.410   .     S
C27    C28     1.408   .     S
C27    H47     1.100   .     S
C28    C29     1.408   .     D
C28    C182    1.460   .     S
C29    C30     1.389   .     S
C29    H48     1.099   .     S
C30    H49     1.099   .     S
C30    C75     1.411   .     D
N31    C32     1.289   .     D
C32    H50     1.124   .     S
C32    C128    1.460   .     S
N51    C55     1.369   .     D
N51    C56     1.369   .     S
N52    C59     1.374   1_655 S
N52    C60     1.373   .     S
N52    H83     1.035   .     S
C53    C54     1.364   .     D
C53    C56     1.461   .     S
C53    H84     1.097   .     S
C54    C55     1.461   .     S
C54    H85     1.097   .     S
C56    C61     1.417   .     D
C57    C58     1.382   1_655 S
C57    C60     1.435   .     D
C57    H86     1.096   .     S
C58    C57     1.382   1_455 S
C58    C59     1.434   .     D
C58    H87     1.095   .     S
C59    N52     1.374   1_455 S
C59    C61     1.420   .     S
C60    C62     1.420   .     S
C61    C63     1.471   .     S
C65    C66     1.390   .     D
C65    H88     1.100   .     S
C66    C67     1.412   .     S
C66    H89     1.100   .     S
C67    C68     1.412   .     D
C67    C75     1.471   .     S
C68    C69     1.390   .     S
C68    H90     1.101   .     S
C69    H91     1.102   .     S
C70    C71     1.389   .     S
C70    H92     1.102   .     S
C71    H93     1.100   .     S
C72    C73     1.388   .     D
C72    H94     1.100   .     S
C73    H95     1.101   .     S
C74    N81     1.401   .     S
C76    C77     1.389   .     S
C76    H96     1.098   .     S
C77    C78     1.408   .     D
C77    H97     1.100   .     S
C78    C79     1.408   .     S
C78    C132    1.460   .     S
C79    C80     1.389   .     D
C79    H98     1.099   .     S
C80    H99     1.099   .     S
N81    C82     1.289   .     D
C82    H100    1.124   .     S
C82    C178    1.460   .     S
N101   C105    1.369   .     S
N101   C106    1.369   .     D
N102   C109    1.374   1_545 S
N102   C110    1.373   .     S
N102   H133    1.035   .     S
C103   C104    1.364   .     D
C103   C106    1.461   .     S
C103   H134    1.097   .     S
C104   C105    1.461   .     S
C104   H135    1.097   .     S
C105   C162    1.418   .     D
C106   C111    1.417   .     S
C107   C108    1.382   1_545 D
C107   C110    1.435   .     S
C107   H136    1.096   .     S
C108   C107    1.382   1_565 D
C108   C109    1.434   .     S
C108   H137    1.095   .     S
C109   N102    1.374   1_565 S
C109   C111    1.420   .     D
C110   C112    1.420   .     D
C111   C113    1.471   .     S
C112   C155    1.418   .     S
C112   C164    1.472   .     S
C113   C170    1.413   .     D
C113   C173    1.413   .     S
C114   C162    1.472   .     S
C114   C165    1.411   .     S
C114   C169    1.411   .     D
C115   C116    1.390   .     S
C115   H138    1.100   .     S
C115   C164    1.411   .     D
C116   C117    1.412   .     D
C116   H139    1.100   .     S
C117   C118    1.412   .     S
C117   C125    1.471   .     S
C118   C119    1.390   .     D
C118   H140    1.101   .     S
C119   H141    1.102   .     S
C119   C164    1.411   .     S
C120   C121    1.389   .     S
C120   H142    1.102   .     S
C120   C163    1.413   .     D
C121   H143    1.100   .     S
C121   C174    1.414   .     D
C122   C123    1.388   .     D
C122   H144    1.100   .     S
C122   C174    1.415   .     S
C123   H145    1.101   .     S
C123   C163    1.413   .     S
C124   N131    1.401   .     S
C124   C171    1.414   .     D
C124   C172    1.415   .     S
C125   C176    1.410   .     D
C125   C180    1.411   .     S
C126   C127    1.389   .     D
C126   H146    1.098   .     S
C126   C175    1.410   .     S
C127   C128    1.408   .     S
C127   H147    1.100   .     S
C128   C129    1.408   .     D
C129   C130    1.389   .     S
C129   H148    1.099   .     S
C130   H149    1.099   .     S
C130   C175    1.411   .     D
N131   C132    1.289   .     D
C132   H150    1.124   .     S
N151   C155    1.369   .     D
N151   C156    1.369   .     S
N152   C159    1.374   1_565 S
N152   C160    1.373   .     S
N152   H183    1.035   .     S
C153   C154    1.364   .     D
C153   C156    1.461   .     S
C153   H184    1.097   .     S
C154   C155    1.461   .     S
C154   H185    1.097   .     S
C156   C161    1.417   .     D
C157   C158    1.382   1_565 S
C157   C160    1.435   .     D
C157   H186    1.096   .     S
C158   C157    1.382   1_545 S
C158   C159    1.434   .     D
C158   H187    1.095   .     S
C159   N152    1.374   1_545 S
C159   C161    1.420   .     S
C160   C162    1.420   .     S
C161   C163    1.471   .     S
C165   C166    1.390   .     D
C165   H188    1.100   .     S
C166   C167    1.412   .     S
C166   H189    1.100   .     S
C167   C168    1.412   .     D
C167   C175    1.471   .     S
C168   C169    1.390   .     S
C168   H190    1.101   .     S
C169   H191    1.102   .     S
C170   C171    1.389   .     S
C170   H192    1.102   .     S
C171   H193    1.100   .     S
C172   C173    1.388   .     D
C172   H194    1.100   .     S
C173   H195    1.101   .     S
C174   N181    1.401   .     S
C176   C177    1.389   .     S
C176   H196    1.098   .     S
C177   C178    1.408   .     D
C177   H197    1.100   .     S
C178   C179    1.408   .     S
C179   C180    1.389   .     D
C179   H198    1.099   .     S
C180   H199    1.099   .     S
N181   C182    1.289   .     D
C182   H200    1.124   .     S
