data_280
_audit_creation_date              2023-09-08
_audit_creation_method            'Materials Studio'
_symmetry_space_group_name_H-M    'P1'
_symmetry_Int_Tables_number       1
_symmetry_cell_setting            triclinic
loop_
_symmetry_equiv_pos_as_xyz
  x,y,z
_cell_length_a                    18.5630
_cell_length_b                    18.5630
_cell_length_c                    37.4578
_cell_angle_alpha                 90.0000
_cell_angle_beta                  90.0000
_cell_angle_gamma                 90.0000
loop_
_atom_site_label
_atom_site_type_symbol
_atom_site_fract_x
_atom_site_fract_y
_atom_site_fract_z
_atom_site_U_iso_or_equiv
_atom_site_adp_type
_atom_site_occupancy
C1     C     0.47247   0.47247   0.56002   0.00000  Uiso   1.00
C2     C     0.43884   0.43884   0.58851   0.00000  Uiso   1.00
C3     C     0.38625   0.38625   0.58125   0.00000  Uiso   1.00
C4     C     0.36822   0.36821   0.54558   0.00000  Uiso   1.00
C5     C     0.40381   0.40381   0.51723   0.00000  Uiso   1.00
C6     C     0.45567   0.45567   0.52521   0.00000  Uiso   1.00
C7     C     0.27987   0.27987   0.66962   0.00000  Uiso   1.00
C8     C     0.24861   0.24861   0.69956   0.00000  Uiso   1.00
C9     C     0.26830   0.26830   0.73443   0.00000  Uiso   1.00
C10    C     0.32255   0.32255   0.73809   0.00000  Uiso   1.00
C11    C     0.35357   0.35357   0.70782   0.00000  Uiso   1.00
C12    C     0.33271   0.33271   0.67370   0.00000  Uiso   1.00
C13    C     0.14990   0.85010   0.11099   0.00000  Uiso   1.00
N14    N     0.13390   0.86610   0.14368   0.00000  Uiso   1.00
O15    O     0.81528   0.18472   0.03955   0.00000  Uiso   1.00
C16    C     0.79979   0.20021   0.00312   0.00000  Uiso   1.00
C17    C     0.35012   0.35012   0.77291   0.00000  Uiso   1.00
H18    H     0.19252   0.80748   0.10515   0.00000  Uiso   1.00
H19    H     0.39101   0.39480   0.76788   0.00000  Uiso   1.00
H20    H     0.37706   0.30433   0.78818   0.00000  Uiso   1.00
H21    H     0.30335   0.37229   0.78930   0.00000  Uiso   1.00
H22    H     0.80822   0.14962   0.98637   0.00000  Uiso   1.00
H23    H     0.83727   0.24460   0.99325   0.00000  Uiso   1.00
H24    H     0.74149   0.21880   0.00056   0.00000  Uiso   1.00
H25    H     0.45398   0.45398   0.61704   0.00000  Uiso   1.00
H26    H     0.38992   0.38992   0.48839   0.00000  Uiso   1.00
H27    H     0.26234   0.26234   0.64177   0.00000  Uiso   1.00
H28    H     0.20544   0.20544   0.69628   0.00000  Uiso   1.00
H29    H     0.39678   0.39678   0.71084   0.00000  Uiso   1.00
C30    C     0.52753   0.52753   0.56002   0.00000  Uiso   1.00
C31    C     0.56116   0.56116   0.58851   0.00000  Uiso   1.00
C32    C     0.61375   0.61375   0.58125   0.00000  Uiso   1.00
C33    C     0.63178   0.63179   0.54558   0.00000  Uiso   1.00
C34    C     0.59619   0.59619   0.51723   0.00000  Uiso   1.00
C35    C     0.54433   0.54433   0.52521   0.00000  Uiso   1.00
C36    C     0.72013   0.72013   0.66962   0.00000  Uiso   1.00
C37    C     0.75139   0.75139   0.69956   0.00000  Uiso   1.00
C38    C     0.73170   0.73170   0.73443   0.00000  Uiso   1.00
C39    C     0.67745   0.67745   0.73809   0.00000  Uiso   1.00
C40    C     0.64643   0.64643   0.70782   0.00000  Uiso   1.00
C41    C     0.66729   0.66729   0.67370   0.00000  Uiso   1.00
C42    C     0.85010   0.14990   0.11099   0.00000  Uiso   1.00
N43    N     0.86610   0.13390   0.14368   0.00000  Uiso   1.00
O44    O     0.18472   0.81528   0.03955   0.00000  Uiso   1.00
C45    C     0.20021   0.79979   0.00312   0.00000  Uiso   1.00
C46    C     0.64988   0.64988   0.77291   0.00000  Uiso   1.00
H47    H     0.80748   0.19252   0.10515   0.00000  Uiso   1.00
H48    H     0.60899   0.60520   0.76788   0.00000  Uiso   1.00
H49    H     0.62294   0.69567   0.78818   0.00000  Uiso   1.00
H50    H     0.69665   0.62771   0.78930   0.00000  Uiso   1.00
H51    H     0.19178   0.85038   0.98637   0.00000  Uiso   1.00
H52    H     0.16273   0.75540   0.99325   0.00000  Uiso   1.00
H53    H     0.25851   0.78120   0.00056   0.00000  Uiso   1.00
H54    H     0.54602   0.54602   0.61704   0.00000  Uiso   1.00
H55    H     0.61008   0.61008   0.48839   0.00000  Uiso   1.00
H56    H     0.73766   0.73766   0.64177   0.00000  Uiso   1.00
H57    H     0.79456   0.79456   0.69628   0.00000  Uiso   1.00
H58    H     0.60322   0.60322   0.71084   0.00000  Uiso   1.00
C59    C     0.02753   0.97247   0.06002   0.00000  Uiso   1.00
C60    C     0.06116   0.93884   0.08851   0.00000  Uiso   1.00
C61    C     0.11375   0.88625   0.08125   0.00000  Uiso   1.00
C62    C     0.13179   0.86822   0.04558   0.00000  Uiso   1.00
C63    C     0.09619   0.90381   0.01723   0.00000  Uiso   1.00
C64    C     0.04433   0.95567   0.02521   0.00000  Uiso   1.00
C65    C     0.22013   0.77987   0.16962   0.00000  Uiso   1.00
C66    C     0.25139   0.74861   0.19956   0.00000  Uiso   1.00
C67    C     0.23170   0.76830   0.23443   0.00000  Uiso   1.00
C68    C     0.17745   0.82255   0.23809   0.00000  Uiso   1.00
C69    C     0.14643   0.85357   0.20782   0.00000  Uiso   1.00
C70    C     0.16729   0.83271   0.17370   0.00000  Uiso   1.00
C71    C     0.64990   0.64990   0.61099   0.00000  Uiso   1.00
N72    N     0.63390   0.63390   0.64368   0.00000  Uiso   1.00
O73    O     0.31528   0.31528   0.53955   0.00000  Uiso   1.00
C74    C     0.29979   0.29979   0.50312   0.00000  Uiso   1.00
C75    C     0.14988   0.85012   0.27291   0.00000  Uiso   1.00
H76    H     0.69252   0.69252   0.60515   0.00000  Uiso   1.00
H77    H     0.10520   0.89101   0.26788   0.00000  Uiso   1.00
H78    H     0.19567   0.87706   0.28818   0.00000  Uiso   1.00
H79    H     0.12771   0.80335   0.28930   0.00000  Uiso   1.00
H80    H     0.35038   0.30822   0.48637   0.00000  Uiso   1.00
H81    H     0.25540   0.33727   0.49325   0.00000  Uiso   1.00
H82    H     0.28120   0.24149   0.50056   0.00000  Uiso   1.00
H83    H     0.04602   0.95398   0.11704   0.00000  Uiso   1.00
H84    H     0.11008   0.88992   0.98839   0.00000  Uiso   1.00
H85    H     0.23766   0.76234   0.14177   0.00000  Uiso   1.00
H86    H     0.29456   0.70544   0.19628   0.00000  Uiso   1.00
H87    H     0.10322   0.89678   0.21084   0.00000  Uiso   1.00
C88    C     0.97247   0.02753   0.06002   0.00000  Uiso   1.00
C89    C     0.93884   0.06116   0.08851   0.00000  Uiso   1.00
C90    C     0.88625   0.11375   0.08125   0.00000  Uiso   1.00
C91    C     0.86821   0.13178   0.04558   0.00000  Uiso   1.00
C92    C     0.90381   0.09619   0.01723   0.00000  Uiso   1.00
C93    C     0.95567   0.04433   0.02521   0.00000  Uiso   1.00
C94    C     0.77987   0.22013   0.16962   0.00000  Uiso   1.00
C95    C     0.74861   0.25139   0.19956   0.00000  Uiso   1.00
C96    C     0.76830   0.23170   0.23443   0.00000  Uiso   1.00
C97    C     0.82255   0.17745   0.23809   0.00000  Uiso   1.00
C98    C     0.85357   0.14643   0.20782   0.00000  Uiso   1.00
C99    C     0.83271   0.16729   0.17370   0.00000  Uiso   1.00
C100   C     0.35010   0.35010   0.61099   0.00000  Uiso   1.00
N101   N     0.36610   0.36610   0.64368   0.00000  Uiso   1.00
O102   O     0.68472   0.68472   0.53955   0.00000  Uiso   1.00
C103   C     0.70021   0.70021   0.50312   0.00000  Uiso   1.00
C104   C     0.85012   0.14988   0.27291   0.00000  Uiso   1.00
H105   H     0.30748   0.30748   0.60515   0.00000  Uiso   1.00
H106   H     0.89480   0.10899   0.26788   0.00000  Uiso   1.00
H107   H     0.80433   0.12294   0.28818   0.00000  Uiso   1.00
H108   H     0.87229   0.19665   0.28930   0.00000  Uiso   1.00
H109   H     0.64962   0.69178   0.48637   0.00000  Uiso   1.00
H110   H     0.74460   0.66273   0.49325   0.00000  Uiso   1.00
H111   H     0.71880   0.75851   0.50056   0.00000  Uiso   1.00
H112   H     0.95398   0.04602   0.11704   0.00000  Uiso   1.00
H113   H     0.88992   0.11008   0.98839   0.00000  Uiso   1.00
H114   H     0.76234   0.23766   0.14177   0.00000  Uiso   1.00
H115   H     0.70544   0.29456   0.19628   0.00000  Uiso   1.00
H116   H     0.89678   0.10322   0.21084   0.00000  Uiso   1.00
C117   C     0.02753   0.02753   0.93998   0.00000  Uiso   1.00
C118   C     0.06116   0.06116   0.91149   0.00000  Uiso   1.00
C119   C     0.11375   0.11375   0.91875   0.00000  Uiso   1.00
C120   C     0.13178   0.13179   0.95442   0.00000  Uiso   1.00
C121   C     0.09619   0.09619   0.98277   0.00000  Uiso   1.00
C122   C     0.04433   0.04433   0.97479   0.00000  Uiso   1.00
C123   C     0.22013   0.22013   0.83038   0.00000  Uiso   1.00
C124   C     0.25139   0.25139   0.80044   0.00000  Uiso   1.00
C125   C     0.23170   0.23170   0.76557   0.00000  Uiso   1.00
C126   C     0.17745   0.17745   0.76191   0.00000  Uiso   1.00
C127   C     0.14643   0.14643   0.79218   0.00000  Uiso   1.00
C128   C     0.16729   0.16729   0.82630   0.00000  Uiso   1.00
C129   C     0.35010   0.64990   0.38901   0.00000  Uiso   1.00
N130   N     0.36610   0.63390   0.35632   0.00000  Uiso   1.00
O131   O     0.68472   0.31528   0.46045   0.00000  Uiso   1.00
C132   C     0.70021   0.29979   0.49688   0.00000  Uiso   1.00
C133   C     0.14988   0.14988   0.72709   0.00000  Uiso   1.00
H134   H     0.30748   0.69252   0.39485   0.00000  Uiso   1.00
H135   H     0.10899   0.10520   0.73212   0.00000  Uiso   1.00
H136   H     0.12294   0.19567   0.71182   0.00000  Uiso   1.00
H137   H     0.19665   0.12771   0.71070   0.00000  Uiso   1.00
H138   H     0.69178   0.35038   0.51363   0.00000  Uiso   1.00
H139   H     0.66273   0.25540   0.50675   0.00000  Uiso   1.00
H140   H     0.75851   0.28120   0.49944   0.00000  Uiso   1.00
H141   H     0.04602   0.04602   0.88296   0.00000  Uiso   1.00
H142   H     0.11008   0.11008   0.01161   0.00000  Uiso   1.00
H143   H     0.23766   0.23766   0.85823   0.00000  Uiso   1.00
H144   H     0.29456   0.29456   0.80372   0.00000  Uiso   1.00
H145   H     0.10322   0.10322   0.78916   0.00000  Uiso   1.00
C146   C     0.97247   0.97247   0.93998   0.00000  Uiso   1.00
C147   C     0.93884   0.93884   0.91149   0.00000  Uiso   1.00
C148   C     0.88625   0.88625   0.91875   0.00000  Uiso   1.00
C149   C     0.86822   0.86821   0.95442   0.00000  Uiso   1.00
C150   C     0.90381   0.90381   0.98277   0.00000  Uiso   1.00
C151   C     0.95567   0.95567   0.97479   0.00000  Uiso   1.00
C152   C     0.77987   0.77987   0.83038   0.00000  Uiso   1.00
C153   C     0.74861   0.74861   0.80044   0.00000  Uiso   1.00
C154   C     0.76830   0.76830   0.76557   0.00000  Uiso   1.00
C155   C     0.82255   0.82255   0.76191   0.00000  Uiso   1.00
C156   C     0.85357   0.85357   0.79218   0.00000  Uiso   1.00
C157   C     0.83271   0.83271   0.82630   0.00000  Uiso   1.00
C158   C     0.64990   0.35010   0.38901   0.00000  Uiso   1.00
N159   N     0.63390   0.36610   0.35632   0.00000  Uiso   1.00
O160   O     0.31528   0.68472   0.46045   0.00000  Uiso   1.00
C161   C     0.29979   0.70021   0.49688   0.00000  Uiso   1.00
C162   C     0.85012   0.85012   0.72709   0.00000  Uiso   1.00
H163   H     0.69252   0.30748   0.39485   0.00000  Uiso   1.00
H164   H     0.89101   0.89480   0.73212   0.00000  Uiso   1.00
H165   H     0.87706   0.80433   0.71182   0.00000  Uiso   1.00
H166   H     0.80335   0.87229   0.71070   0.00000  Uiso   1.00
H167   H     0.30822   0.64962   0.51363   0.00000  Uiso   1.00
H168   H     0.33727   0.74460   0.50675   0.00000  Uiso   1.00
H169   H     0.24149   0.71880   0.49944   0.00000  Uiso   1.00
H170   H     0.95398   0.95398   0.88296   0.00000  Uiso   1.00
H171   H     0.88992   0.88992   0.01161   0.00000  Uiso   1.00
H172   H     0.76234   0.76234   0.85823   0.00000  Uiso   1.00
H173   H     0.70544   0.70544   0.80372   0.00000  Uiso   1.00
H174   H     0.89678   0.89678   0.78916   0.00000  Uiso   1.00
C175   C     0.47247   0.52753   0.43998   0.00000  Uiso   1.00
C176   C     0.43884   0.56116   0.41149   0.00000  Uiso   1.00
C177   C     0.38625   0.61375   0.41875   0.00000  Uiso   1.00
C178   C     0.36821   0.63178   0.45442   0.00000  Uiso   1.00
C179   C     0.40381   0.59619   0.48277   0.00000  Uiso   1.00
C180   C     0.45567   0.54433   0.47479   0.00000  Uiso   1.00
C181   C     0.27987   0.72013   0.33038   0.00000  Uiso   1.00
C182   C     0.24861   0.75139   0.30044   0.00000  Uiso   1.00
C183   C     0.26830   0.73170   0.26557   0.00000  Uiso   1.00
C184   C     0.32255   0.67745   0.26191   0.00000  Uiso   1.00
C185   C     0.35357   0.64643   0.29218   0.00000  Uiso   1.00
C186   C     0.33271   0.66729   0.32630   0.00000  Uiso   1.00
C187   C     0.85010   0.85010   0.88901   0.00000  Uiso   1.00
N188   N     0.86610   0.86610   0.85632   0.00000  Uiso   1.00
O189   O     0.18472   0.18472   0.96045   0.00000  Uiso   1.00
C190   C     0.20021   0.20021   0.99688   0.00000  Uiso   1.00
C191   C     0.35012   0.64988   0.22709   0.00000  Uiso   1.00
H192   H     0.80748   0.80748   0.89485   0.00000  Uiso   1.00
H193   H     0.39480   0.60899   0.23212   0.00000  Uiso   1.00
H194   H     0.30433   0.62294   0.21182   0.00000  Uiso   1.00
H195   H     0.37229   0.69665   0.21070   0.00000  Uiso   1.00
H196   H     0.14962   0.19178   0.01363   0.00000  Uiso   1.00
H197   H     0.24460   0.16273   0.00675   0.00000  Uiso   1.00
H198   H     0.21880   0.25851   0.99944   0.00000  Uiso   1.00
H199   H     0.45398   0.54602   0.38296   0.00000  Uiso   1.00
H200   H     0.38992   0.61008   0.51161   0.00000  Uiso   1.00
H201   H     0.26234   0.73766   0.35823   0.00000  Uiso   1.00
H202   H     0.20544   0.79456   0.30372   0.00000  Uiso   1.00
H203   H     0.39678   0.60322   0.28916   0.00000  Uiso   1.00
C204   C     0.52753   0.47247   0.43998   0.00000  Uiso   1.00
C205   C     0.56116   0.43884   0.41149   0.00000  Uiso   1.00
C206   C     0.61375   0.38625   0.41875   0.00000  Uiso   1.00
C207   C     0.63179   0.36822   0.45442   0.00000  Uiso   1.00
C208   C     0.59619   0.40381   0.48277   0.00000  Uiso   1.00
C209   C     0.54433   0.45567   0.47479   0.00000  Uiso   1.00
C210   C     0.72013   0.27987   0.33038   0.00000  Uiso   1.00
C211   C     0.75139   0.24861   0.30044   0.00000  Uiso   1.00
C212   C     0.73170   0.26830   0.26557   0.00000  Uiso   1.00
C213   C     0.67745   0.32255   0.26191   0.00000  Uiso   1.00
C214   C     0.64643   0.35357   0.29218   0.00000  Uiso   1.00
C215   C     0.66729   0.33271   0.32630   0.00000  Uiso   1.00
C216   C     0.14990   0.14990   0.88901   0.00000  Uiso   1.00
N217   N     0.13390   0.13390   0.85632   0.00000  Uiso   1.00
O218   O     0.81528   0.81528   0.96045   0.00000  Uiso   1.00
C219   C     0.79979   0.79979   0.99688   0.00000  Uiso   1.00
C220   C     0.64988   0.35012   0.22709   0.00000  Uiso   1.00
H221   H     0.19252   0.19252   0.89485   0.00000  Uiso   1.00
H222   H     0.60520   0.39101   0.23212   0.00000  Uiso   1.00
H223   H     0.69567   0.37706   0.21182   0.00000  Uiso   1.00
H224   H     0.62771   0.30335   0.21070   0.00000  Uiso   1.00
H225   H     0.85038   0.80822   0.01363   0.00000  Uiso   1.00
H226   H     0.75540   0.83727   0.00675   0.00000  Uiso   1.00
H227   H     0.78120   0.74149   0.99944   0.00000  Uiso   1.00
H228   H     0.54602   0.45398   0.38296   0.00000  Uiso   1.00
H229   H     0.61008   0.38992   0.51161   0.00000  Uiso   1.00
H230   H     0.73766   0.26234   0.35823   0.00000  Uiso   1.00
H231   H     0.79456   0.20544   0.30372   0.00000  Uiso   1.00
H232   H     0.60322   0.39678   0.28916   0.00000  Uiso   1.00
C233   C     0.50000   0.50000   0.50000   0.00000  Uiso   1.00
C234   C     0.00000   0.00000   0.00000   0.00000  Uiso   1.00
loop_
_geom_bond_atom_site_label_1
_geom_bond_atom_site_label_2
_geom_bond_distance
_geom_bond_site_symmetry_2
_ccdc_geom_bond_type
C1     C2      1.385   .     S
C1     C6      1.376   .     D
C1     C30     1.445   .     S
C2     C3      1.407   .     D
C2     H25     1.140   .     S
C3     C4      1.418   .     S
C3     C100    1.463   .     S
C4     C5      1.415   .     D
C4     O73     1.408   .     S
C5     C6      1.394   .     S
C5     H26     1.140   .     S
C6     C233    1.499   .     S
C7     C8      1.390   .     S
C7     C12     1.396   .     D
C7     H27     1.140   .     S
C8     C9      1.405   .     D
C8     H28     1.140   .     S
C9     C10     1.431   .     S
C9     C125    1.511   .     S
C10    C11     1.396   .     D
C10    C17     1.492   .     S
C11    C12     1.390   .     S
C11    H29     1.140   .     S
C12    N101    1.426   .     S
C13    N14     1.295   .     D
C13    H18     1.140   .     S
C13    C61     1.463   .     S
N14    C70     1.426   .     S
O15    C16     1.424   .     S
O15    C91     1.408   .     S
C16    H22     1.140   1_554 S
C16    H23     1.140   1_554 S
C16    H24     1.140   .     S
C17    H19     1.140   .     S
C17    H20     1.140   .     S
C17    H21     1.140   .     S
H22    C16     1.140   1_556 S
H23    C16     1.140   1_556 S
C30    C31     1.385   .     D
C30    C35     1.376   .     S
C31    C32     1.407   .     S
C31    H54     1.140   .     S
C32    C33     1.418   .     D
C32    C71     1.463   .     S
C33    C34     1.415   .     S
C33    O102    1.408   .     S
C34    C35     1.394   .     D
C34    H55     1.140   .     S
C35    C233    1.499   .     S
C36    C37     1.390   .     S
C36    C41     1.396   .     D
C36    H56     1.140   .     S
C37    C38     1.405   .     D
C37    H57     1.140   .     S
C38    C39     1.431   .     S
C38    C154    1.511   .     S
C39    C40     1.396   .     D
C39    C46     1.492   .     S
C40    C41     1.390   .     S
C40    H58     1.140   .     S
C41    N72     1.426   .     S
C42    N43     1.295   .     D
C42    H47     1.140   .     S
C42    C90     1.463   .     S
N43    C99     1.426   .     S
O44    C45     1.424   .     S
O44    C62     1.408   .     S
C45    H51     1.140   1_554 S
C45    H52     1.140   1_554 S
C45    H53     1.140   .     S
C46    H48     1.140   .     S
C46    H49     1.140   .     S
C46    H50     1.140   .     S
H51    C45     1.140   1_556 S
H52    C45     1.140   1_556 S
C59    C60     1.385   .     S
C59    C64     1.376   .     D
C59    C88     1.445   1_465 S
C60    C61     1.407   .     D
C60    H83     1.140   .     S
C61    C62     1.418   .     S
C62    C63     1.415   .     D
C63    C64     1.394   .     S
C63    H84     1.140   1_554 S
C64    C234    1.499   1_565 S
C65    C66     1.390   .     S
C65    C70     1.396   .     D
C65    H85     1.140   .     S
C66    C67     1.405   .     D
C66    H86     1.140   .     S
C67    C68     1.431   .     S
C67    C183    1.511   .     S
C68    C69     1.396   .     D
C68    C75     1.492   .     S
C69    C70     1.390   .     S
C69    H87     1.140   .     S
C71    N72     1.295   .     D
C71    H76     1.140   .     S
O73    C74     1.424   .     S
C74    H80     1.140   .     S
C74    H81     1.140   .     S
C74    H82     1.140   .     S
C75    H77     1.140   .     S
C75    H78     1.140   .     S
C75    H79     1.140   .     S
H84    C63     1.140   1_556 S
C88    C59     1.445   1_645 S
C88    C89     1.385   .     S
C88    C93     1.376   .     D
C89    C90     1.407   .     D
C89    H112    1.140   .     S
C90    C91     1.418   .     S
C91    C92     1.415   .     D
C92    C93     1.394   .     S
C92    H113    1.140   1_554 S
C93    C234    1.499   1_655 S
C94    C95     1.390   .     S
C94    C99     1.396   .     D
C94    H114    1.140   .     S
C95    C96     1.405   .     D
C95    H115    1.140   .     S
C96    C97     1.431   .     S
C96    C212    1.511   .     S
C97    C98     1.396   .     D
C97    C104    1.492   .     S
C98    C99     1.390   .     S
C98    H116    1.140   .     S
C100   N101    1.295   .     D
C100   H105    1.140   .     S
O102   C103    1.424   .     S
C103   H109    1.140   .     S
C103   H110    1.140   .     S
C103   H111    1.140   .     S
C104   H106    1.140   .     S
C104   H107    1.140   .     S
C104   H108    1.140   .     S
H113   C92     1.140   1_556 S
C117   C118    1.385   .     D
C117   C122    1.376   .     S
C117   C146    1.445   1_445 S
C118   C119    1.407   .     S
C118   H141    1.140   .     S
C119   C120    1.418   .     D
C119   C216    1.463   .     S
C120   C121    1.415   .     S
C120   O189    1.408   .     S
C121   C122    1.394   .     D
C121   H142    1.140   1_556 S
C122   C234    1.499   1_556 S
C123   C124    1.390   .     S
C123   C128    1.396   .     D
C123   H143    1.140   .     S
C124   C125    1.405   .     D
C124   H144    1.140   .     S
C125   C126    1.431   .     S
C126   C127    1.396   .     D
C126   C133    1.492   .     S
C127   C128    1.390   .     S
C127   H145    1.140   .     S
C128   N217    1.426   .     S
C129   N130    1.295   .     D
C129   H134    1.140   .     S
C129   C177    1.463   .     S
N130   C186    1.426   .     S
O131   C132    1.424   .     S
O131   C207    1.408   .     S
C132   H138    1.140   .     S
C132   H139    1.140   .     S
C132   H140    1.140   .     S
C133   H135    1.140   .     S
C133   H136    1.140   .     S
C133   H137    1.140   .     S
H142   C121    1.140   1_554 S
C146   C117    1.445   1_665 S
C146   C147    1.385   .     D
C146   C151    1.376   .     S
C147   C148    1.407   .     S
C147   H170    1.140   .     S
C148   C149    1.418   .     D
C148   C187    1.463   .     S
C149   C150    1.415   .     S
C149   O218    1.408   .     S
C150   C151    1.394   .     D
C150   H171    1.140   1_556 S
C151   C234    1.499   1_666 S
C152   C153    1.390   .     S
C152   C157    1.396   .     D
C152   H172    1.140   .     S
C153   C154    1.405   .     D
C153   H173    1.140   .     S
C154   C155    1.431   .     S
C155   C156    1.396   .     D
C155   C162    1.492   .     S
C156   C157    1.390   .     S
C156   H174    1.140   .     S
C157   N188    1.426   .     S
C158   N159    1.295   .     D
C158   H163    1.140   .     S
C158   C206    1.463   .     S
N159   C215    1.426   .     S
O160   C161    1.424   .     S
O160   C178    1.408   .     S
C161   H167    1.140   .     S
C161   H168    1.140   .     S
C161   H169    1.140   .     S
C162   H164    1.140   .     S
C162   H165    1.140   .     S
C162   H166    1.140   .     S
H171   C150    1.140   1_554 S
C175   C176    1.385   .     S
C175   C180    1.376   .     D
C175   C204    1.445   .     S
C176   C177    1.407   .     D
C176   H199    1.140   .     S
C177   C178    1.418   .     S
C178   C179    1.415   .     D
C179   C180    1.394   .     S
C179   H200    1.140   .     S
C180   C233    1.499   .     S
C181   C182    1.390   .     D
C181   C186    1.396   .     S
C181   H201    1.140   .     S
C182   C183    1.405   .     S
C182   H202    1.140   .     S
C183   C184    1.431   .     D
C184   C185    1.396   .     S
C184   C191    1.492   .     S
C185   C186    1.390   .     D
C185   H203    1.140   .     S
C187   N188    1.295   .     D
C187   H192    1.140   .     S
O189   C190    1.424   .     S
C190   H196    1.140   1_556 S
C190   H197    1.140   1_556 S
C190   H198    1.140   .     S
C191   H193    1.140   .     S
C191   H194    1.140   .     S
C191   H195    1.140   .     S
H196   C190    1.140   1_554 S
H197   C190    1.140   1_554 S
C204   C205    1.385   .     S
C204   C209    1.376   .     D
C205   C206    1.407   .     D
C205   H228    1.140   .     S
C206   C207    1.418   .     S
C207   C208    1.415   .     D
C208   C209    1.394   .     S
C208   H229    1.140   .     S
C209   C233    1.499   .     S
C210   C211    1.390   .     D
C210   C215    1.396   .     S
C210   H230    1.140   .     S
C211   C212    1.405   .     S
C211   H231    1.140   .     S
C212   C213    1.431   .     D
C213   C214    1.396   .     S
C213   C220    1.492   .     S
C214   C215    1.390   .     D
C214   H232    1.140   .     S
C216   N217    1.295   .     D
C216   H221    1.140   .     S
O218   C219    1.424   .     S
C219   H225    1.140   1_556 S
C219   H226    1.140   1_556 S
C219   H227    1.140   .     S
C220   H222    1.140   .     S
C220   H223    1.140   .     S
C220   H224    1.140   .     S
H225   C219    1.140   1_554 S
H226   C219    1.140   1_554 S
C234   C93     1.499   1_455 S
C234   C64     1.499   1_545 S
C234   C122    1.499   1_554 S
C234   C151    1.499   1_444 S
