data_285
_audit_creation_date              2023-09-08
_audit_creation_method            'Materials Studio'
_symmetry_space_group_name_H-M    'P1'
_symmetry_Int_Tables_number       1
_symmetry_cell_setting            triclinic
loop_
_symmetry_equiv_pos_as_xyz
  x,y,z
_cell_length_a                    50.9209
_cell_length_b                    43.2634
_cell_length_c                    3.4837
_cell_angle_alpha                 90.0000
_cell_angle_beta                  90.0000
_cell_angle_gamma                 90.0000
loop_
_atom_site_label
_atom_site_type_symbol
_atom_site_fract_x
_atom_site_fract_y
_atom_site_fract_z
_atom_site_U_iso_or_equiv
_atom_site_adp_type
_atom_site_occupancy
C1     C     0.48679   0.00000   0.50000   0.00000  Uiso   1.00
C2     C     0.98679   0.50000   0.50000   0.00000  Uiso   1.00
C3     C     0.51321   0.00000   0.50000   0.00000  Uiso   1.00
C4     C     0.01321   0.50000   0.50000   0.00000  Uiso   1.00
C5     C     0.08193   0.57157   0.50000   0.00000  Uiso   1.00
H6     H     0.06243   0.58124   0.50000   0.00000  Uiso   1.00
C7     C     0.10243   0.59310   0.50000   0.00000  Uiso   1.00
H8     H     0.09775   0.61751   0.50000   0.00000  Uiso   1.00
C9     C     0.12857   0.58316   0.50000   0.00000  Uiso   1.00
C10    C     0.13376   0.55156   0.50000   0.00000  Uiso   1.00
H11    H     0.15376   0.54308   0.50000   0.00000  Uiso   1.00
C12    C     0.11309   0.53044   0.50000   0.00000  Uiso   1.00
C13    C     0.08672   0.53915   0.50000   0.00000  Uiso   1.00
N14    N     0.14698   0.63467   0.50000   0.00000  Uiso   1.00
C15    C     0.15066   0.60503   0.50000   0.00000  Uiso   1.00
C16    C     0.16156   0.68822   0.50000   0.00000  Uiso   1.00
H17    H     0.14116   0.69531   0.50000   0.00000  Uiso   1.00
C18    C     0.18125   0.71071   0.50000   0.00000  Uiso   1.00
H19    H     0.17459   0.73429   0.50000   0.00000  Uiso   1.00
C20    C     0.20820   0.70253   0.50000   0.00000  Uiso   1.00
C21    C     0.21417   0.67054   0.50000   0.00000  Uiso   1.00
H22    H     0.23396   0.66188   0.50000   0.00000  Uiso   1.00
C23    C     0.19439   0.64817   0.50000   0.00000  Uiso   1.00
H24    H     0.19991   0.62401   0.50000   0.00000  Uiso   1.00
C25    C     0.16788   0.65690   0.50000   0.00000  Uiso   1.00
C26    C     0.25650   0.71882   0.50000   0.00000  Uiso   1.00
H27    H     0.26310   0.69521   0.50000   0.00000  Uiso   1.00
C28    C     0.22376   0.75876   0.50000   0.00000  Uiso   1.00
H29    H     0.20395   0.76737   0.50000   0.00000  Uiso   1.00
C30    C     0.22964   0.72688   0.50000   0.00000  Uiso   1.00
C31    C     0.43599   0.01604   0.50000   0.00000  Uiso   1.00
S32    S     0.46825   0.03470   0.50000   0.00000  Uiso   1.00
H33    H     0.17830   0.59182   0.50000   0.00000  Uiso   1.00
H34    H     0.12058   0.50687   0.50000   0.00000  Uiso   1.00
C35    C     0.58193   0.07157   0.50000   0.00000  Uiso   1.00
H36    H     0.56243   0.08124   0.50000   0.00000  Uiso   1.00
C37    C     0.60243   0.09310   0.50000   0.00000  Uiso   1.00
H38    H     0.59775   0.11751   0.50000   0.00000  Uiso   1.00
C39    C     0.62857   0.08316   0.50000   0.00000  Uiso   1.00
C40    C     0.63376   0.05156   0.50000   0.00000  Uiso   1.00
H41    H     0.65376   0.04308   0.50000   0.00000  Uiso   1.00
C42    C     0.61309   0.03044   0.50000   0.00000  Uiso   1.00
C43    C     0.58672   0.03915   0.50000   0.00000  Uiso   1.00
N44    N     0.64698   0.13467   0.50000   0.00000  Uiso   1.00
C45    C     0.65066   0.10503   0.50000   0.00000  Uiso   1.00
C46    C     0.66156   0.18822   0.50000   0.00000  Uiso   1.00
H47    H     0.64116   0.19531   0.50000   0.00000  Uiso   1.00
C48    C     0.68125   0.21071   0.50000   0.00000  Uiso   1.00
H49    H     0.67459   0.23429   0.50000   0.00000  Uiso   1.00
C50    C     0.70820   0.20253   0.50000   0.00000  Uiso   1.00
C51    C     0.71417   0.17054   0.50000   0.00000  Uiso   1.00
H52    H     0.73396   0.16188   0.50000   0.00000  Uiso   1.00
C53    C     0.69439   0.14817   0.50000   0.00000  Uiso   1.00
H54    H     0.69991   0.12401   0.50000   0.00000  Uiso   1.00
C55    C     0.66788   0.15690   0.50000   0.00000  Uiso   1.00
C56    C     0.75650   0.21882   0.50000   0.00000  Uiso   1.00
H57    H     0.76310   0.19521   0.50000   0.00000  Uiso   1.00
C58    C     0.72376   0.25876   0.50000   0.00000  Uiso   1.00
H59    H     0.70395   0.26737   0.50000   0.00000  Uiso   1.00
C60    C     0.72964   0.22688   0.50000   0.00000  Uiso   1.00
C61    C     0.93599   0.51604   0.50000   0.00000  Uiso   1.00
S62    S     0.96825   0.53470   0.50000   0.00000  Uiso   1.00
H63    H     0.67830   0.09182   0.50000   0.00000  Uiso   1.00
H64    H     0.62058   0.00687   0.50000   0.00000  Uiso   1.00
C65    C     0.91807   0.42843   0.50000   0.00000  Uiso   1.00
H66    H     0.93757   0.41876   0.50000   0.00000  Uiso   1.00
C67    C     0.89757   0.40690   0.50000   0.00000  Uiso   1.00
H68    H     0.90225   0.38249   0.50000   0.00000  Uiso   1.00
C69    C     0.87143   0.41684   0.50000   0.00000  Uiso   1.00
C70    C     0.86624   0.44844   0.50000   0.00000  Uiso   1.00
H71    H     0.84624   0.45692   0.50000   0.00000  Uiso   1.00
C72    C     0.88691   0.46956   0.50000   0.00000  Uiso   1.00
C73    C     0.91328   0.46085   0.50000   0.00000  Uiso   1.00
N74    N     0.85302   0.36533   0.50000   0.00000  Uiso   1.00
C75    C     0.84934   0.39497   0.50000   0.00000  Uiso   1.00
C76    C     0.83844   0.31178   0.50000   0.00000  Uiso   1.00
H77    H     0.85884   0.30469   0.50000   0.00000  Uiso   1.00
C78    C     0.81875   0.28929   0.50000   0.00000  Uiso   1.00
H79    H     0.82541   0.26571   0.50000   0.00000  Uiso   1.00
C80    C     0.79180   0.29747   0.50000   0.00000  Uiso   1.00
C81    C     0.78583   0.32946   0.50000   0.00000  Uiso   1.00
H82    H     0.76604   0.33812   0.50000   0.00000  Uiso   1.00
C83    C     0.80561   0.35183   0.50000   0.00000  Uiso   1.00
H84    H     0.80009   0.37599   0.50000   0.00000  Uiso   1.00
C85    C     0.83212   0.34310   0.50000   0.00000  Uiso   1.00
C86    C     0.74350   0.28118   0.50000   0.00000  Uiso   1.00
H87    H     0.73690   0.30479   0.50000   0.00000  Uiso   1.00
C88    C     0.77624   0.24124   0.50000   0.00000  Uiso   1.00
H89    H     0.79605   0.23263   0.50000   0.00000  Uiso   1.00
C90    C     0.77036   0.27312   0.50000   0.00000  Uiso   1.00
C91    C     0.56401   0.98396   0.50000   0.00000  Uiso   1.00
S92    S     0.53175   0.96530   0.50000   0.00000  Uiso   1.00
H93    H     0.82170   0.40818   0.50000   0.00000  Uiso   1.00
H94    H     0.87942   0.49313   0.50000   0.00000  Uiso   1.00
C95    C     0.41807   0.92843   0.50000   0.00000  Uiso   1.00
H96    H     0.43757   0.91876   0.50000   0.00000  Uiso   1.00
C97    C     0.39757   0.90690   0.50000   0.00000  Uiso   1.00
H98    H     0.40225   0.88249   0.50000   0.00000  Uiso   1.00
C99    C     0.37143   0.91684   0.50000   0.00000  Uiso   1.00
C100   C     0.36624   0.94844   0.50000   0.00000  Uiso   1.00
H101   H     0.34624   0.95692   0.50000   0.00000  Uiso   1.00
C102   C     0.38691   0.96956   0.50000   0.00000  Uiso   1.00
C103   C     0.41328   0.96085   0.50000   0.00000  Uiso   1.00
N104   N     0.35302   0.86533   0.50000   0.00000  Uiso   1.00
C105   C     0.34934   0.89497   0.50000   0.00000  Uiso   1.00
C106   C     0.33844   0.81178   0.50000   0.00000  Uiso   1.00
H107   H     0.35884   0.80469   0.50000   0.00000  Uiso   1.00
C108   C     0.31875   0.78929   0.50000   0.00000  Uiso   1.00
H109   H     0.32541   0.76571   0.50000   0.00000  Uiso   1.00
C110   C     0.29180   0.79747   0.50000   0.00000  Uiso   1.00
C111   C     0.28583   0.82946   0.50000   0.00000  Uiso   1.00
H112   H     0.26604   0.83812   0.50000   0.00000  Uiso   1.00
C113   C     0.30561   0.85183   0.50000   0.00000  Uiso   1.00
H114   H     0.30009   0.87599   0.50000   0.00000  Uiso   1.00
C115   C     0.33212   0.84310   0.50000   0.00000  Uiso   1.00
C116   C     0.24350   0.78118   0.50000   0.00000  Uiso   1.00
H117   H     0.23690   0.80479   0.50000   0.00000  Uiso   1.00
C118   C     0.27624   0.74124   0.50000   0.00000  Uiso   1.00
H119   H     0.29605   0.73263   0.50000   0.00000  Uiso   1.00
C120   C     0.27036   0.77312   0.50000   0.00000  Uiso   1.00
C121   C     0.06401   0.48396   0.50000   0.00000  Uiso   1.00
S122   S     0.03175   0.46530   0.50000   0.00000  Uiso   1.00
H123   H     0.32170   0.90818   0.50000   0.00000  Uiso   1.00
H124   H     0.37942   0.99313   0.50000   0.00000  Uiso   1.00
C125   C     0.91807   0.57157   0.50000   0.00000  Uiso   1.00
H126   H     0.93757   0.58124   0.50000   0.00000  Uiso   1.00
C127   C     0.89757   0.59310   0.50000   0.00000  Uiso   1.00
H128   H     0.90225   0.61751   0.50000   0.00000  Uiso   1.00
C129   C     0.87143   0.58316   0.50000   0.00000  Uiso   1.00
C130   C     0.86624   0.55156   0.50000   0.00000  Uiso   1.00
H131   H     0.84624   0.54308   0.50000   0.00000  Uiso   1.00
C132   C     0.88691   0.53044   0.50000   0.00000  Uiso   1.00
C133   C     0.91328   0.53915   0.50000   0.00000  Uiso   1.00
N134   N     0.85302   0.63467   0.50000   0.00000  Uiso   1.00
C135   C     0.84934   0.60503   0.50000   0.00000  Uiso   1.00
C136   C     0.83844   0.68822   0.50000   0.00000  Uiso   1.00
H137   H     0.85884   0.69531   0.50000   0.00000  Uiso   1.00
C138   C     0.81875   0.71071   0.50000   0.00000  Uiso   1.00
H139   H     0.82541   0.73429   0.50000   0.00000  Uiso   1.00
C140   C     0.79180   0.70253   0.50000   0.00000  Uiso   1.00
C141   C     0.78583   0.67054   0.50000   0.00000  Uiso   1.00
H142   H     0.76604   0.66188   0.50000   0.00000  Uiso   1.00
C143   C     0.80561   0.64817   0.50000   0.00000  Uiso   1.00
H144   H     0.80009   0.62401   0.50000   0.00000  Uiso   1.00
C145   C     0.83212   0.65690   0.50000   0.00000  Uiso   1.00
C146   C     0.74350   0.71882   0.50000   0.00000  Uiso   1.00
H147   H     0.73690   0.69521   0.50000   0.00000  Uiso   1.00
C148   C     0.77624   0.75876   0.50000   0.00000  Uiso   1.00
H149   H     0.79605   0.76737   0.50000   0.00000  Uiso   1.00
C150   C     0.77036   0.72688   0.50000   0.00000  Uiso   1.00
C151   C     0.56401   0.01604   0.50000   0.00000  Uiso   1.00
S152   S     0.53175   0.03470   0.50000   0.00000  Uiso   1.00
H153   H     0.82170   0.59182   0.50000   0.00000  Uiso   1.00
H154   H     0.87942   0.50687   0.50000   0.00000  Uiso   1.00
C155   C     0.41807   0.07157   0.50000   0.00000  Uiso   1.00
H156   H     0.43757   0.08124   0.50000   0.00000  Uiso   1.00
C157   C     0.39757   0.09310   0.50000   0.00000  Uiso   1.00
H158   H     0.40225   0.11751   0.50000   0.00000  Uiso   1.00
C159   C     0.37143   0.08316   0.50000   0.00000  Uiso   1.00
C160   C     0.36624   0.05156   0.50000   0.00000  Uiso   1.00
H161   H     0.34624   0.04308   0.50000   0.00000  Uiso   1.00
C162   C     0.38691   0.03044   0.50000   0.00000  Uiso   1.00
C163   C     0.41328   0.03915   0.50000   0.00000  Uiso   1.00
N164   N     0.35302   0.13467   0.50000   0.00000  Uiso   1.00
C165   C     0.34934   0.10503   0.50000   0.00000  Uiso   1.00
C166   C     0.33844   0.18822   0.50000   0.00000  Uiso   1.00
H167   H     0.35884   0.19531   0.50000   0.00000  Uiso   1.00
C168   C     0.31875   0.21071   0.50000   0.00000  Uiso   1.00
H169   H     0.32541   0.23429   0.50000   0.00000  Uiso   1.00
C170   C     0.29180   0.20253   0.50000   0.00000  Uiso   1.00
C171   C     0.28583   0.17054   0.50000   0.00000  Uiso   1.00
H172   H     0.26604   0.16188   0.50000   0.00000  Uiso   1.00
C173   C     0.30561   0.14817   0.50000   0.00000  Uiso   1.00
H174   H     0.30009   0.12401   0.50000   0.00000  Uiso   1.00
C175   C     0.33212   0.15690   0.50000   0.00000  Uiso   1.00
C176   C     0.24350   0.21882   0.50000   0.00000  Uiso   1.00
H177   H     0.23690   0.19521   0.50000   0.00000  Uiso   1.00
C178   C     0.27624   0.25876   0.50000   0.00000  Uiso   1.00
H179   H     0.29605   0.26737   0.50000   0.00000  Uiso   1.00
C180   C     0.27036   0.22688   0.50000   0.00000  Uiso   1.00
C181   C     0.06401   0.51604   0.50000   0.00000  Uiso   1.00
S182   S     0.03175   0.53470   0.50000   0.00000  Uiso   1.00
H183   H     0.32170   0.09182   0.50000   0.00000  Uiso   1.00
H184   H     0.37942   0.00687   0.50000   0.00000  Uiso   1.00
C185   C     0.08193   0.42843   0.50000   0.00000  Uiso   1.00
H186   H     0.06243   0.41876   0.50000   0.00000  Uiso   1.00
C187   C     0.10243   0.40690   0.50000   0.00000  Uiso   1.00
H188   H     0.09775   0.38249   0.50000   0.00000  Uiso   1.00
C189   C     0.12857   0.41684   0.50000   0.00000  Uiso   1.00
C190   C     0.13376   0.44844   0.50000   0.00000  Uiso   1.00
H191   H     0.15376   0.45692   0.50000   0.00000  Uiso   1.00
C192   C     0.11309   0.46956   0.50000   0.00000  Uiso   1.00
C193   C     0.08672   0.46085   0.50000   0.00000  Uiso   1.00
N194   N     0.14698   0.36533   0.50000   0.00000  Uiso   1.00
C195   C     0.15066   0.39497   0.50000   0.00000  Uiso   1.00
C196   C     0.16156   0.31178   0.50000   0.00000  Uiso   1.00
H197   H     0.14116   0.30469   0.50000   0.00000  Uiso   1.00
C198   C     0.18125   0.28929   0.50000   0.00000  Uiso   1.00
H199   H     0.17459   0.26571   0.50000   0.00000  Uiso   1.00
C200   C     0.20820   0.29747   0.50000   0.00000  Uiso   1.00
C201   C     0.21417   0.32946   0.50000   0.00000  Uiso   1.00
H202   H     0.23396   0.33812   0.50000   0.00000  Uiso   1.00
C203   C     0.19439   0.35183   0.50000   0.00000  Uiso   1.00
H204   H     0.19991   0.37599   0.50000   0.00000  Uiso   1.00
C205   C     0.16788   0.34310   0.50000   0.00000  Uiso   1.00
C206   C     0.25650   0.28118   0.50000   0.00000  Uiso   1.00
H207   H     0.26310   0.30479   0.50000   0.00000  Uiso   1.00
C208   C     0.22376   0.24124   0.50000   0.00000  Uiso   1.00
H209   H     0.20395   0.23263   0.50000   0.00000  Uiso   1.00
C210   C     0.22964   0.27312   0.50000   0.00000  Uiso   1.00
C211   C     0.43599   0.98396   0.50000   0.00000  Uiso   1.00
S212   S     0.46825   0.96530   0.50000   0.00000  Uiso   1.00
H213   H     0.17830   0.40818   0.50000   0.00000  Uiso   1.00
H214   H     0.12058   0.49313   0.50000   0.00000  Uiso   1.00
C215   C     0.58193   0.92843   0.50000   0.00000  Uiso   1.00
H216   H     0.56243   0.91876   0.50000   0.00000  Uiso   1.00
C217   C     0.60243   0.90690   0.50000   0.00000  Uiso   1.00
H218   H     0.59775   0.88249   0.50000   0.00000  Uiso   1.00
C219   C     0.62857   0.91684   0.50000   0.00000  Uiso   1.00
C220   C     0.63376   0.94844   0.50000   0.00000  Uiso   1.00
H221   H     0.65376   0.95692   0.50000   0.00000  Uiso   1.00
C222   C     0.61309   0.96956   0.50000   0.00000  Uiso   1.00
C223   C     0.58672   0.96085   0.50000   0.00000  Uiso   1.00
N224   N     0.64698   0.86533   0.50000   0.00000  Uiso   1.00
C225   C     0.65066   0.89497   0.50000   0.00000  Uiso   1.00
C226   C     0.66156   0.81178   0.50000   0.00000  Uiso   1.00
H227   H     0.64116   0.80469   0.50000   0.00000  Uiso   1.00
C228   C     0.68125   0.78929   0.50000   0.00000  Uiso   1.00
H229   H     0.67459   0.76571   0.50000   0.00000  Uiso   1.00
C230   C     0.70820   0.79747   0.50000   0.00000  Uiso   1.00
C231   C     0.71417   0.82946   0.50000   0.00000  Uiso   1.00
H232   H     0.73396   0.83812   0.50000   0.00000  Uiso   1.00
C233   C     0.69439   0.85183   0.50000   0.00000  Uiso   1.00
H234   H     0.69991   0.87599   0.50000   0.00000  Uiso   1.00
C235   C     0.66788   0.84310   0.50000   0.00000  Uiso   1.00
C236   C     0.75650   0.78118   0.50000   0.00000  Uiso   1.00
H237   H     0.76310   0.80479   0.50000   0.00000  Uiso   1.00
C238   C     0.72376   0.74124   0.50000   0.00000  Uiso   1.00
H239   H     0.70395   0.73263   0.50000   0.00000  Uiso   1.00
C240   C     0.72964   0.77312   0.50000   0.00000  Uiso   1.00
C241   C     0.93599   0.48396   0.50000   0.00000  Uiso   1.00
S242   S     0.96825   0.46530   0.50000   0.00000  Uiso   1.00
H243   H     0.67830   0.90818   0.50000   0.00000  Uiso   1.00
H244   H     0.62058   0.99313   0.50000   0.00000  Uiso   1.00
loop_
_geom_bond_atom_site_label_1
_geom_bond_atom_site_label_2
_geom_bond_distance
_geom_bond_site_symmetry_2
_ccdc_geom_bond_type
C1     C3      1.345   .     D
C1     S32     1.773   .     S
C1     S212    1.773   1_545 S
C2     C4      1.345   1_655 D
C2     S62     1.773   .     S
C2     S242    1.773   .     S
C3     S92     1.773   1_545 S
C3     S152    1.773   .     S
C4     C2      1.345   1_455 D
C4     S122    1.773   .     S
C4     S182    1.773   .     S
C5     H6      1.077   .     S
C5     C7      1.399   .     D
C5     C13     1.424   .     S
C7     H8      1.083   .     S
C7     C9      1.399   .     S
C9     C10     1.392   .     S
C9     C15     1.470   .     D
C10    H11     1.082   .     S
C10    C12     1.394   .     D
C12    C13     1.395   .     S
C12    H34     1.089   .     S
C13    C181    1.529   .     D
N14    C15     1.296   .     D
N14    C25     1.434   .     S
C16    H17     1.083   .     S
C16    C18     1.397   .     D
C16    C25     1.393   .     S
C18    H19     1.075   .     S
C18    C20     1.417   .     S
C20    C21     1.417   .     D
C20    C30     1.517   .     S
C21    H22     1.075   .     S
C21    C23     1.397   .     S
C23    H24     1.082   .     S
C23    C25     1.402   .     D
C26    H27     1.075   .     S
C26    C30     1.411   .     S
C26    C118    1.397   .     D
C28    H29     1.075   .     S
C28    C30     1.411   .     D
C28    C116    1.397   .     S
C31    S32     1.830   .     S
C31    C163    1.529   .     D
C31    C211    1.388   1_545 S
H34    H214    0.594   .     S
C35    H36     1.077   .     S
C35    C37     1.399   .     D
C35    C43     1.424   .     S
C37    H38     1.083   .     S
C37    C39     1.399   .     S
C39    C40     1.392   .     S
C39    C45     1.470   .     D
C40    H41     1.082   .     S
C40    C42     1.394   .     D
C42    C43     1.395   .     S
C42    H64     1.089   .     S
C43    C151    1.529   .     D
N44    C45     1.296   .     D
N44    C55     1.434   .     S
C46    H47     1.083   .     S
C46    C48     1.397   .     S
C46    C55     1.393   .     D
C48    H49     1.075   .     S
C48    C50     1.417   .     D
C50    C51     1.417   .     S
C50    C60     1.517   .     S
C51    H52     1.075   .     S
C51    C53     1.397   .     D
C53    H54     1.082   .     S
C53    C55     1.402   .     S
C56    H57     1.075   .     S
C56    C60     1.411   .     D
C56    C88     1.397   .     S
C58    H59     1.075   .     S
C58    C60     1.411   .     S
C58    C86     1.397   .     D
C61    S62     1.830   .     S
C61    C133    1.529   .     D
C61    C241    1.388   .     S
H64    H244    0.594   1_545 S
C65    H66     1.077   .     S
C65    C67     1.399   .     D
C65    C73     1.424   .     S
C67    H68     1.083   .     S
C67    C69     1.399   .     S
C69    C70     1.392   .     S
C69    C75     1.470   .     D
C70    H71     1.082   .     S
C70    C72     1.394   .     D
C72    C73     1.395   .     S
C72    H94     1.089   .     S
C73    C241    1.529   .     D
N74    C75     1.296   .     D
N74    C85     1.434   .     S
C76    H77     1.083   .     S
C76    C78     1.397   .     D
C76    C85     1.393   .     S
C78    H79     1.075   .     S
C78    C80     1.417   .     S
C80    C81     1.417   .     D
C80    C90     1.517   .     S
C81    H82     1.075   .     S
C81    C83     1.397   .     S
C83    H84     1.082   .     S
C83    C85     1.402   .     D
C86    H87     1.075   .     S
C86    C90     1.411   .     S
C88    H89     1.075   .     S
C88    C90     1.411   .     D
C91    S92     1.830   .     S
C91    C151    1.388   1_565 S
C91    C223    1.529   .     D
S92    C3      1.773   1_565 S
H94    H154    0.594   .     S
C95    H96     1.077   .     S
C95    C97     1.399   .     D
C95    C103    1.424   .     S
C97    H98     1.083   .     S
C97    C99     1.399   .     S
C99    C100    1.392   .     S
C99    C105    1.470   .     D
C100   H101    1.082   .     S
C100   C102    1.394   .     D
C102   C103    1.395   .     S
C102   H124    1.089   .     S
C103   C211    1.529   .     D
N104   C105    1.296   .     D
N104   C115    1.434   .     S
C106   H107    1.083   .     S
C106   C108    1.397   .     S
C106   C115    1.393   .     D
C108   H109    1.075   .     S
C108   C110    1.417   .     D
C110   C111    1.417   .     S
C110   C120    1.517   .     S
C111   H112    1.075   .     S
C111   C113    1.397   .     D
C113   H114    1.082   .     S
C113   C115    1.402   .     S
C116   H117    1.075   .     S
C116   C120    1.411   .     D
C118   H119    1.075   .     S
C118   C120    1.411   .     S
C121   S122    1.830   .     S
C121   C181    1.388   .     S
C121   C193    1.529   .     D
H124   H184    0.594   1_565 S
C125   H126    1.077   .     S
C125   C127    1.399   .     D
C125   C133    1.424   .     S
C127   H128    1.083   .     S
C127   C129    1.399   .     S
C129   C130    1.392   .     S
C129   C135    1.470   .     D
C130   H131    1.082   .     S
C130   C132    1.394   .     D
C132   C133    1.395   .     S
C132   H154    1.089   .     S
N134   C135    1.296   .     D
N134   C145    1.434   .     S
C136   H137    1.083   .     S
C136   C138    1.397   .     D
C136   C145    1.393   .     S
C138   H139    1.075   .     S
C138   C140    1.417   .     S
C140   C141    1.417   .     D
C140   C150    1.517   .     S
C141   H142    1.075   .     S
C141   C143    1.397   .     S
C143   H144    1.082   .     S
C143   C145    1.402   .     D
C146   H147    1.075   .     S
C146   C150    1.411   .     S
C146   C238    1.397   .     D
C148   H149    1.075   .     S
C148   C150    1.411   .     D
C148   C236    1.397   .     S
C151   C91     1.388   1_545 S
C151   S152    1.830   .     S
C155   H156    1.077   .     S
C155   C157    1.399   .     D
C155   C163    1.424   .     S
C157   H158    1.083   .     S
C157   C159    1.399   .     S
C159   C160    1.392   .     S
C159   C165    1.470   .     D
C160   H161    1.082   .     S
C160   C162    1.394   .     D
C162   C163    1.395   .     S
C162   H184    1.089   .     S
N164   C165    1.296   .     D
N164   C175    1.434   .     S
C166   H167    1.083   .     S
C166   C168    1.397   .     S
C166   C175    1.393   .     D
C168   H169    1.075   .     S
C168   C170    1.417   .     D
C170   C171    1.417   .     S
C170   C180    1.517   .     S
C171   H172    1.075   .     S
C171   C173    1.397   .     D
C173   H174    1.082   .     S
C173   C175    1.402   .     S
C176   H177    1.075   .     S
C176   C180    1.411   .     D
C176   C208    1.397   .     S
C178   H179    1.075   .     S
C178   C180    1.411   .     S
C178   C206    1.397   .     D
C181   S182    1.830   .     S
H184   H124    0.594   1_545 S
C185   H186    1.077   .     S
C185   C187    1.399   .     D
C185   C193    1.424   .     S
C187   H188    1.083   .     S
C187   C189    1.399   .     S
C189   C190    1.392   .     S
C189   C195    1.470   .     D
C190   H191    1.082   .     S
C190   C192    1.394   .     D
C192   C193    1.395   .     S
C192   H214    1.089   .     S
N194   C195    1.296   .     D
N194   C205    1.434   .     S
C196   H197    1.083   .     S
C196   C198    1.397   .     D
C196   C205    1.393   .     S
C198   H199    1.075   .     S
C198   C200    1.417   .     S
C200   C201    1.417   .     D
C200   C210    1.517   .     S
C201   H202    1.075   .     S
C201   C203    1.397   .     S
C203   H204    1.082   .     S
C203   C205    1.402   .     D
C206   H207    1.075   .     S
C206   C210    1.411   .     S
C208   H209    1.075   .     S
C208   C210    1.411   .     D
C211   C31     1.388   1_565 S
C211   S212    1.830   .     S
S212   C1      1.773   1_565 S
C215   H216    1.077   .     S
C215   C217    1.399   .     D
C215   C223    1.424   .     S
C217   H218    1.083   .     S
C217   C219    1.399   .     S
C219   C220    1.392   .     S
C219   C225    1.470   .     D
C220   H221    1.082   .     S
C220   C222    1.394   .     D
C222   C223    1.395   .     S
C222   H244    1.089   .     S
N224   C225    1.296   .     D
N224   C235    1.434   .     S
C226   H227    1.083   .     S
C226   C228    1.397   .     S
C226   C235    1.393   .     D
C228   H229    1.075   .     S
C228   C230    1.417   .     D
C230   C231    1.417   .     S
C230   C240    1.517   .     S
C231   H232    1.075   .     S
C231   C233    1.397   .     D
C233   H234    1.082   .     S
C233   C235    1.402   .     S
C236   H237    1.075   .     S
C236   C240    1.411   .     D
C238   H239    1.075   .     S
C238   C240    1.411   .     S
C241   S242    1.830   .     S
H244   H64     0.594   1_565 S
