data_29
_audit_creation_date              2023-09-08
_audit_creation_method            'Materials Studio'
_symmetry_space_group_name_H-M    'P1'
_symmetry_Int_Tables_number       1
_symmetry_cell_setting            triclinic
loop_
_symmetry_equiv_pos_as_xyz
  x,y,z
_cell_length_a                    15.2400
_cell_length_b                    15.2400
_cell_length_c                    3.4400
_cell_angle_alpha                 90.0000
_cell_angle_beta                  90.0000
_cell_angle_gamma                 120.0000
loop_
_atom_site_label
_atom_site_type_symbol
_atom_site_fract_x
_atom_site_fract_y
_atom_site_fract_z
_atom_site_U_iso_or_equiv
_atom_site_adp_type
_atom_site_occupancy
N1     N     0.04740   0.53532   0.50000   0.00000  Uiso   1.00
N2     N     0.46468   0.51208   0.50000   0.00000  Uiso   1.00
N3     N     0.48792   0.95260   0.50000   0.00000  Uiso   1.00
N4     N     0.95260   0.46468   0.50000   0.00000  Uiso   1.00
N5     N     0.53532   0.48792   0.50000   0.00000  Uiso   1.00
N6     N     0.51208   0.04740   0.50000   0.00000  Uiso   1.00
C7     C     0.12454   0.51549   0.50000   0.00000  Uiso   1.00
C8     C     0.48451   0.60905   0.50000   0.00000  Uiso   1.00
C9     C     0.39095   0.87547   0.50000   0.00000  Uiso   1.00
C10    C     0.87547   0.48451   0.50000   0.00000  Uiso   1.00
C11    C     0.51549   0.39095   0.50000   0.00000  Uiso   1.00
C12    C     0.60905   0.12453   0.50000   0.00000  Uiso   1.00
H13    H     0.10599   0.44097   0.50000   0.00000  Uiso   1.00
H14    H     0.55903   0.66502   0.50000   0.00000  Uiso   1.00
H15    H     0.33498   0.89401   0.50000   0.00000  Uiso   1.00
H16    H     0.89401   0.55903   0.50000   0.00000  Uiso   1.00
H17    H     0.44097   0.33498   0.50000   0.00000  Uiso   1.00
H18    H     0.66502   0.10599   0.50000   0.00000  Uiso   1.00
C19    C     0.22807   0.59140   0.50000   0.00000  Uiso   1.00
C20    C     0.40859   0.63667   0.50000   0.00000  Uiso   1.00
C21    C     0.36333   0.77193   0.50000   0.00000  Uiso   1.00
C22    C     0.77193   0.40859   0.50000   0.00000  Uiso   1.00
C23    C     0.59140   0.36333   0.50000   0.00000  Uiso   1.00
C24    C     0.63667   0.22807   0.50000   0.00000  Uiso   1.00
C25    C     0.25963   0.69598   0.50000   0.00000  Uiso   1.00
C26    C     0.30402   0.56365   0.50000   0.00000  Uiso   1.00
C27    C     0.43636   0.74037   0.50000   0.00000  Uiso   1.00
C28    C     0.74037   0.30402   0.50000   0.00000  Uiso   1.00
C29    C     0.69598   0.43636   0.50000   0.00000  Uiso   1.00
C30    C     0.56365   0.25963   0.50000   0.00000  Uiso   1.00
H31    H     0.28288   0.48843   0.50000   0.00000  Uiso   1.00
H32    H     0.51157   0.79445   0.50000   0.00000  Uiso   1.00
H33    H     0.20556   0.71712   0.50000   0.00000  Uiso   1.00
H34    H     0.71712   0.51157   0.50000   0.00000  Uiso   1.00
H35    H     0.48843   0.20556   0.50000   0.00000  Uiso   1.00
H36    H     0.79445   0.28288   0.50000   0.00000  Uiso   1.00
loop_
_geom_bond_atom_site_label_1
_geom_bond_atom_site_label_2
_geom_bond_distance
_geom_bond_site_symmetry_2
_ccdc_geom_bond_type
N1     N4      1.300   1_455 S
N1     C7      1.352   .     D
N2     N5      1.300   .     S
N2     C8      1.352   .     D
N3     N6      1.300   1_565 S
N3     C9      1.352   .     D
N4     N1      1.300   1_655 S
N4     C10     1.352   .     D
N5     C11     1.352   .     D
N6     N3      1.300   1_545 S
N6     C12     1.352   .     D
C7     H13     1.024   .     S
C7     C19     1.415   .     S
C8     H14     1.024   .     S
C8     C20     1.415   .     S
C9     H15     1.024   .     S
C9     C21     1.415   .     S
C10    H16     1.024   .     S
C10    C22     1.415   .     S
C11    H17     1.024   .     S
C11    C23     1.415   .     S
C12    H18     1.024   .     S
C12    C24     1.415   .     S
C19    C25     1.416   .     S
C19    C26     1.417   .     D
C20    C26     1.416   .     S
C20    C27     1.417   .     D
C21    C25     1.417   .     D
C21    C27     1.416   .     S
C22    C28     1.416   .     D
C22    C29     1.417   .     S
C23    C29     1.416   .     D
C23    C30     1.417   .     S
C24    C28     1.417   .     S
C24    C30     1.416   .     D
C25    H33     1.024   .     S
C26    H31     1.024   .     S
C27    H32     1.024   .     S
C28    H36     1.024   .     S
C29    H34     1.024   .     S
C30    H35     1.024   .     S
