data_291
_audit_creation_date              2023-09-08
_audit_creation_method            'Materials Studio'
_symmetry_space_group_name_H-M    'P1'
_symmetry_Int_Tables_number       1
_symmetry_cell_setting            triclinic
loop_
_symmetry_equiv_pos_as_xyz
  x,y,z
_cell_length_a                    20.8310
_cell_length_b                    20.8310
_cell_length_c                    3.4480
_cell_angle_alpha                 90.0000
_cell_angle_beta                  90.0000
_cell_angle_gamma                 120.0000
loop_
_atom_site_label
_atom_site_type_symbol
_atom_site_fract_x
_atom_site_fract_y
_atom_site_fract_z
_atom_site_U_iso_or_equiv
_atom_site_adp_type
_atom_site_occupancy
C1     C     0.41082   0.70618   0.00000   0.00000  Uiso   1.00
C2     C     0.58918   0.29382   0.00000   0.00000  Uiso   1.00
C3     C     0.29382   0.70464   0.00000   0.00000  Uiso   1.00
C4     C     0.70618   0.29536   0.00000   0.00000  Uiso   1.00
C5     C     0.29537   0.58918   0.00000   0.00000  Uiso   1.00
C6     C     0.70464   0.41082   0.00000   0.00000  Uiso   1.00
H7     H     0.47102   0.73715   0.00000   0.00000  Uiso   1.00
H8     H     0.52898   0.26285   0.00000   0.00000  Uiso   1.00
H9     H     0.26285   0.73387   0.00000   0.00000  Uiso   1.00
H10    H     0.73715   0.26613   0.00000   0.00000  Uiso   1.00
H11    H     0.26613   0.52898   0.00000   0.00000  Uiso   1.00
H12    H     0.73387   0.47102   0.00000   0.00000  Uiso   1.00
C13    C     0.37305   0.62845   0.00000   0.00000  Uiso   1.00
C14    C     0.62695   0.37155   0.00000   0.00000  Uiso   1.00
C15    C     0.37155   0.74460   0.00000   0.00000  Uiso   1.00
C16    C     0.62845   0.25540   0.00000   0.00000  Uiso   1.00
C17    C     0.25540   0.62695   0.00000   0.00000  Uiso   1.00
C18    C     0.74460   0.37305   0.00000   0.00000  Uiso   1.00
C19    C     0.41417   0.58785   0.00000   0.00000  Uiso   1.00
C20    C     0.58583   0.41215   0.00000   0.00000  Uiso   1.00
C21    C     0.41215   0.82632   0.00000   0.00000  Uiso   1.00
C22    C     0.58785   0.17368   0.00000   0.00000  Uiso   1.00
C23    C     0.17368   0.58583   0.00000   0.00000  Uiso   1.00
C24    C     0.82632   0.41417   0.00000   0.00000  Uiso   1.00
N25    N     0.48951   0.62300   0.00000   0.00000  Uiso   1.00
N26    N     0.51049   0.37700   0.00000   0.00000  Uiso   1.00
N27    N     0.37700   0.86651   0.00000   0.00000  Uiso   1.00
N28    N     0.62300   0.13349   0.00000   0.00000  Uiso   1.00
N29    N     0.13349   0.51049   0.00000   0.00000  Uiso   1.00
N30    N     0.86651   0.48951   0.00000   0.00000  Uiso   1.00
C31    C     0.50141   0.56600   0.00000   0.00000  Uiso   1.00
C32    C     0.49859   0.43400   0.00000   0.00000  Uiso   1.00
C33    C     0.43400   0.93542   0.00000   0.00000  Uiso   1.00
C34    C     0.56600   0.06458   0.00000   0.00000  Uiso   1.00
C35    C     0.06458   0.49859   0.00000   0.00000  Uiso   1.00
C36    C     0.93542   0.50141   0.00000   0.00000  Uiso   1.00
C37    C     0.56961   0.56821   0.00000   0.00000  Uiso   1.00
C38    C     0.43039   0.43179   0.00000   0.00000  Uiso   1.00
C39    C     0.43179   0.00140   0.00000   0.00000  Uiso   1.00
C40    C     0.56821   0.99860   0.00000   0.00000  Uiso   1.00
C41    C     0.99860   0.43039   0.00000   0.00000  Uiso   1.00
C42    C     0.00140   0.56961   0.00000   0.00000  Uiso   1.00
H43    H     0.62203   0.61940   0.00000   0.00000  Uiso   1.00
H44    H     0.37797   0.38060   0.00000   0.00000  Uiso   1.00
H45    H     0.38060   0.00263   0.00000   0.00000  Uiso   1.00
H46    H     0.61940   0.99737   0.00000   0.00000  Uiso   1.00
H47    H     0.99737   0.37797   0.00000   0.00000  Uiso   1.00
H48    H     0.00263   0.62203   0.00000   0.00000  Uiso   1.00
C49    C     0.56523   0.49910   0.00000   0.00000  Uiso   1.00
C50    C     0.43477   0.50090   0.00000   0.00000  Uiso   1.00
C51    C     0.50090   0.06613   0.00000   0.00000  Uiso   1.00
C52    C     0.49910   0.93387   0.00000   0.00000  Uiso   1.00
C53    C     0.93387   0.43477   0.00000   0.00000  Uiso   1.00
C54    C     0.06613   0.56523   0.00000   0.00000  Uiso   1.00
O55    O     0.62037   0.48602   0.00000   0.00000  Uiso   1.00
O56    O     0.37963   0.51398   0.00000   0.00000  Uiso   1.00
O57    O     0.51398   0.13435   0.00000   0.00000  Uiso   1.00
O58    O     0.48602   0.86565   0.00000   0.00000  Uiso   1.00
O59    O     0.86565   0.37963   0.00000   0.00000  Uiso   1.00
O60    O     0.13435   0.62037   0.00000   0.00000  Uiso   1.00
loop_
_geom_bond_atom_site_label_1
_geom_bond_atom_site_label_2
_geom_bond_distance
_geom_bond_site_symmetry_2
_ccdc_geom_bond_type
C1     H7      1.086   .     S
C1     C13     1.403   .     S
C1     C15     1.401   .     D
C2     H8      1.086   .     S
C2     C14     1.403   .     S
C2     C16     1.401   .     D
C3     H9      1.086   .     S
C3     C15     1.403   .     S
C3     C17     1.401   .     D
C4     H10     1.086   .     S
C4     C16     1.403   .     S
C4     C18     1.401   .     D
C5     H11     1.086   .     S
C5     C13     1.401   .     D
C5     C17     1.403   .     S
C6     H12     1.086   .     S
C6     C14     1.401   .     D
C6     C18     1.403   .     S
C13    C19     1.474   .     S
C14    C20     1.474   .     S
C15    C21     1.474   .     S
C16    C22     1.474   .     S
C17    C23     1.474   .     S
C18    C24     1.474   .     S
C19    N25     1.360   .     D
C19    O56     1.334   .     S
C20    N26     1.360   .     D
C20    O55     1.334   .     S
C21    N27     1.360   .     D
C21    O58     1.334   .     S
C22    N28     1.360   .     D
C22    O57     1.334   .     S
C23    N29     1.360   .     D
C23    O60     1.334   .     S
C24    N30     1.360   .     D
C24    O59     1.334   .     S
N25    C31     1.329   .     S
N26    C32     1.329   .     S
N27    C33     1.329   .     S
N28    C34     1.329   .     S
N29    C35     1.329   .     S
N30    C36     1.329   .     S
C31    C37     1.398   .     D
C31    C50     1.372   .     S
C32    C38     1.398   .     S
C32    C49     1.372   .     D
C33    C39     1.398   1_565 D
C33    C52     1.372   .     S
C34    C40     1.398   1_545 S
C34    C51     1.372   .     D
C35    C41     1.398   1_455 S
C35    C54     1.372   .     D
C36    C42     1.398   1_655 D
C36    C53     1.372   .     S
C37    H43     1.079   .     S
C37    C49     1.396   .     S
C38    H44     1.079   .     S
C38    C50     1.396   .     D
C39    C33     1.398   1_545 D
C39    H45     1.079   .     S
C39    C51     1.396   .     S
C40    C34     1.398   1_565 S
C40    H46     1.079   .     S
C40    C52     1.396   .     D
C41    C35     1.398   1_655 S
C41    H47     1.079   .     S
C41    C53     1.396   .     D
C42    C36     1.398   1_455 D
C42    H48     1.079   .     S
C42    C54     1.396   .     S
C49    O55     1.306   .     S
C50    O56     1.306   .     S
C51    O57     1.306   .     S
C52    O58     1.306   .     S
C53    O59     1.306   .     S
C54    O60     1.306   .     S
