data_292
_audit_creation_date              2023-09-08
_audit_creation_method            'Materials Studio'
_symmetry_space_group_name_H-M    'P1'
_symmetry_Int_Tables_number       1
_symmetry_cell_setting            triclinic
loop_
_symmetry_equiv_pos_as_xyz
  x,y,z
_cell_length_a                    35.2030
_cell_length_b                    35.2030
_cell_length_c                    3.3400
_cell_angle_alpha                 90.0000
_cell_angle_beta                  90.0000
_cell_angle_gamma                 120.0000
loop_
_atom_site_label
_atom_site_type_symbol
_atom_site_fract_x
_atom_site_fract_y
_atom_site_fract_z
_atom_site_U_iso_or_equiv
_atom_site_adp_type
_atom_site_occupancy
N1     N     0.64422   0.35652   0.50000   0.00000  Uiso   1.00
C2     C     0.62387   0.31273   0.50000   0.00000  Uiso   1.00
C3     C     0.57587   0.28831   0.50000   0.00000  Uiso   1.00
C4     C     0.55218   0.31040   0.50000   0.00000  Uiso   1.00
C5     C     0.50684   0.28714   0.50000   0.00000  Uiso   1.00
C6     C     0.48468   0.24129   0.50000   0.00000  Uiso   1.00
C7     C     0.50838   0.21911   0.50000   0.00000  Uiso   1.00
C8     C     0.55357   0.24248   0.50000   0.00000  Uiso   1.00
C9     C     0.43762   0.21563   0.50000   0.00000  Uiso   1.00
O10    O     0.41433   0.23741   0.50000   0.00000  Uiso   1.00
C11    C     0.37149   0.20492   0.50000   0.00000  Uiso   1.00
C12    C     0.37106   0.16455   0.50000   0.00000  Uiso   1.00
N13    N     0.41356   0.17307   0.50000   0.00000  Uiso   1.00
C14    C     0.33491   0.20954   0.50000   0.00000  Uiso   1.00
C15    C     0.29562   0.16961   0.50000   0.00000  Uiso   1.00
C16    C     0.29519   0.12924   0.50000   0.00000  Uiso   1.00
C17    C     0.33176   0.12463   0.50000   0.00000  Uiso   1.00
N18    N     0.25312   0.16109   0.50000   0.00000  Uiso   1.00
C19    C     0.22906   0.11854   0.50000   0.00000  Uiso   1.00
O20    O     0.25234   0.09675   0.50000   0.00000  Uiso   1.00
C21    C     0.18199   0.09288   0.50000   0.00000  Uiso   1.00
C22    C     0.15830   0.11506   0.50000   0.00000  Uiso   1.00
C23    C     0.11310   0.09168   0.50000   0.00000  Uiso   1.00
C24    C     0.09081   0.04585   0.50000   0.00000  Uiso   1.00
C25    C     0.11449   0.02376   0.50000   0.00000  Uiso   1.00
C26    C     0.15984   0.04702   0.50000   0.00000  Uiso   1.00
C27    C     0.04281   0.02143   0.50000   0.00000  Uiso   1.00
N28    N     0.02231   0.04471   0.50000   0.00000  Uiso   1.00
H29    H     0.57064   0.34639   0.50000   0.00000  Uiso   1.00
H30    H     0.48791   0.30419   0.50000   0.00000  Uiso   1.00
H31    H     0.48992   0.18312   0.50000   0.00000  Uiso   1.00
H32    H     0.57313   0.22608   0.50000   0.00000  Uiso   1.00
H33    H     0.33602   0.24116   0.50000   0.00000  Uiso   1.00
H34    H     0.33066   0.09300   0.50000   0.00000  Uiso   1.00
H35    H     0.17676   0.15104   0.50000   0.00000  Uiso   1.00
H36    H     0.09355   0.10808   0.50000   0.00000  Uiso   1.00
H37    H     0.09603   0.98777   0.50000   0.00000  Uiso   1.00
H38    H     0.17877   0.02997   0.50000   0.00000  Uiso   1.00
N39    N     0.64348   0.28770   0.50000   0.00000  Uiso   1.00
C40    C     0.68727   0.31114   0.50000   0.00000  Uiso   1.00
C41    C     0.71169   0.28756   0.50000   0.00000  Uiso   1.00
C42    C     0.68960   0.24178   0.50000   0.00000  Uiso   1.00
C43    C     0.71286   0.21970   0.50000   0.00000  Uiso   1.00
C44    C     0.75871   0.24339   0.50000   0.00000  Uiso   1.00
C45    C     0.78089   0.28927   0.50000   0.00000  Uiso   1.00
C46    C     0.75752   0.31109   0.50000   0.00000  Uiso   1.00
C47    C     0.78437   0.22199   0.50000   0.00000  Uiso   1.00
O48    O     0.76259   0.17692   0.50000   0.00000  Uiso   1.00
C49    C     0.79508   0.16657   0.50000   0.00000  Uiso   1.00
C50    C     0.83545   0.20651   0.50000   0.00000  Uiso   1.00
N51    N     0.82693   0.24049   0.50000   0.00000  Uiso   1.00
C52    C     0.79046   0.12537   0.50000   0.00000  Uiso   1.00
C53    C     0.83039   0.12601   0.50000   0.00000  Uiso   1.00
C54    C     0.87076   0.16595   0.50000   0.00000  Uiso   1.00
C55    C     0.87537   0.20713   0.50000   0.00000  Uiso   1.00
N56    N     0.83891   0.09203   0.50000   0.00000  Uiso   1.00
C57    C     0.88146   0.11052   0.50000   0.00000  Uiso   1.00
O58    O     0.90325   0.15559   0.50000   0.00000  Uiso   1.00
C59    C     0.90712   0.08911   0.50000   0.00000  Uiso   1.00
C60    C     0.88494   0.04324   0.50000   0.00000  Uiso   1.00
C61    C     0.90832   0.02142   0.50000   0.00000  Uiso   1.00
C62    C     0.95415   0.04496   0.50000   0.00000  Uiso   1.00
C63    C     0.97624   0.09073   0.50000   0.00000  Uiso   1.00
C64    C     0.95298   0.11282   0.50000   0.00000  Uiso   1.00
C65    C     0.97857   0.02138   0.50000   0.00000  Uiso   1.00
N66    N     0.95529   0.97760   0.50000   0.00000  Uiso   1.00
H67    H     0.65361   0.22425   0.50000   0.00000  Uiso   1.00
H68    H     0.69581   0.18372   0.50000   0.00000  Uiso   1.00
H69    H     0.81688   0.30680   0.50000   0.00000  Uiso   1.00
H70    H     0.77392   0.34705   0.50000   0.00000  Uiso   1.00
H71    H     0.75884   0.09486   0.50000   0.00000  Uiso   1.00
H72    H     0.90700   0.23766   0.50000   0.00000  Uiso   1.00
H73    H     0.84896   0.02572   0.50000   0.00000  Uiso   1.00
H74    H     0.89192   0.98547   0.50000   0.00000  Uiso   1.00
H75    H     0.01223   0.10826   0.50000   0.00000  Uiso   1.00
H76    H     0.97003   0.14880   0.50000   0.00000  Uiso   1.00
N77    N     0.71230   0.35578   0.50000   0.00000  Uiso   1.00
C78    C     0.68886   0.37613   0.50000   0.00000  Uiso   1.00
C79    C     0.71244   0.42413   0.50000   0.00000  Uiso   1.00
C80    C     0.75822   0.44782   0.50000   0.00000  Uiso   1.00
C81    C     0.78030   0.49316   0.50000   0.00000  Uiso   1.00
C82    C     0.75661   0.51532   0.50000   0.00000  Uiso   1.00
C83    C     0.71073   0.49162   0.50000   0.00000  Uiso   1.00
C84    C     0.68891   0.44643   0.50000   0.00000  Uiso   1.00
C85    C     0.77801   0.56238   0.50000   0.00000  Uiso   1.00
O86    O     0.82308   0.58567   0.50000   0.00000  Uiso   1.00
C87    C     0.83343   0.62851   0.50000   0.00000  Uiso   1.00
C88    C     0.79349   0.62894   0.50000   0.00000  Uiso   1.00
N89    N     0.75951   0.58644   0.50000   0.00000  Uiso   1.00
C90    C     0.87463   0.66509   0.50000   0.00000  Uiso   1.00
C91    C     0.87399   0.70438   0.50000   0.00000  Uiso   1.00
C92    C     0.83405   0.70481   0.50000   0.00000  Uiso   1.00
C93    C     0.79287   0.66824   0.50000   0.00000  Uiso   1.00
N94    N     0.90797   0.74688   0.50000   0.00000  Uiso   1.00
C95    C     0.88948   0.77094   0.50000   0.00000  Uiso   1.00
O96    O     0.84441   0.74766   0.50000   0.00000  Uiso   1.00
C97    C     0.91089   0.81801   0.50000   0.00000  Uiso   1.00
C98    C     0.95676   0.84170   0.50000   0.00000  Uiso   1.00
C99    C     0.97858   0.88690   0.50000   0.00000  Uiso   1.00
C100   C     0.95504   0.90919   0.50000   0.00000  Uiso   1.00
C101   C     0.90927   0.88551   0.50000   0.00000  Uiso   1.00
C102   C     0.88718   0.84016   0.50000   0.00000  Uiso   1.00
C103   C     0.97862   0.95719   0.50000   0.00000  Uiso   1.00
N104   N     0.02240   0.97769   0.50000   0.00000  Uiso   1.00
H105   H     0.77575   0.42936   0.50000   0.00000  Uiso   1.00
H106   H     0.81628   0.51209   0.50000   0.00000  Uiso   1.00
H107   H     0.69320   0.51008   0.50000   0.00000  Uiso   1.00
H108   H     0.65295   0.42687   0.50000   0.00000  Uiso   1.00
H109   H     0.90514   0.66398   0.50000   0.00000  Uiso   1.00
H110   H     0.76234   0.66934   0.50000   0.00000  Uiso   1.00
H111   H     0.97428   0.82324   0.50000   0.00000  Uiso   1.00
H112   H     0.01453   0.90645   0.50000   0.00000  Uiso   1.00
H113   H     0.89174   0.90397   0.50000   0.00000  Uiso   1.00
H114   H     0.85120   0.82123   0.50000   0.00000  Uiso   1.00
loop_
_geom_bond_atom_site_label_1
_geom_bond_atom_site_label_2
_geom_bond_distance
_geom_bond_site_symmetry_2
_ccdc_geom_bond_type
N1     C2      1.336   .     D
N1     C78     1.364   .     S
C2     C3      1.463   .     S
C2     N39     1.364   .     S
C3     C4      1.396   .     D
C3     C8      1.397   .     S
C4     C5      1.382   .     S
C4     H29     1.097   .     S
C5     C6      1.398   .     D
C5     H30     1.097   .     S
C6     C7      1.399   .     S
C6     C9      1.437   .     S
C7     C8      1.378   .     D
C7     H31     1.097   .     S
C8     H32     1.098   .     S
C9     O10     1.374   .     S
C9     N13     1.301   .     D
O10    C11     1.363   .     S
C11    C12     1.414   .     D
C11    C14     1.376   .     S
C12    N13     1.371   .     S
C12    C17     1.395   .     S
C14    C15     1.395   .     D
C14    H33     1.094   .     S
C15    C16     1.414   .     S
C15    N18     1.371   .     S
C16    C17     1.376   .     D
C16    O20     1.363   .     S
C17    H34     1.095   .     S
N18    C19     1.301   .     D
C19    O20     1.374   .     S
C19    C21     1.437   .     S
C21    C22     1.399   .     D
C21    C26     1.398   .     S
C22    C23     1.378   .     S
C22    H35     1.097   .     S
C23    C24     1.397   .     D
C23    H36     1.097   .     S
C24    C25     1.396   .     S
C24    C27     1.463   .     S
C25    C26     1.383   .     D
C25    H37     1.097   1_545 S
C26    H38     1.097   .     S
C27    N28     1.336   .     S
C27    N104    1.334   1_545 D
N28    C65     1.334   1_455 D
H37    C25     1.097   1_565 S
N39    C40     1.336   .     D
C40    C41     1.463   .     S
C40    N77     1.364   .     S
C41    C42     1.396   .     D
C41    C46     1.397   .     S
C42    C43     1.382   .     S
C42    H67     1.097   .     S
C43    C44     1.398   .     D
C43    H68     1.097   .     S
C44    C45     1.399   .     S
C44    C47     1.437   .     S
C45    C46     1.378   .     D
C45    H69     1.097   .     S
C46    H70     1.098   .     S
C47    O48     1.374   .     S
C47    N51     1.301   .     D
O48    C49     1.363   .     S
C49    C50     1.414   .     D
C49    C52     1.376   .     S
C50    N51     1.371   .     S
C50    C55     1.395   .     S
C52    C53     1.395   .     D
C52    H71     1.094   .     S
C53    C54     1.414   .     S
C53    N56     1.371   .     S
C54    C55     1.376   .     D
C54    O58     1.363   .     S
C55    H72     1.095   .     S
N56    C57     1.301   .     D
C57    O58     1.374   .     S
C57    C59     1.437   .     S
C59    C60     1.399   .     D
C59    C64     1.398   .     S
C60    C61     1.378   .     S
C60    H73     1.097   .     S
C61    C62     1.397   .     D
C61    H74     1.097   1_545 S
C62    C63     1.396   .     S
C62    C65     1.463   .     S
C63    C64     1.383   .     D
C63    H75     1.097   1_655 S
C64    H76     1.097   .     S
C65    N28     1.334   1_655 D
C65    N66     1.336   1_545 S
N66    C65     1.336   1_565 S
N66    C103    1.334   .     D
H74    C61     1.097   1_565 S
H75    C63     1.097   1_455 S
N77    C78     1.336   .     D
C78    C79     1.463   .     S
C79    C80     1.396   .     D
C79    C84     1.397   .     S
C80    C81     1.382   .     S
C80    H105    1.097   .     S
C81    C82     1.398   .     D
C81    H106    1.097   .     S
C82    C83     1.399   .     S
C82    C85     1.437   .     S
C83    C84     1.378   .     D
C83    H107    1.097   .     S
C84    H108    1.098   .     S
C85    O86     1.374   .     S
C85    N89     1.301   .     D
O86    C87     1.363   .     S
C87    C88     1.414   .     D
C87    C90     1.376   .     S
C88    N89     1.371   .     S
C88    C93     1.395   .     S
C90    C91     1.395   .     D
C90    H109    1.094   .     S
C91    C92     1.414   .     S
C91    N94     1.371   .     S
C92    C93     1.376   .     D
C92    O96     1.363   .     S
C93    H110    1.095   .     S
N94    C95     1.301   .     D
C95    O96     1.374   .     S
C95    C97     1.437   .     S
C97    C98     1.399   .     D
C97    C102    1.398   .     S
C98    C99     1.378   .     S
C98    H111    1.097   .     S
C99    C100    1.397   .     D
C99    H112    1.097   1_655 S
C100   C101    1.396   .     S
C100   C103    1.463   .     S
C101   C102    1.383   .     D
C101   H113    1.097   .     S
C102   H114    1.097   .     S
C103   N104    1.336   1_655 S
N104   C27     1.334   1_565 D
N104   C103    1.336   1_455 S
H112   C99     1.097   1_455 S
