data_293
_audit_creation_date              2023-09-08
_audit_creation_method            'Materials Studio'
_symmetry_space_group_name_H-M    'P1'
_symmetry_Int_Tables_number       1
_symmetry_cell_setting            triclinic
loop_
_symmetry_equiv_pos_as_xyz
  x,y,z
_cell_length_a                    32.9518
_cell_length_b                    31.0216
_cell_length_c                    3.6052
_cell_angle_alpha                 90.0000
_cell_angle_beta                  90.0000
_cell_angle_gamma                 90.0000
loop_
_atom_site_label
_atom_site_type_symbol
_atom_site_fract_x
_atom_site_fract_y
_atom_site_fract_z
_atom_site_U_iso_or_equiv
_atom_site_adp_type
_atom_site_occupancy
C1     C     0.46403   0.95591   0.23389   0.00000  Uiso   1.00
C2     C     0.42920   0.02148   0.23847   0.00000  Uiso   1.00
C3     C     0.46393   0.08806   0.23160   0.00000  Uiso   1.00
C4     C     0.42787   0.11431   0.19777   0.00000  Uiso   1.00
C5     C     0.42505   0.15220   0.36625   0.00000  Uiso   1.00
C6     C     0.39247   0.17791   0.32767   0.00000  Uiso   1.00
C7     C     0.36139   0.16590   0.12562   0.00000  Uiso   1.00
C8     C     0.36413   0.12847  -0.04525   0.00000  Uiso   1.00
C9     C     0.39755   0.10379  -0.01876   0.00000  Uiso   1.00
C10    C     0.32645   0.19238   0.08690   0.00000  Uiso   1.00
C11    C     0.78665   0.25673  -0.12171   0.00000  Uiso   1.00
C12    C     0.76852   0.21894  -0.19557   0.00000  Uiso   1.00
N13    N     0.32382   0.22901   0.21912   0.00000  Uiso   1.00
C14    C     0.26903   0.78648  -0.06525   0.00000  Uiso   1.00
O15    O     0.79369   0.67971   0.09755   0.00000  Uiso   1.00
H16    H     0.40119   0.03613   0.27519   0.00000  Uiso   1.00
H17    H     0.44785   0.16169   0.53337   0.00000  Uiso   1.00
H18    H     0.39125   0.20669   0.46244   0.00000  Uiso   1.00
H19    H     0.34109   0.11898  -0.21004   0.00000  Uiso   1.00
H20    H     0.39987   0.07690  -0.17427   0.00000  Uiso   1.00
H21    H     0.78244   0.19563  -0.34490   0.00000  Uiso   1.00
C22    C     0.53597   0.04409   0.23389   0.00000  Uiso   1.00
C23    C     0.57080   0.97852   0.23847   0.00000  Uiso   1.00
C24    C     0.53607   0.91194   0.23160   0.00000  Uiso   1.00
C25    C     0.57213   0.88569   0.19777   0.00000  Uiso   1.00
C26    C     0.57495   0.84780   0.36625   0.00000  Uiso   1.00
C27    C     0.60753   0.82209   0.32767   0.00000  Uiso   1.00
C28    C     0.63861   0.83410   0.12562   0.00000  Uiso   1.00
C29    C     0.63587   0.87153  -0.04525   0.00000  Uiso   1.00
C30    C     0.60245   0.89621  -0.01876   0.00000  Uiso   1.00
C31    C     0.67355   0.80762   0.08690   0.00000  Uiso   1.00
C32    C     0.21335   0.74327  -0.12171   0.00000  Uiso   1.00
C33    C     0.23148   0.78106  -0.19557   0.00000  Uiso   1.00
N34    N     0.67618   0.77099   0.21912   0.00000  Uiso   1.00
C35    C     0.73097   0.21352  -0.06525   0.00000  Uiso   1.00
O36    O     0.20631   0.32029   0.09755   0.00000  Uiso   1.00
H37    H     0.59881   0.96387   0.27519   0.00000  Uiso   1.00
H38    H     0.55215   0.83831   0.53337   0.00000  Uiso   1.00
H39    H     0.60875   0.79331   0.46244   0.00000  Uiso   1.00
H40    H     0.65891   0.88102  -0.21004   0.00000  Uiso   1.00
H41    H     0.60013   0.92310  -0.17427   0.00000  Uiso   1.00
H42    H     0.21756   0.80437  -0.34490   0.00000  Uiso   1.00
C43    C     0.03597   0.45591  -0.23389   0.00000  Uiso   1.00
C44    C     0.07080   0.52148  -0.23847   0.00000  Uiso   1.00
C45    C     0.03607   0.58806  -0.23160   0.00000  Uiso   1.00
C46    C     0.07213   0.61431  -0.19777   0.00000  Uiso   1.00
C47    C     0.07495   0.65220  -0.36625   0.00000  Uiso   1.00
C48    C     0.10753   0.67791  -0.32767   0.00000  Uiso   1.00
C49    C     0.13861   0.66590  -0.12562   0.00000  Uiso   1.00
C50    C     0.13587   0.62847   0.04525   0.00000  Uiso   1.00
C51    C     0.10245   0.60379   0.01876   0.00000  Uiso   1.00
C52    C     0.17355   0.69238  -0.08690   0.00000  Uiso   1.00
C53    C     0.71335   0.75673   0.12171   0.00000  Uiso   1.00
C54    C     0.73148   0.71894   0.19557   0.00000  Uiso   1.00
N55    N     0.17618   0.72901  -0.21912   0.00000  Uiso   1.00
C56    C     0.23097   0.28648   0.06525   0.00000  Uiso   1.00
O57    O     0.70631   0.17971  -0.09755   0.00000  Uiso   1.00
H58    H     0.09881   0.53613  -0.27519   0.00000  Uiso   1.00
H59    H     0.05215   0.66169  -0.53337   0.00000  Uiso   1.00
H60    H     0.10875   0.70669  -0.46244   0.00000  Uiso   1.00
H61    H     0.15891   0.61898   0.21004   0.00000  Uiso   1.00
H62    H     0.10013   0.57690   0.17427   0.00000  Uiso   1.00
H63    H     0.71756   0.69563   0.34490   0.00000  Uiso   1.00
C64    C     0.96403   0.54409  -0.23389   0.00000  Uiso   1.00
C65    C     0.92920   0.47852  -0.23847   0.00000  Uiso   1.00
C66    C     0.96393   0.41194  -0.23160   0.00000  Uiso   1.00
C67    C     0.92787   0.38569  -0.19777   0.00000  Uiso   1.00
C68    C     0.92505   0.34780  -0.36625   0.00000  Uiso   1.00
C69    C     0.89247   0.32209  -0.32767   0.00000  Uiso   1.00
C70    C     0.86139   0.33410  -0.12562   0.00000  Uiso   1.00
C71    C     0.86413   0.37153   0.04525   0.00000  Uiso   1.00
C72    C     0.89755   0.39621   0.01876   0.00000  Uiso   1.00
C73    C     0.82645   0.30762  -0.08690   0.00000  Uiso   1.00
C74    C     0.28665   0.24327   0.12171   0.00000  Uiso   1.00
C75    C     0.26852   0.28106   0.19557   0.00000  Uiso   1.00
N76    N     0.82382   0.27099  -0.21912   0.00000  Uiso   1.00
C77    C     0.76903   0.71352   0.06525   0.00000  Uiso   1.00
O78    O     0.29369   0.82029  -0.09755   0.00000  Uiso   1.00
H79    H     0.90119   0.46387  -0.27519   0.00000  Uiso   1.00
H80    H     0.94785   0.33831  -0.53337   0.00000  Uiso   1.00
H81    H     0.89125   0.29331  -0.46244   0.00000  Uiso   1.00
H82    H     0.84109   0.38102   0.21004   0.00000  Uiso   1.00
H83    H     0.89987   0.42310   0.17427   0.00000  Uiso   1.00
H84    H     0.28244   0.30437   0.34490   0.00000  Uiso   1.00
C85    C     0.03597   0.54409  -0.23389   0.00000  Uiso   1.00
C86    C     0.07080   0.47852  -0.23847   0.00000  Uiso   1.00
C87    C     0.03607   0.41194  -0.23160   0.00000  Uiso   1.00
C88    C     0.07213   0.38569  -0.19777   0.00000  Uiso   1.00
C89    C     0.07495   0.34780  -0.36625   0.00000  Uiso   1.00
C90    C     0.10753   0.32209  -0.32767   0.00000  Uiso   1.00
C91    C     0.13861   0.33410  -0.12562   0.00000  Uiso   1.00
C92    C     0.13587   0.37153   0.04525   0.00000  Uiso   1.00
C93    C     0.10245   0.39621   0.01876   0.00000  Uiso   1.00
C94    C     0.17355   0.30762  -0.08690   0.00000  Uiso   1.00
C95    C     0.71335   0.24327   0.12171   0.00000  Uiso   1.00
C96    C     0.73148   0.28106   0.19557   0.00000  Uiso   1.00
N97    N     0.17618   0.27099  -0.21912   0.00000  Uiso   1.00
C98    C     0.23097   0.71352   0.06525   0.00000  Uiso   1.00
O99    O     0.70631   0.82029  -0.09755   0.00000  Uiso   1.00
H100   H     0.09881   0.46387  -0.27519   0.00000  Uiso   1.00
H101   H     0.05215   0.33831  -0.53337   0.00000  Uiso   1.00
H102   H     0.10875   0.29331  -0.46244   0.00000  Uiso   1.00
H103   H     0.15891   0.38102   0.21004   0.00000  Uiso   1.00
H104   H     0.10013   0.42310   0.17427   0.00000  Uiso   1.00
H105   H     0.71756   0.30437   0.34490   0.00000  Uiso   1.00
C106   C     0.96403   0.45591  -0.23389   0.00000  Uiso   1.00
C107   C     0.92920   0.52148  -0.23847   0.00000  Uiso   1.00
C108   C     0.96393   0.58806  -0.23160   0.00000  Uiso   1.00
C109   C     0.92787   0.61431  -0.19777   0.00000  Uiso   1.00
C110   C     0.92505   0.65220  -0.36625   0.00000  Uiso   1.00
C111   C     0.89247   0.67791  -0.32767   0.00000  Uiso   1.00
C112   C     0.86139   0.66590  -0.12562   0.00000  Uiso   1.00
C113   C     0.86413   0.62847   0.04525   0.00000  Uiso   1.00
C114   C     0.89755   0.60379   0.01876   0.00000  Uiso   1.00
C115   C     0.82645   0.69238  -0.08690   0.00000  Uiso   1.00
C116   C     0.28665   0.75673   0.12171   0.00000  Uiso   1.00
C117   C     0.26852   0.71894   0.19557   0.00000  Uiso   1.00
N118   N     0.82382   0.72901  -0.21912   0.00000  Uiso   1.00
C119   C     0.76903   0.28648   0.06525   0.00000  Uiso   1.00
O120   O     0.29369   0.17971  -0.09755   0.00000  Uiso   1.00
H121   H     0.90119   0.53613  -0.27519   0.00000  Uiso   1.00
H122   H     0.94785   0.66169  -0.53337   0.00000  Uiso   1.00
H123   H     0.89125   0.70669  -0.46244   0.00000  Uiso   1.00
H124   H     0.84109   0.61898   0.21004   0.00000  Uiso   1.00
H125   H     0.89987   0.57690   0.17427   0.00000  Uiso   1.00
H126   H     0.28244   0.69563   0.34490   0.00000  Uiso   1.00
C127   C     0.46403   0.04409   0.23389   0.00000  Uiso   1.00
C128   C     0.42920   0.97852   0.23847   0.00000  Uiso   1.00
C129   C     0.46393   0.91194   0.23160   0.00000  Uiso   1.00
C130   C     0.42787   0.88569   0.19777   0.00000  Uiso   1.00
C131   C     0.42505   0.84780   0.36625   0.00000  Uiso   1.00
C132   C     0.39247   0.82209   0.32767   0.00000  Uiso   1.00
C133   C     0.36139   0.83410   0.12562   0.00000  Uiso   1.00
C134   C     0.36413   0.87153  -0.04525   0.00000  Uiso   1.00
C135   C     0.39755   0.89621  -0.01876   0.00000  Uiso   1.00
C136   C     0.32645   0.80762   0.08690   0.00000  Uiso   1.00
C137   C     0.78665   0.74327  -0.12171   0.00000  Uiso   1.00
C138   C     0.76852   0.78106  -0.19557   0.00000  Uiso   1.00
N139   N     0.32382   0.77099   0.21912   0.00000  Uiso   1.00
C140   C     0.26903   0.21352  -0.06525   0.00000  Uiso   1.00
O141   O     0.79369   0.32029   0.09755   0.00000  Uiso   1.00
H142   H     0.40119   0.96387   0.27519   0.00000  Uiso   1.00
H143   H     0.44785   0.83831   0.53337   0.00000  Uiso   1.00
H144   H     0.39125   0.79331   0.46244   0.00000  Uiso   1.00
H145   H     0.34109   0.88102  -0.21004   0.00000  Uiso   1.00
H146   H     0.39987   0.92310  -0.17427   0.00000  Uiso   1.00
H147   H     0.78244   0.80437  -0.34490   0.00000  Uiso   1.00
C148   C     0.53597   0.95591   0.23389   0.00000  Uiso   1.00
C149   C     0.57080   0.02148   0.23847   0.00000  Uiso   1.00
C150   C     0.53607   0.08806   0.23160   0.00000  Uiso   1.00
C151   C     0.57213   0.11431   0.19777   0.00000  Uiso   1.00
C152   C     0.57495   0.15220   0.36625   0.00000  Uiso   1.00
C153   C     0.60753   0.17791   0.32767   0.00000  Uiso   1.00
C154   C     0.63861   0.16590   0.12562   0.00000  Uiso   1.00
C155   C     0.63587   0.12847  -0.04525   0.00000  Uiso   1.00
C156   C     0.60245   0.10379  -0.01876   0.00000  Uiso   1.00
C157   C     0.67355   0.19238   0.08690   0.00000  Uiso   1.00
C158   C     0.21335   0.25673  -0.12171   0.00000  Uiso   1.00
C159   C     0.23148   0.21894  -0.19557   0.00000  Uiso   1.00
N160   N     0.67618   0.22901   0.21912   0.00000  Uiso   1.00
C161   C     0.73097   0.78648  -0.06525   0.00000  Uiso   1.00
O162   O     0.20631   0.67971   0.09755   0.00000  Uiso   1.00
H163   H     0.59881   0.03613   0.27519   0.00000  Uiso   1.00
H164   H     0.55215   0.16169   0.53337   0.00000  Uiso   1.00
H165   H     0.60875   0.20669   0.46244   0.00000  Uiso   1.00
H166   H     0.65891   0.11898  -0.21004   0.00000  Uiso   1.00
H167   H     0.60013   0.07690  -0.17427   0.00000  Uiso   1.00
H168   H     0.21756   0.19563  -0.34490   0.00000  Uiso   1.00
C169   C     0.50000   0.10850   0.23065   0.00000  Uiso   1.00
C170   C     0.50000   0.97790   0.23352   0.00000  Uiso   1.00
H171   H     0.50000   0.14190   0.20420   0.00000  Uiso   1.00
C172   C     0.50000   0.89150   0.23065   0.00000  Uiso   1.00
C173   C     0.50000   0.02210   0.23352   0.00000  Uiso   1.00
H174   H     0.50000   0.85810   0.20420   0.00000  Uiso   1.00
C175   C     0.00000   0.60850  -0.23065   0.00000  Uiso   1.00
C176   C     0.00000   0.47790  -0.23352   0.00000  Uiso   1.00
H177   H     0.00000   0.64190  -0.20420   0.00000  Uiso   1.00
C178   C     0.00000   0.39150  -0.23065   0.00000  Uiso   1.00
C179   C     0.00000   0.52210  -0.23352   0.00000  Uiso   1.00
H180   H     0.00000   0.35810  -0.20420   0.00000  Uiso   1.00
loop_
_geom_bond_atom_site_label_1
_geom_bond_atom_site_label_2
_geom_bond_distance
_geom_bond_site_symmetry_2
_ccdc_geom_bond_type
C1     C128    1.345   .     S
C1     C129    1.364   .     D
C1     C170    1.368   .     S
C2     H16     1.037   .     S
C2     C127    1.345   .     S
C2     C128    1.333   1_545 D
C3     C4      1.446   .     S
C3     C127    1.364   .     D
C3     C169    1.347   .     S
C4     C5      1.326   .     S
C4     C9      1.309   .     D
C5     C6      1.345   .     D
C5     H17     1.007   .     S
C6     C7      1.311   .     S
C6     H18     1.017   .     S
C7     C8      1.318   .     D
C7     C10     1.421   .     S
C8     C9      1.345   .     S
C8     H19     1.008   .     S
C9     H20     1.008   .     S
C10    N13     1.235   .     D
C10    O120    1.327   .     S
C11    C12     1.342   .     S
C11    N76     1.349   .     S
C11    C119    1.282   .     D
C12    H21     1.011   .     S
C12    C35     1.334   .     D
N13    C74     1.349   .     S
C14    C33     1.334   .     S
C14    O78     1.332   .     S
C14    C116    1.282   .     D
O15    C77     1.332   .     S
O15    C115    1.327   .     S
C22    C149    1.345   .     S
C22    C150    1.364   .     S
C22    C173    1.368   .     D
C23    H37     1.037   .     S
C23    C148    1.345   .     S
C23    C149    1.333   1_565 D
C24    C25     1.446   .     S
C24    C148    1.364   .     S
C24    C172    1.347   .     D
C25    C26     1.326   .     S
C25    C30     1.309   .     D
C26    C27     1.345   .     D
C26    H38     1.007   .     S
C27    C28     1.311   .     S
C27    H39     1.017   .     S
C28    C29     1.318   .     D
C28    C31     1.421   .     S
C29    C30     1.345   .     S
C29    H40     1.008   .     S
C30    H41     1.008   .     S
C31    N34     1.235   .     D
C31    O99     1.327   .     S
C32    C33     1.342   .     D
C32    N55     1.349   .     S
C32    C98     1.282   .     S
C33    H42     1.011   .     S
N34    C53     1.349   .     S
C35    O57     1.332   .     S
C35    C95     1.282   .     S
O36    C56     1.332   .     S
O36    C94     1.327   .     S
C43    C86     1.345   .     S
C43    C87     1.364   .     D
C43    C176    1.368   .     S
C44    H58     1.037   .     S
C44    C85     1.345   .     S
C44    C86     1.333   .     D
C45    C46     1.446   .     S
C45    C85     1.364   .     D
C45    C175    1.347   .     S
C46    C47     1.326   .     D
C46    C51     1.309   .     S
C47    C48     1.345   .     S
C47    H59     1.007   .     S
C48    C49     1.311   .     D
C48    H60     1.017   .     S
C49    C50     1.318   .     S
C49    C52     1.421   .     S
C50    C51     1.345   .     D
C50    H61     1.008   .     S
C51    H62     1.008   .     S
C52    N55     1.235   .     D
C52    O162    1.327   .     S
C53    C54     1.342   .     S
C53    C161    1.282   .     D
C54    H63     1.011   .     S
C54    C77     1.334   .     D
C56    C75     1.334   .     S
C56    C158    1.282   .     D
O57    C157    1.327   .     S
C64    C107    1.345   .     D
C64    C108    1.364   .     S
C64    C179    1.368   1_655 S
C65    H79     1.037   .     S
C65    C106    1.345   .     D
C65    C107    1.333   .     S
C66    C67     1.446   .     S
C66    C106    1.364   .     S
C66    C178    1.347   1_655 D
C67    C68     1.326   .     S
C67    C72     1.309   .     D
C68    C69     1.345   .     D
C68    H80     1.007   .     S
C69    C70     1.311   .     S
C69    H81     1.017   .     S
C70    C71     1.318   .     D
C70    C73     1.421   .     S
C71    C72     1.345   .     S
C71    H82     1.008   .     S
C72    H83     1.008   .     S
C73    N76     1.235   .     D
C73    O141    1.327   .     S
C74    C75     1.342   .     D
C74    C140    1.282   .     S
C75    H84     1.011   .     S
C77    C137    1.282   .     S
O78    C136    1.327   .     S
C85    C179    1.368   .     S
C86    H100    1.037   .     S
C87    C88     1.446   .     S
C87    C178    1.347   .     S
C88    C89     1.326   .     D
C88    C93     1.309   .     S
C89    C90     1.345   .     S
C89    H101    1.007   .     S
C90    C91     1.311   .     D
C90    H102    1.017   .     S
C91    C92     1.318   .     S
C91    C94     1.421   .     S
C92    C93     1.345   .     D
C92    H103    1.008   .     S
C93    H104    1.008   .     S
C94    N97     1.235   .     D
C95    C96     1.342   .     D
C95    N160    1.349   .     S
C96    H105    1.011   .     S
C96    C119    1.334   .     S
N97    C158    1.349   .     S
C98    C117    1.334   .     D
C98    O162    1.332   .     S
O99    C161    1.332   .     S
C106   C176    1.368   1_655 S
C107   H121    1.037   .     S
C108   C109    1.446   .     S
C108   C175    1.347   1_655 D
C109   C110    1.326   .     S
C109   C114    1.309   .     D
C110   C111    1.345   .     D
C110   H122    1.007   .     S
C111   C112    1.311   .     S
C111   H123    1.017   .     S
C112   C113    1.318   .     D
C112   C115    1.421   .     S
C113   C114    1.345   .     S
C113   H124    1.008   .     S
C114   H125    1.008   .     S
C115   N118    1.235   .     D
C116   C117    1.342   .     S
C116   N139    1.349   .     S
C117   H126    1.011   .     S
N118   C137    1.349   .     S
C119   O141    1.332   .     S
O120   C140    1.332   .     S
C127   C173    1.368   .     S
C128   C2      1.333   1_565 D
C128   H142    1.037   .     S
C129   C130    1.446   .     S
C129   C172    1.347   .     S
C130   C131    1.326   .     D
C130   C135    1.309   .     S
C131   C132    1.345   .     S
C131   H143    1.007   .     S
C132   C133    1.311   .     D
C132   H144    1.017   .     S
C133   C134    1.318   .     S
C133   C136    1.421   .     S
C134   C135    1.345   .     D
C134   H145    1.008   .     S
C135   H146    1.008   .     S
C136   N139    1.235   .     D
C137   C138    1.342   .     D
C138   H147    1.011   .     S
C138   C161    1.334   .     S
C140   C159    1.334   .     D
C148   C170    1.368   .     D
C149   C23     1.333   1_545 D
C149   H163    1.037   .     S
C150   C151    1.446   .     S
C150   C169    1.347   .     D
C151   C152    1.326   .     S
C151   C156    1.309   .     D
C152   C153    1.345   .     D
C152   H164    1.007   .     S
C153   C154    1.311   .     S
C153   H165    1.017   .     S
C154   C155    1.318   .     D
C154   C157    1.421   .     S
C155   C156    1.345   .     S
C155   H166    1.008   .     S
C156   H167    1.008   .     S
C157   N160    1.235   .     D
C158   C159    1.342   .     S
C159   H168    1.011   .     S
C169   H171    1.041   .     S
C170   C173    1.371   1_565 S
C172   H174    1.040   .     S
C173   C170    1.371   1_545 S
C175   C108    1.347   1_455 D
C175   H177    1.041   .     S
C176   C106    1.368   1_455 S
C176   C179    1.371   .     D
C178   C66     1.347   1_455 D
C178   H180    1.041   .     S
C179   C64     1.368   1_455 S
