data_294
_audit_creation_date              2023-09-08
_audit_creation_method            'Materials Studio'
_symmetry_space_group_name_H-M    'P1'
_symmetry_Int_Tables_number       1
_symmetry_cell_setting            triclinic
loop_
_symmetry_equiv_pos_as_xyz
  x,y,z
_cell_length_a                    24.0320
_cell_length_b                    24.0320
_cell_length_c                    8.4840
_cell_angle_alpha                 90.0000
_cell_angle_beta                  90.0000
_cell_angle_gamma                 90.0000
loop_
_atom_site_label
_atom_site_type_symbol
_atom_site_fract_x
_atom_site_fract_y
_atom_site_fract_z
_atom_site_U_iso_or_equiv
_atom_site_adp_type
_atom_site_occupancy
N1     N     0.95650   0.14901   0.51678   0.00000  Uiso   1.00
N2     N     0.86746   0.18382   0.84628   0.00000  Uiso   1.00
C3     C     0.98362   0.04728   0.11351   0.00000  Uiso   1.00
C4     C     0.93354   0.04285   0.19946   0.00000  Uiso   1.00
C5     C     0.92261   0.07769   0.32718   0.00000  Uiso   1.00
C6     C     0.96192   0.11759   0.37399   0.00000  Uiso   1.00
C7     C     0.01118   0.12300   0.28837   0.00000  Uiso   1.00
C8     C     0.02232   0.08826   0.16043   0.00000  Uiso   1.00
C9     C     0.91162   0.15486   0.60080   0.00000  Uiso   1.00
C10    C     0.91348   0.18387   0.75296   0.00000  Uiso   1.00
C11    C     0.96222   0.20970   0.80611   0.00000  Uiso   1.00
C12    C     0.96276   0.23558   0.95285   0.00000  Uiso   1.00
C13    C     0.91472   0.23596   0.04704   0.00000  Uiso   1.00
C14    C     0.86690   0.20889   0.98992   0.00000  Uiso   1.00
H15    H     0.90416   0.00999   0.17313   0.00000  Uiso   1.00
H16    H     0.88502   0.07069   0.39365   0.00000  Uiso   1.00
H17    H     0.04222   0.15271   0.32619   0.00000  Uiso   1.00
H18    H     0.06282   0.09141   0.10539   0.00000  Uiso   1.00
H19    H     0.87225   0.13751   0.56413   0.00000  Uiso   1.00
H20    H     0.99939   0.21003   0.73415   0.00000  Uiso   1.00
H21    H     0.00043   0.25617   0.99081   0.00000  Uiso   1.00
H22    H     0.82937   0.20684   0.06017   0.00000  Uiso   1.00
N23    N     0.45650   0.64901   0.01678   0.00000  Uiso   1.00
N24    N     0.36746   0.68382   0.34628   0.00000  Uiso   1.00
C25    C     0.48362   0.54728   0.61351   0.00000  Uiso   1.00
C26    C     0.43354   0.54285   0.69946   0.00000  Uiso   1.00
C27    C     0.42261   0.57769   0.82718   0.00000  Uiso   1.00
C28    C     0.46192   0.61759   0.87399   0.00000  Uiso   1.00
C29    C     0.51118   0.62300   0.78837   0.00000  Uiso   1.00
C30    C     0.52232   0.58826   0.66043   0.00000  Uiso   1.00
C31    C     0.41162   0.65486   0.10080   0.00000  Uiso   1.00
C32    C     0.41348   0.68387   0.25296   0.00000  Uiso   1.00
C33    C     0.46222   0.70970   0.30611   0.00000  Uiso   1.00
C34    C     0.46276   0.73558   0.45285   0.00000  Uiso   1.00
C35    C     0.41472   0.73596   0.54704   0.00000  Uiso   1.00
C36    C     0.36690   0.70889   0.48992   0.00000  Uiso   1.00
H37    H     0.40416   0.50999   0.67313   0.00000  Uiso   1.00
H38    H     0.38502   0.57069   0.89365   0.00000  Uiso   1.00
H39    H     0.54222   0.65271   0.82619   0.00000  Uiso   1.00
H40    H     0.56282   0.59141   0.60539   0.00000  Uiso   1.00
H41    H     0.37225   0.63751   0.06413   0.00000  Uiso   1.00
H42    H     0.49939   0.71003   0.23415   0.00000  Uiso   1.00
H43    H     0.50043   0.75617   0.49081   0.00000  Uiso   1.00
H44    H     0.32937   0.70684   0.56017   0.00000  Uiso   1.00
N45    N     0.04350   0.85099   0.51678   0.00000  Uiso   1.00
N46    N     0.13254   0.81618   0.84628   0.00000  Uiso   1.00
C47    C     0.01638   0.95272   0.11351   0.00000  Uiso   1.00
C48    C     0.06646   0.95715   0.19946   0.00000  Uiso   1.00
C49    C     0.07739   0.92231   0.32718   0.00000  Uiso   1.00
C50    C     0.03808   0.88241   0.37399   0.00000  Uiso   1.00
C51    C     0.98882   0.87700   0.28837   0.00000  Uiso   1.00
C52    C     0.97768   0.91174   0.16043   0.00000  Uiso   1.00
C53    C     0.08838   0.84514   0.60080   0.00000  Uiso   1.00
C54    C     0.08652   0.81613   0.75296   0.00000  Uiso   1.00
C55    C     0.03778   0.79030   0.80611   0.00000  Uiso   1.00
C56    C     0.03724   0.76442   0.95285   0.00000  Uiso   1.00
C57    C     0.08528   0.76404   0.04704   0.00000  Uiso   1.00
C58    C     0.13310   0.79111   0.98992   0.00000  Uiso   1.00
H59    H     0.09584   0.99001   0.17313   0.00000  Uiso   1.00
H60    H     0.11498   0.92931   0.39365   0.00000  Uiso   1.00
H61    H     0.95778   0.84729   0.32619   0.00000  Uiso   1.00
H62    H     0.93718   0.90859   0.10539   0.00000  Uiso   1.00
H63    H     0.12775   0.86249   0.56413   0.00000  Uiso   1.00
H64    H     0.00061   0.78997   0.73415   0.00000  Uiso   1.00
H65    H     0.99957   0.74383   0.99081   0.00000  Uiso   1.00
H66    H     0.17063   0.79316   0.06017   0.00000  Uiso   1.00
N67    N     0.54350   0.35099   0.01678   0.00000  Uiso   1.00
N68    N     0.63254   0.31618   0.34628   0.00000  Uiso   1.00
C69    C     0.51638   0.45272   0.61351   0.00000  Uiso   1.00
C70    C     0.56646   0.45715   0.69946   0.00000  Uiso   1.00
C71    C     0.57739   0.42231   0.82718   0.00000  Uiso   1.00
C72    C     0.53808   0.38241   0.87399   0.00000  Uiso   1.00
C73    C     0.48882   0.37700   0.78837   0.00000  Uiso   1.00
C74    C     0.47768   0.41174   0.66043   0.00000  Uiso   1.00
C75    C     0.58838   0.34514   0.10080   0.00000  Uiso   1.00
C76    C     0.58652   0.31613   0.25296   0.00000  Uiso   1.00
C77    C     0.53778   0.29030   0.30611   0.00000  Uiso   1.00
C78    C     0.53724   0.26442   0.45285   0.00000  Uiso   1.00
C79    C     0.58528   0.26404   0.54704   0.00000  Uiso   1.00
C80    C     0.63310   0.29111   0.48992   0.00000  Uiso   1.00
H81    H     0.59584   0.49001   0.67313   0.00000  Uiso   1.00
H82    H     0.61498   0.42931   0.89365   0.00000  Uiso   1.00
H83    H     0.45778   0.34729   0.82619   0.00000  Uiso   1.00
H84    H     0.43718   0.40859   0.60539   0.00000  Uiso   1.00
H85    H     0.62775   0.36249   0.06413   0.00000  Uiso   1.00
H86    H     0.50061   0.28997   0.23415   0.00000  Uiso   1.00
H87    H     0.49957   0.24383   0.49081   0.00000  Uiso   1.00
H88    H     0.67063   0.29316   0.56017   0.00000  Uiso   1.00
N89    N     0.14901   0.04350   0.48322   0.00000  Uiso   1.00
N90    N     0.18382   0.13254   0.15372   0.00000  Uiso   1.00
C91    C     0.04728   0.01638   0.88649   0.00000  Uiso   1.00
C92    C     0.04285   0.06646   0.80054   0.00000  Uiso   1.00
C93    C     0.07769   0.07739   0.67282   0.00000  Uiso   1.00
C94    C     0.11759   0.03808   0.62601   0.00000  Uiso   1.00
C95    C     0.12300   0.98882   0.71163   0.00000  Uiso   1.00
C96    C     0.08826   0.97768   0.83957   0.00000  Uiso   1.00
C97    C     0.15486   0.08838   0.39920   0.00000  Uiso   1.00
C98    C     0.18387   0.08652   0.24704   0.00000  Uiso   1.00
C99    C     0.20970   0.03778   0.19389   0.00000  Uiso   1.00
C100   C     0.23558   0.03724   0.04715   0.00000  Uiso   1.00
C101   C     0.23596   0.08528   0.95296   0.00000  Uiso   1.00
C102   C     0.20889   0.13310   0.01008   0.00000  Uiso   1.00
H103   H     0.00999   0.09584   0.82687   0.00000  Uiso   1.00
H104   H     0.07069   0.11498   0.60635   0.00000  Uiso   1.00
H105   H     0.15271   0.95778   0.67381   0.00000  Uiso   1.00
H106   H     0.09141   0.93718   0.89461   0.00000  Uiso   1.00
H107   H     0.13751   0.12775   0.43587   0.00000  Uiso   1.00
H108   H     0.21003   0.00061   0.26585   0.00000  Uiso   1.00
H109   H     0.25617   0.99957   0.00919   0.00000  Uiso   1.00
H110   H     0.20684   0.17063   0.93983   0.00000  Uiso   1.00
N111   N     0.64901   0.54350   0.98322   0.00000  Uiso   1.00
N112   N     0.68382   0.63254   0.65372   0.00000  Uiso   1.00
C113   C     0.54728   0.51638   0.38649   0.00000  Uiso   1.00
C114   C     0.54285   0.56646   0.30054   0.00000  Uiso   1.00
C115   C     0.57769   0.57739   0.17282   0.00000  Uiso   1.00
C116   C     0.61759   0.53808   0.12601   0.00000  Uiso   1.00
C117   C     0.62300   0.48882   0.21163   0.00000  Uiso   1.00
C118   C     0.58826   0.47768   0.33957   0.00000  Uiso   1.00
C119   C     0.65486   0.58838   0.89920   0.00000  Uiso   1.00
C120   C     0.68387   0.58652   0.74704   0.00000  Uiso   1.00
C121   C     0.70970   0.53778   0.69389   0.00000  Uiso   1.00
C122   C     0.73558   0.53724   0.54715   0.00000  Uiso   1.00
C123   C     0.73596   0.58528   0.45296   0.00000  Uiso   1.00
C124   C     0.70889   0.63310   0.51008   0.00000  Uiso   1.00
H125   H     0.50999   0.59584   0.32687   0.00000  Uiso   1.00
H126   H     0.57069   0.61498   0.10635   0.00000  Uiso   1.00
H127   H     0.65271   0.45778   0.17381   0.00000  Uiso   1.00
H128   H     0.59141   0.43718   0.39461   0.00000  Uiso   1.00
H129   H     0.63751   0.62775   0.93587   0.00000  Uiso   1.00
H130   H     0.71003   0.50061   0.76585   0.00000  Uiso   1.00
H131   H     0.75617   0.49957   0.50919   0.00000  Uiso   1.00
H132   H     0.70684   0.67063   0.43983   0.00000  Uiso   1.00
N133   N     0.85099   0.95650   0.48322   0.00000  Uiso   1.00
N134   N     0.81618   0.86746   0.15372   0.00000  Uiso   1.00
C135   C     0.95272   0.98362   0.88649   0.00000  Uiso   1.00
C136   C     0.95715   0.93354   0.80054   0.00000  Uiso   1.00
C137   C     0.92231   0.92261   0.67282   0.00000  Uiso   1.00
C138   C     0.88241   0.96192   0.62601   0.00000  Uiso   1.00
C139   C     0.87700   0.01118   0.71163   0.00000  Uiso   1.00
C140   C     0.91174   0.02232   0.83957   0.00000  Uiso   1.00
C141   C     0.84514   0.91162   0.39920   0.00000  Uiso   1.00
C142   C     0.81613   0.91348   0.24704   0.00000  Uiso   1.00
C143   C     0.79030   0.96222   0.19389   0.00000  Uiso   1.00
C144   C     0.76442   0.96276   0.04715   0.00000  Uiso   1.00
C145   C     0.76404   0.91472   0.95296   0.00000  Uiso   1.00
C146   C     0.79111   0.86690   0.01008   0.00000  Uiso   1.00
H147   H     0.99001   0.90416   0.82687   0.00000  Uiso   1.00
H148   H     0.92931   0.88502   0.60635   0.00000  Uiso   1.00
H149   H     0.84729   0.04222   0.67381   0.00000  Uiso   1.00
H150   H     0.90859   0.06282   0.89461   0.00000  Uiso   1.00
H151   H     0.86249   0.87225   0.43587   0.00000  Uiso   1.00
H152   H     0.78997   0.99939   0.26585   0.00000  Uiso   1.00
H153   H     0.74383   0.00043   0.00919   0.00000  Uiso   1.00
H154   H     0.79316   0.82937   0.93983   0.00000  Uiso   1.00
N155   N     0.35099   0.45650   0.98322   0.00000  Uiso   1.00
N156   N     0.31618   0.36746   0.65372   0.00000  Uiso   1.00
C157   C     0.45272   0.48362   0.38649   0.00000  Uiso   1.00
C158   C     0.45715   0.43354   0.30054   0.00000  Uiso   1.00
C159   C     0.42231   0.42261   0.17282   0.00000  Uiso   1.00
C160   C     0.38241   0.46192   0.12601   0.00000  Uiso   1.00
C161   C     0.37700   0.51118   0.21163   0.00000  Uiso   1.00
C162   C     0.41174   0.52232   0.33957   0.00000  Uiso   1.00
C163   C     0.34514   0.41162   0.89920   0.00000  Uiso   1.00
C164   C     0.31613   0.41348   0.74704   0.00000  Uiso   1.00
C165   C     0.29030   0.46222   0.69389   0.00000  Uiso   1.00
C166   C     0.26442   0.46276   0.54715   0.00000  Uiso   1.00
C167   C     0.26404   0.41472   0.45296   0.00000  Uiso   1.00
C168   C     0.29111   0.36690   0.51008   0.00000  Uiso   1.00
H169   H     0.49001   0.40416   0.32687   0.00000  Uiso   1.00
H170   H     0.42931   0.38502   0.10635   0.00000  Uiso   1.00
H171   H     0.34729   0.54222   0.17381   0.00000  Uiso   1.00
H172   H     0.40859   0.56282   0.39461   0.00000  Uiso   1.00
H173   H     0.36249   0.37225   0.93587   0.00000  Uiso   1.00
H174   H     0.28997   0.49939   0.76585   0.00000  Uiso   1.00
H175   H     0.24383   0.50043   0.50919   0.00000  Uiso   1.00
H176   H     0.29316   0.32937   0.43983   0.00000  Uiso   1.00
N177   N     0.54350   0.14901   0.23322   0.00000  Uiso   1.00
N178   N     0.63254   0.18382   0.90372   0.00000  Uiso   1.00
C179   C     0.51638   0.04728   0.63649   0.00000  Uiso   1.00
C180   C     0.56646   0.04285   0.55054   0.00000  Uiso   1.00
C181   C     0.57739   0.07769   0.42282   0.00000  Uiso   1.00
C182   C     0.53808   0.11759   0.37601   0.00000  Uiso   1.00
C183   C     0.48882   0.12300   0.46163   0.00000  Uiso   1.00
C184   C     0.47768   0.08826   0.58957   0.00000  Uiso   1.00
C185   C     0.58838   0.15486   0.14920   0.00000  Uiso   1.00
C186   C     0.58652   0.18387   0.99704   0.00000  Uiso   1.00
C187   C     0.53778   0.20970   0.94389   0.00000  Uiso   1.00
C188   C     0.53724   0.23558   0.79715   0.00000  Uiso   1.00
C189   C     0.58528   0.23596   0.70296   0.00000  Uiso   1.00
C190   C     0.63310   0.20889   0.76008   0.00000  Uiso   1.00
H191   H     0.59584   0.00999   0.57687   0.00000  Uiso   1.00
H192   H     0.61498   0.07069   0.35635   0.00000  Uiso   1.00
H193   H     0.45778   0.15271   0.42381   0.00000  Uiso   1.00
H194   H     0.43718   0.09141   0.64461   0.00000  Uiso   1.00
H195   H     0.62775   0.13751   0.18587   0.00000  Uiso   1.00
H196   H     0.50061   0.21003   0.01585   0.00000  Uiso   1.00
H197   H     0.49957   0.25617   0.75919   0.00000  Uiso   1.00
H198   H     0.67063   0.20684   0.68983   0.00000  Uiso   1.00
N199   N     0.04350   0.64901   0.73322   0.00000  Uiso   1.00
N200   N     0.13254   0.68382   0.40372   0.00000  Uiso   1.00
C201   C     0.01638   0.54728   0.13649   0.00000  Uiso   1.00
C202   C     0.06646   0.54285   0.05054   0.00000  Uiso   1.00
C203   C     0.07739   0.57769   0.92282   0.00000  Uiso   1.00
C204   C     0.03808   0.61759   0.87601   0.00000  Uiso   1.00
C205   C     0.98882   0.62300   0.96163   0.00000  Uiso   1.00
C206   C     0.97768   0.58826   0.08957   0.00000  Uiso   1.00
C207   C     0.08838   0.65486   0.64920   0.00000  Uiso   1.00
C208   C     0.08652   0.68387   0.49704   0.00000  Uiso   1.00
C209   C     0.03778   0.70970   0.44389   0.00000  Uiso   1.00
C210   C     0.03724   0.73558   0.29715   0.00000  Uiso   1.00
C211   C     0.08528   0.73596   0.20296   0.00000  Uiso   1.00
C212   C     0.13310   0.70889   0.26008   0.00000  Uiso   1.00
H213   H     0.09584   0.50999   0.07687   0.00000  Uiso   1.00
H214   H     0.11498   0.57069   0.85635   0.00000  Uiso   1.00
H215   H     0.95778   0.65271   0.92381   0.00000  Uiso   1.00
H216   H     0.93718   0.59141   0.14461   0.00000  Uiso   1.00
H217   H     0.12775   0.63751   0.68587   0.00000  Uiso   1.00
H218   H     0.00061   0.71003   0.51585   0.00000  Uiso   1.00
H219   H     0.99957   0.75617   0.25919   0.00000  Uiso   1.00
H220   H     0.17063   0.70684   0.18983   0.00000  Uiso   1.00
N221   N     0.45650   0.85099   0.23322   0.00000  Uiso   1.00
N222   N     0.36746   0.81618   0.90372   0.00000  Uiso   1.00
C223   C     0.48362   0.95272   0.63649   0.00000  Uiso   1.00
C224   C     0.43354   0.95715   0.55054   0.00000  Uiso   1.00
C225   C     0.42261   0.92231   0.42282   0.00000  Uiso   1.00
C226   C     0.46192   0.88241   0.37601   0.00000  Uiso   1.00
C227   C     0.51118   0.87700   0.46163   0.00000  Uiso   1.00
C228   C     0.52232   0.91174   0.58957   0.00000  Uiso   1.00
C229   C     0.41162   0.84514   0.14920   0.00000  Uiso   1.00
C230   C     0.41348   0.81613   0.99704   0.00000  Uiso   1.00
C231   C     0.46222   0.79030   0.94389   0.00000  Uiso   1.00
C232   C     0.46276   0.76442   0.79715   0.00000  Uiso   1.00
C233   C     0.41472   0.76404   0.70296   0.00000  Uiso   1.00
C234   C     0.36690   0.79111   0.76008   0.00000  Uiso   1.00
H235   H     0.40416   0.99001   0.57687   0.00000  Uiso   1.00
H236   H     0.38502   0.92931   0.35635   0.00000  Uiso   1.00
H237   H     0.54222   0.84729   0.42381   0.00000  Uiso   1.00
H238   H     0.56282   0.90859   0.64461   0.00000  Uiso   1.00
H239   H     0.37225   0.86249   0.18587   0.00000  Uiso   1.00
H240   H     0.49939   0.78997   0.01585   0.00000  Uiso   1.00
H241   H     0.50043   0.74383   0.75919   0.00000  Uiso   1.00
H242   H     0.32937   0.79316   0.68983   0.00000  Uiso   1.00
N243   N     0.95650   0.35099   0.73322   0.00000  Uiso   1.00
N244   N     0.86746   0.31618   0.40372   0.00000  Uiso   1.00
C245   C     0.98362   0.45272   0.13649   0.00000  Uiso   1.00
C246   C     0.93354   0.45715   0.05054   0.00000  Uiso   1.00
C247   C     0.92261   0.42231   0.92282   0.00000  Uiso   1.00
C248   C     0.96192   0.38241   0.87601   0.00000  Uiso   1.00
C249   C     0.01118   0.37700   0.96163   0.00000  Uiso   1.00
C250   C     0.02232   0.41174   0.08957   0.00000  Uiso   1.00
C251   C     0.91162   0.34514   0.64920   0.00000  Uiso   1.00
C252   C     0.91348   0.31613   0.49704   0.00000  Uiso   1.00
C253   C     0.96222   0.29030   0.44389   0.00000  Uiso   1.00
C254   C     0.96276   0.26442   0.29715   0.00000  Uiso   1.00
C255   C     0.91472   0.26404   0.20296   0.00000  Uiso   1.00
C256   C     0.86690   0.29111   0.26008   0.00000  Uiso   1.00
H257   H     0.90416   0.49001   0.07687   0.00000  Uiso   1.00
H258   H     0.88502   0.42931   0.85635   0.00000  Uiso   1.00
H259   H     0.04222   0.34729   0.92381   0.00000  Uiso   1.00
H260   H     0.06282   0.40859   0.14461   0.00000  Uiso   1.00
H261   H     0.87225   0.36249   0.68587   0.00000  Uiso   1.00
H262   H     0.99939   0.28997   0.51585   0.00000  Uiso   1.00
H263   H     0.00043   0.24383   0.25919   0.00000  Uiso   1.00
H264   H     0.82937   0.29316   0.18983   0.00000  Uiso   1.00
N265   N     0.35099   0.04350   0.26678   0.00000  Uiso   1.00
N266   N     0.31618   0.13254   0.59628   0.00000  Uiso   1.00
C267   C     0.45272   0.01638   0.86351   0.00000  Uiso   1.00
C268   C     0.45715   0.06646   0.94946   0.00000  Uiso   1.00
C269   C     0.42231   0.07739   0.07718   0.00000  Uiso   1.00
C270   C     0.38241   0.03808   0.12399   0.00000  Uiso   1.00
C271   C     0.37700   0.98882   0.03837   0.00000  Uiso   1.00
C272   C     0.41174   0.97768   0.91043   0.00000  Uiso   1.00
C273   C     0.34514   0.08838   0.35080   0.00000  Uiso   1.00
C274   C     0.31613   0.08652   0.50296   0.00000  Uiso   1.00
C275   C     0.29030   0.03778   0.55611   0.00000  Uiso   1.00
C276   C     0.26442   0.03724   0.70285   0.00000  Uiso   1.00
C277   C     0.26404   0.08528   0.79704   0.00000  Uiso   1.00
C278   C     0.29111   0.13310   0.73992   0.00000  Uiso   1.00
H279   H     0.49001   0.09584   0.92313   0.00000  Uiso   1.00
H280   H     0.42931   0.11498   0.14365   0.00000  Uiso   1.00
H281   H     0.34729   0.95778   0.07619   0.00000  Uiso   1.00
H282   H     0.40859   0.93718   0.85539   0.00000  Uiso   1.00
H283   H     0.36249   0.12775   0.31413   0.00000  Uiso   1.00
H284   H     0.28997   0.00061   0.48415   0.00000  Uiso   1.00
H285   H     0.24383   0.99957   0.74081   0.00000  Uiso   1.00
H286   H     0.29316   0.17063   0.81017   0.00000  Uiso   1.00
N287   N     0.85099   0.54350   0.76678   0.00000  Uiso   1.00
N288   N     0.81618   0.63254   0.09628   0.00000  Uiso   1.00
C289   C     0.95272   0.51638   0.36351   0.00000  Uiso   1.00
C290   C     0.95715   0.56646   0.44946   0.00000  Uiso   1.00
C291   C     0.92231   0.57739   0.57718   0.00000  Uiso   1.00
C292   C     0.88241   0.53808   0.62399   0.00000  Uiso   1.00
C293   C     0.87700   0.48882   0.53837   0.00000  Uiso   1.00
C294   C     0.91174   0.47768   0.41043   0.00000  Uiso   1.00
C295   C     0.84514   0.58838   0.85080   0.00000  Uiso   1.00
C296   C     0.81613   0.58652   0.00296   0.00000  Uiso   1.00
C297   C     0.79030   0.53778   0.05611   0.00000  Uiso   1.00
C298   C     0.76442   0.53724   0.20285   0.00000  Uiso   1.00
C299   C     0.76404   0.58528   0.29704   0.00000  Uiso   1.00
C300   C     0.79111   0.63310   0.23992   0.00000  Uiso   1.00
H301   H     0.99001   0.59584   0.42313   0.00000  Uiso   1.00
H302   H     0.92931   0.61498   0.64365   0.00000  Uiso   1.00
H303   H     0.84729   0.45778   0.57619   0.00000  Uiso   1.00
H304   H     0.90859   0.43718   0.35539   0.00000  Uiso   1.00
H305   H     0.86249   0.62775   0.81413   0.00000  Uiso   1.00
H306   H     0.78997   0.50061   0.98415   0.00000  Uiso   1.00
H307   H     0.74383   0.49957   0.24081   0.00000  Uiso   1.00
H308   H     0.79316   0.67063   0.31017   0.00000  Uiso   1.00
N309   N     0.64901   0.95650   0.26678   0.00000  Uiso   1.00
N310   N     0.68382   0.86746   0.59628   0.00000  Uiso   1.00
C311   C     0.54728   0.98362   0.86351   0.00000  Uiso   1.00
C312   C     0.54285   0.93354   0.94946   0.00000  Uiso   1.00
C313   C     0.57769   0.92261   0.07718   0.00000  Uiso   1.00
C314   C     0.61759   0.96192   0.12399   0.00000  Uiso   1.00
C315   C     0.62300   0.01118   0.03837   0.00000  Uiso   1.00
C316   C     0.58826   0.02232   0.91043   0.00000  Uiso   1.00
C317   C     0.65486   0.91162   0.35080   0.00000  Uiso   1.00
C318   C     0.68387   0.91348   0.50296   0.00000  Uiso   1.00
C319   C     0.70970   0.96222   0.55611   0.00000  Uiso   1.00
C320   C     0.73558   0.96276   0.70285   0.00000  Uiso   1.00
C321   C     0.73596   0.91472   0.79704   0.00000  Uiso   1.00
C322   C     0.70889   0.86690   0.73992   0.00000  Uiso   1.00
H323   H     0.50999   0.90416   0.92313   0.00000  Uiso   1.00
H324   H     0.57069   0.88502   0.14365   0.00000  Uiso   1.00
H325   H     0.65271   0.04222   0.07619   0.00000  Uiso   1.00
H326   H     0.59141   0.06282   0.85539   0.00000  Uiso   1.00
H327   H     0.63751   0.87225   0.31413   0.00000  Uiso   1.00
H328   H     0.71003   0.99939   0.48415   0.00000  Uiso   1.00
H329   H     0.75617   0.00043   0.74081   0.00000  Uiso   1.00
H330   H     0.70684   0.82937   0.81017   0.00000  Uiso   1.00
N331   N     0.14901   0.45650   0.76678   0.00000  Uiso   1.00
N332   N     0.18382   0.36746   0.09628   0.00000  Uiso   1.00
C333   C     0.04728   0.48362   0.36351   0.00000  Uiso   1.00
C334   C     0.04285   0.43354   0.44946   0.00000  Uiso   1.00
C335   C     0.07769   0.42261   0.57718   0.00000  Uiso   1.00
C336   C     0.11759   0.46192   0.62399   0.00000  Uiso   1.00
C337   C     0.12300   0.51118   0.53837   0.00000  Uiso   1.00
C338   C     0.08826   0.52232   0.41043   0.00000  Uiso   1.00
C339   C     0.15486   0.41162   0.85080   0.00000  Uiso   1.00
C340   C     0.18387   0.41348   0.00296   0.00000  Uiso   1.00
C341   C     0.20970   0.46222   0.05611   0.00000  Uiso   1.00
C342   C     0.23558   0.46276   0.20285   0.00000  Uiso   1.00
C343   C     0.23596   0.41472   0.29704   0.00000  Uiso   1.00
C344   C     0.20889   0.36690   0.23992   0.00000  Uiso   1.00
H345   H     0.00999   0.40416   0.42313   0.00000  Uiso   1.00
H346   H     0.07069   0.38502   0.64365   0.00000  Uiso   1.00
H347   H     0.15271   0.54222   0.57619   0.00000  Uiso   1.00
H348   H     0.09141   0.56282   0.35539   0.00000  Uiso   1.00
H349   H     0.13751   0.37225   0.81413   0.00000  Uiso   1.00
H350   H     0.21003   0.49939   0.98415   0.00000  Uiso   1.00
H351   H     0.25617   0.50043   0.24081   0.00000  Uiso   1.00
H352   H     0.20684   0.32937   0.31017   0.00000  Uiso   1.00
C353   C     0.00000   0.00000   0.00000   0.00000  Uiso   1.00
C354   C     0.50000   0.50000   0.50000   0.00000  Uiso   1.00
C355   C     0.50000   0.00000   0.75000   0.00000  Uiso   1.00
C356   C     0.00000   0.50000   0.25000   0.00000  Uiso   1.00
loop_
_geom_bond_atom_site_label_1
_geom_bond_atom_site_label_2
_geom_bond_distance
_geom_bond_site_symmetry_2
_ccdc_geom_bond_type
N1     C6      1.433   .     S
N1     C9      1.300   .     D
N2     C10     1.360   .     D
N2     C14     1.360   .     S
C3     C4      1.411   .     S
C3     C8      1.412   1_655 D
C3     C353    1.541   1_655 S
C4     C5      1.394   .     D
C4     H15     1.083   .     S
C5     C6      1.403   .     S
C5     H16     1.078   .     S
C6     C7      1.395   1_655 D
C7     C6      1.395   1_455 D
C7     C8      1.395   .     S
C7     H17     1.081   .     S
C8     C3      1.412   1_455 D
C8     H18     1.082   .     S
C9     C10     1.468   .     S
C9     H19     1.080   .     S
C10    C11     1.400   .     S
C11    C12     1.392   .     D
C11    H20     1.082   .     S
C12    C13     1.404   1_556 S
C12    H21     1.081   1_655 S
C13    C12     1.404   1_554 S
C13    C14     1.407   1_554 D
C13    C255    1.485   .     S
C14    C13     1.407   1_556 D
C14    H22     1.082   1_556 S
H21    C12     1.081   1_455 S
H22    C14     1.082   1_554 S
N23    C28     1.433   1_554 S
N23    C31     1.300   .     D
N24    C32     1.360   .     S
N24    C36     1.360   .     D
C25    C26     1.411   .     D
C25    C30     1.412   .     S
C25    C354    1.541   .     S
C26    C27     1.394   .     S
C26    H37     1.083   .     S
C27    C28     1.403   .     D
C27    H38     1.078   .     S
C28    N23     1.433   1_556 S
C28    C29     1.395   .     S
C29    C30     1.395   .     D
C29    H39     1.081   .     S
C30    H40     1.082   .     S
C31    C32     1.468   .     S
C31    H41     1.080   .     S
C32    C33     1.400   .     D
C33    C34     1.392   .     S
C33    H42     1.082   .     S
C34    C35     1.404   .     D
C34    H43     1.081   .     S
C35    C36     1.407   .     S
C35    C233    1.485   .     S
C36    H44     1.082   .     S
N45    C50     1.433   .     S
N45    C53     1.300   .     D
N46    C54     1.360   .     D
N46    C58     1.360   .     S
C47    C48     1.411   .     S
C47    C52     1.412   1_455 D
C47    C353    1.541   1_565 S
C48    C49     1.394   .     D
C48    H59     1.083   .     S
C49    C50     1.403   .     S
C49    H60     1.078   .     S
C50    C51     1.395   1_455 D
C51    C50     1.395   1_655 D
C51    C52     1.395   .     S
C51    H61     1.081   .     S
C52    C47     1.412   1_655 D
C52    H62     1.082   .     S
C53    C54     1.468   .     S
C53    H63     1.080   .     S
C54    C55     1.400   .     S
C55    C56     1.392   .     D
C55    H64     1.082   .     S
C56    C57     1.404   1_556 S
C56    H65     1.081   1_455 S
C57    C56     1.404   1_554 S
C57    C58     1.407   1_554 D
C57    C211    1.485   .     S
C58    C57     1.407   1_556 D
C58    H66     1.082   1_556 S
H65    C56     1.081   1_655 S
H66    C58     1.082   1_554 S
N67    C72     1.433   1_554 S
N67    C75     1.300   .     D
N68    C76     1.360   .     S
N68    C80     1.360   .     D
C69    C70     1.411   .     D
C69    C74     1.412   .     S
C69    C354    1.541   .     S
C70    C71     1.394   .     S
C70    H81     1.083   .     S
C71    C72     1.403   .     D
C71    H82     1.078   .     S
C72    N67     1.433   1_556 S
C72    C73     1.395   .     S
C73    C74     1.395   .     D
C73    H83     1.081   .     S
C74    H84     1.082   .     S
C75    C76     1.468   .     S
C75    H85     1.080   .     S
C76    C77     1.400   .     D
C77    C78     1.392   .     S
C77    H86     1.082   .     S
C78    C79     1.404   .     D
C78    H87     1.081   .     S
C79    C80     1.407   .     S
C79    C189    1.485   .     S
C80    H88     1.082   .     S
N89    C94     1.433   .     S
N89    C97     1.300   .     D
N90    C98     1.360   .     S
N90    C102    1.360   .     D
C91    C92     1.411   .     D
C91    C96     1.412   1_545 S
C91    C353    1.541   1_556 S
C92    C93     1.394   .     S
C92    H103    1.083   .     S
C93    C94     1.403   .     D
C93    H104    1.078   .     S
C94    C95     1.395   1_545 S
C95    C94     1.395   1_565 S
C95    C96     1.395   .     D
C95    H105    1.081   .     S
C96    C91     1.412   1_565 S
C96    H106    1.082   .     S
C97    C98     1.468   .     S
C97    H107    1.080   .     S
C98    C99     1.400   .     D
C99    C100    1.392   .     S
C99    H108    1.082   .     S
C100   C101    1.404   1_554 D
C100   H109    1.081   1_545 S
C101   C100    1.404   1_556 D
C101   C102    1.407   1_556 S
C101   C277    1.485   .     S
C102   C101    1.407   1_554 S
C102   H110    1.082   1_554 S
H109   C100    1.081   1_565 S
H110   C102    1.082   1_556 S
N111   C116    1.433   1_556 S
N111   C119    1.300   .     D
N112   C120    1.360   .     S
N112   C124    1.360   .     D
C113   C114    1.411   .     D
C113   C118    1.412   .     S
C113   C354    1.541   .     S
C114   C115    1.394   .     S
C114   H125    1.083   .     S
C115   C116    1.403   .     D
C115   H126    1.078   .     S
C116   N111    1.433   1_554 S
C116   C117    1.395   .     S
C117   C118    1.395   .     D
C117   H127    1.081   .     S
C118   H128    1.082   .     S
C119   C120    1.468   .     S
C119   H129    1.080   .     S
C120   C121    1.400   .     D
C121   C122    1.392   .     S
C121   H130    1.082   .     S
C122   C123    1.404   .     D
C122   H131    1.081   .     S
C123   C124    1.407   .     S
C123   C299    1.485   .     S
C124   H132    1.082   .     S
N133   C138    1.433   .     S
N133   C141    1.300   .     D
N134   C142    1.360   .     S
N134   C146    1.360   .     D
C135   C136    1.411   .     D
C135   C140    1.412   1_565 S
C135   C353    1.541   1_666 S
C136   C137    1.394   .     S
C136   H147    1.083   .     S
C137   C138    1.403   .     D
C137   H148    1.078   .     S
C138   C139    1.395   1_565 S
C139   C138    1.395   1_545 S
C139   C140    1.395   .     D
C139   H149    1.081   .     S
C140   C135    1.412   1_545 S
C140   H150    1.082   .     S
C141   C142    1.468   .     S
C141   H151    1.080   .     S
C142   C143    1.400   .     D
C143   C144    1.392   .     S
C143   H152    1.082   .     S
C144   C145    1.404   1_554 D
C144   H153    1.081   1_565 S
C145   C144    1.404   1_556 D
C145   C146    1.407   1_556 S
C145   C321    1.485   .     S
C146   C145    1.407   1_554 S
C146   H154    1.082   1_554 S
H153   C144    1.081   1_545 S
H154   C146    1.082   1_556 S
N155   C160    1.433   1_556 S
N155   C163    1.300   .     D
N156   C164    1.360   .     S
N156   C168    1.360   .     D
C157   C158    1.411   .     D
C157   C162    1.412   .     S
C157   C354    1.541   .     S
C158   C159    1.394   .     S
C158   H169    1.083   .     S
C159   C160    1.403   .     D
C159   H170    1.078   .     S
C160   N155    1.433   1_554 S
C160   C161    1.395   .     S
C161   C162    1.395   .     D
C161   H171    1.081   .     S
C162   H172    1.082   .     S
C163   C164    1.468   .     S
C163   H173    1.080   .     S
C164   C165    1.400   .     D
C165   C166    1.392   .     S
C165   H174    1.082   .     S
C166   C167    1.404   .     D
C166   H175    1.081   .     S
C167   C168    1.407   .     S
C167   C343    1.485   .     S
C168   H176    1.082   .     S
N177   C182    1.433   .     S
N177   C185    1.300   .     D
N178   C186    1.360   .     D
N178   C190    1.360   .     S
C179   C180    1.411   .     D
C179   C184    1.412   .     S
C179   C355    1.541   .     S
C180   C181    1.394   .     S
C180   H191    1.083   .     S
C181   C182    1.403   .     D
C181   H192    1.078   .     S
C182   C183    1.395   .     S
C183   C184    1.395   .     D
C183   H193    1.081   .     S
C184   H194    1.082   .     S
C185   C186    1.468   1_554 S
C185   H195    1.080   .     S
C186   C185    1.468   1_556 S
C186   C187    1.400   .     S
C187   C188    1.392   .     D
C187   H196    1.082   1_556 S
C188   C189    1.404   .     S
C188   H197    1.081   .     S
C189   C190    1.407   .     D
C190   H198    1.082   .     S
H196   C187    1.082   1_554 S
N199   C204    1.433   .     S
N199   C207    1.300   .     D
N200   C208    1.360   .     S
N200   C212    1.360   .     D
C201   C202    1.411   .     S
C201   C206    1.412   1_455 D
C201   C356    1.541   .     S
C202   C203    1.394   1_554 D
C202   H213    1.083   .     S
C203   C202    1.394   1_556 D
C203   C204    1.403   .     S
C203   H214    1.078   .     S
C204   C205    1.395   1_455 D
C205   C204    1.395   1_655 D
C205   C206    1.395   1_556 S
C205   H215    1.081   .     S
C206   C201    1.412   1_655 D
C206   C205    1.395   1_554 S
C206   H216    1.082   .     S
C207   C208    1.468   .     S
C207   H217    1.080   .     S
C208   C209    1.400   .     D
C209   C210    1.392   .     S
C209   H218    1.082   .     S
C210   C211    1.404   .     D
C210   H219    1.081   1_455 S
C211   C212    1.407   .     S
C212   H220    1.082   .     S
H219   C210    1.081   1_655 S
N221   C226    1.433   .     S
N221   C229    1.300   .     D
N222   C230    1.360   .     D
N222   C234    1.360   .     S
C223   C224    1.411   .     D
C223   C228    1.412   .     S
C223   C355    1.541   1_565 S
C224   C225    1.394   .     S
C224   H235    1.083   .     S
C225   C226    1.403   .     D
C225   H236    1.078   .     S
C226   C227    1.395   .     S
C227   C228    1.395   .     D
C227   H237    1.081   .     S
C228   H238    1.082   .     S
C229   C230    1.468   1_554 S
C229   H239    1.080   .     S
C230   C229    1.468   1_556 S
C230   C231    1.400   .     S
C231   C232    1.392   .     D
C231   H240    1.082   1_556 S
C232   C233    1.404   .     S
C232   H241    1.081   .     S
C233   C234    1.407   .     D
C234   H242    1.082   .     S
H240   C231    1.082   1_554 S
N243   C248    1.433   .     S
N243   C251    1.300   .     D
N244   C252    1.360   .     S
N244   C256    1.360   .     D
C245   C246    1.411   .     S
C245   C250    1.412   1_655 D
C245   C356    1.541   1_655 S
C246   C247    1.394   1_554 D
C246   H257    1.083   .     S
C247   C246    1.394   1_556 D
C247   C248    1.403   .     S
C247   H258    1.078   .     S
C248   C249    1.395   1_655 D
C249   C248    1.395   1_455 D
C249   C250    1.395   1_556 S
C249   H259    1.081   .     S
C250   C245    1.412   1_455 D
C250   C249    1.395   1_554 S
C250   H260    1.082   .     S
C251   C252    1.468   .     S
C251   H261    1.080   .     S
C252   C253    1.400   .     D
C253   C254    1.392   .     S
C253   H262    1.082   .     S
C254   C255    1.404   .     D
C254   H263    1.081   1_655 S
C255   C256    1.407   .     S
C256   H264    1.082   .     S
H263   C254    1.081   1_455 S
N265   C270    1.433   .     S
N265   C273    1.300   .     D
N266   C274    1.360   .     D
N266   C278    1.360   .     S
C267   C268    1.411   .     D
C267   C272    1.412   1_545 S
C267   C355    1.541   .     S
C268   C269    1.394   1_556 S
C268   H279    1.083   .     S
C269   C268    1.394   1_554 S
C269   C270    1.403   .     D
C269   H280    1.078   .     S
C270   C271    1.395   1_545 S
C271   C270    1.395   1_565 S
C271   C272    1.395   1_554 D
C271   H281    1.081   .     S
C272   C271    1.395   1_556 D
C272   C267    1.412   1_565 S
C272   H282    1.082   .     S
C273   C274    1.468   .     S
C273   H283    1.080   .     S
C274   C275    1.400   .     S
C275   C276    1.392   .     D
C275   H284    1.082   .     S
C276   C277    1.404   .     S
C276   H285    1.081   1_545 S
C277   C278    1.407   .     D
C278   H286    1.082   .     S
H285   C276    1.081   1_565 S
N287   C292    1.433   .     S
N287   C295    1.300   .     D
N288   C296    1.360   .     D
N288   C300    1.360   .     S
C289   C290    1.411   .     D
C289   C294    1.412   .     S
C289   C356    1.541   1_655 S
C290   C291    1.394   .     S
C290   H301    1.083   .     S
C291   C292    1.403   .     D
C291   H302    1.078   .     S
C292   C293    1.395   .     S
C293   C294    1.395   .     D
C293   H303    1.081   .     S
C294   H304    1.082   .     S
C295   C296    1.468   1_556 S
C295   H305    1.080   .     S
C296   C295    1.468   1_554 S
C296   C297    1.400   .     S
C297   C298    1.392   .     D
C297   H306    1.082   1_554 S
C298   C299    1.404   .     S
C298   H307    1.081   .     S
C299   C300    1.407   .     D
C300   H308    1.082   .     S
H306   C297    1.082   1_556 S
N309   C314    1.433   .     S
N309   C317    1.300   .     D
N310   C318    1.360   .     D
N310   C322    1.360   .     S
C311   C312    1.411   .     D
C311   C316    1.412   1_565 S
C311   C355    1.541   1_565 S
C312   C313    1.394   1_556 S
C312   H323    1.083   .     S
C313   C312    1.394   1_554 S
C313   C314    1.403   .     D
C313   H324    1.078   .     S
C314   C315    1.395   1_565 S
C315   C314    1.395   1_545 S
C315   C316    1.395   1_554 D
C315   H325    1.081   .     S
C316   C315    1.395   1_556 D
C316   C311    1.412   1_545 S
C316   H326    1.082   .     S
C317   C318    1.468   .     S
C317   H327    1.080   .     S
C318   C319    1.400   .     S
C319   C320    1.392   .     D
C319   H328    1.082   .     S
C320   C321    1.404   .     S
C320   H329    1.081   1_565 S
C321   C322    1.407   .     D
C322   H330    1.082   .     S
H329   C320    1.081   1_545 S
N331   C336    1.433   .     S
N331   C339    1.300   .     D
N332   C340    1.360   .     D
N332   C344    1.360   .     S
C333   C334    1.411   .     D
C333   C338    1.412   .     S
C333   C356    1.541   .     S
C334   C335    1.394   .     S
C334   H345    1.083   .     S
C335   C336    1.403   .     D
C335   H346    1.078   .     S
C336   C337    1.395   .     S
C337   C338    1.395   .     D
C337   H347    1.081   .     S
C338   H348    1.082   .     S
C339   C340    1.468   1_556 S
C339   H349    1.080   .     S
C340   C339    1.468   1_554 S
C340   C341    1.400   .     S
C341   C342    1.392   .     D
C341   H350    1.082   1_554 S
C342   C343    1.404   .     S
C342   H351    1.081   .     S
C343   C344    1.407   .     D
C344   H352    1.082   .     S
H350   C341    1.082   1_556 S
C353   C3      1.541   1_455 S
C353   C47     1.541   1_545 S
C353   C91     1.541   1_554 S
C353   C135    1.541   1_444 S
C355   C223    1.541   1_545 S
C355   C311    1.541   1_545 S
C356   C289    1.541   1_455 S
C356   C245    1.541   1_455 S
