data_295
_audit_creation_date              2023-09-08
_audit_creation_method            'Materials Studio'
_symmetry_space_group_name_H-M    'P1'
_symmetry_Int_Tables_number       1
_symmetry_cell_setting            triclinic
loop_
_symmetry_equiv_pos_as_xyz
  x,y,z
_cell_length_a                    27.8660
_cell_length_b                    30.3410
_cell_length_c                    7.8410
_cell_angle_alpha                 90.0000
_cell_angle_beta                  90.0000
_cell_angle_gamma                 90.0000
loop_
_atom_site_label
_atom_site_type_symbol
_atom_site_fract_x
_atom_site_fract_y
_atom_site_fract_z
_atom_site_U_iso_or_equiv
_atom_site_adp_type
_atom_site_occupancy
C1     C     0.43636   0.21018   0.78144   0.00000  Uiso   1.00
H2     H     0.45151   0.17880   0.74532   0.00000  Uiso   1.00
C3     C     0.39595   0.21024   0.88643   0.00000  Uiso   1.00
H4     H     0.38142   0.17946   0.93328   0.00000  Uiso   1.00
C5     C     0.54336   0.30823   0.41488   0.00000  Uiso   1.00
H6     H     0.57753   0.29453   0.45206   0.00000  Uiso   1.00
C7     C     0.54330   0.34507   0.30852   0.00000  Uiso   1.00
H8     H     0.57682   0.35858   0.26248   0.00000  Uiso   1.00
C9     C     0.30629   0.21030   0.43985   0.00000  Uiso   1.00
H10    H     0.31758   0.17935   0.38382   0.00000  Uiso   1.00
C11    C     0.27867   0.21014   0.58833   0.00000  Uiso   1.00
H12    H     0.26951   0.17821   0.63794   0.00000  Uiso   1.00
C13    C     0.54324   0.43637   0.77484   0.00000  Uiso   1.00
H14    H     0.57694   0.42427   0.82544   0.00000  Uiso   1.00
C15    C     0.54341   0.46708   0.64234   0.00000  Uiso   1.00
H16    H     0.57818   0.47722   0.59789   0.00000  Uiso   1.00
C17    C     0.93636   0.71018   0.28144   0.00000  Uiso   1.00
H18    H     0.95151   0.67880   0.24532   0.00000  Uiso   1.00
C19    C     0.89595   0.71024   0.38643   0.00000  Uiso   1.00
H20    H     0.88142   0.67946   0.43328   0.00000  Uiso   1.00
C21    C     0.04336   0.80823   0.91488   0.00000  Uiso   1.00
H22    H     0.07753   0.79453   0.95206   0.00000  Uiso   1.00
C23    C     0.04330   0.84507   0.80852   0.00000  Uiso   1.00
H24    H     0.07682   0.85858   0.76248   0.00000  Uiso   1.00
C25    C     0.80629   0.71030   0.93985   0.00000  Uiso   1.00
H26    H     0.81758   0.67935   0.88382   0.00000  Uiso   1.00
C27    C     0.77867   0.71014   0.08833   0.00000  Uiso   1.00
H28    H     0.76951   0.67821   0.13794   0.00000  Uiso   1.00
C29    C     0.04324   0.93637   0.27484   0.00000  Uiso   1.00
H30    H     0.07694   0.92427   0.32544   0.00000  Uiso   1.00
C31    C     0.04341   0.96708   0.14234   0.00000  Uiso   1.00
H32    H     0.07818   0.97722   0.09789   0.00000  Uiso   1.00
C33    C     0.56364   0.28982   0.78144   0.00000  Uiso   1.00
H34    H     0.54849   0.32120   0.74532   0.00000  Uiso   1.00
C35    C     0.60405   0.28976   0.88643   0.00000  Uiso   1.00
H36    H     0.61858   0.32054   0.93328   0.00000  Uiso   1.00
C37    C     0.45664   0.19177   0.41488   0.00000  Uiso   1.00
H38    H     0.42247   0.20547   0.45206   0.00000  Uiso   1.00
C39    C     0.45670   0.15493   0.30852   0.00000  Uiso   1.00
H40    H     0.42318   0.14142   0.26248   0.00000  Uiso   1.00
C41    C     0.69371   0.28970   0.43985   0.00000  Uiso   1.00
H42    H     0.68242   0.32065   0.38382   0.00000  Uiso   1.00
C43    C     0.72133   0.28986   0.58833   0.00000  Uiso   1.00
H44    H     0.73049   0.32179   0.63794   0.00000  Uiso   1.00
C45    C     0.45676   0.06363   0.77484   0.00000  Uiso   1.00
H46    H     0.42306   0.07573   0.82544   0.00000  Uiso   1.00
C47    C     0.45659   0.03292   0.64234   0.00000  Uiso   1.00
H48    H     0.42182   0.02278   0.59789   0.00000  Uiso   1.00
C49    C     0.06364   0.78982   0.28144   0.00000  Uiso   1.00
H50    H     0.04849   0.82120   0.24532   0.00000  Uiso   1.00
C51    C     0.10405   0.78976   0.38643   0.00000  Uiso   1.00
H52    H     0.11858   0.82054   0.43328   0.00000  Uiso   1.00
C53    C     0.95664   0.69177   0.91488   0.00000  Uiso   1.00
H54    H     0.92247   0.70547   0.95206   0.00000  Uiso   1.00
C55    C     0.95670   0.65493   0.80852   0.00000  Uiso   1.00
H56    H     0.92318   0.64142   0.76248   0.00000  Uiso   1.00
C57    C     0.19371   0.78970   0.93985   0.00000  Uiso   1.00
H58    H     0.18242   0.82065   0.88382   0.00000  Uiso   1.00
C59    C     0.22133   0.78986   0.08833   0.00000  Uiso   1.00
H60    H     0.23049   0.82179   0.13794   0.00000  Uiso   1.00
C61    C     0.95676   0.56363   0.27484   0.00000  Uiso   1.00
H62    H     0.92306   0.57573   0.32544   0.00000  Uiso   1.00
C63    C     0.95659   0.53292   0.14234   0.00000  Uiso   1.00
H64    H     0.92182   0.52278   0.09789   0.00000  Uiso   1.00
C65    C     0.56364   0.71018   0.21856   0.00000  Uiso   1.00
H66    H     0.54849   0.67880   0.25468   0.00000  Uiso   1.00
C67    C     0.60405   0.71024   0.11357   0.00000  Uiso   1.00
H68    H     0.61858   0.67946   0.06672   0.00000  Uiso   1.00
C69    C     0.45664   0.80823   0.58512   0.00000  Uiso   1.00
H70    H     0.42247   0.79453   0.54794   0.00000  Uiso   1.00
C71    C     0.45670   0.84507   0.69148   0.00000  Uiso   1.00
H72    H     0.42318   0.85858   0.73752   0.00000  Uiso   1.00
C73    C     0.69371   0.71030   0.56015   0.00000  Uiso   1.00
H74    H     0.68242   0.67935   0.61618   0.00000  Uiso   1.00
C75    C     0.72133   0.71014   0.41167   0.00000  Uiso   1.00
H76    H     0.73049   0.67821   0.36206   0.00000  Uiso   1.00
C77    C     0.45676   0.93637   0.22516   0.00000  Uiso   1.00
H78    H     0.42306   0.92427   0.17456   0.00000  Uiso   1.00
C79    C     0.45659   0.96708   0.35766   0.00000  Uiso   1.00
H80    H     0.42182   0.97722   0.40211   0.00000  Uiso   1.00
C81    C     0.06364   0.21018   0.71856   0.00000  Uiso   1.00
H82    H     0.04849   0.17880   0.75468   0.00000  Uiso   1.00
C83    C     0.10405   0.21024   0.61357   0.00000  Uiso   1.00
H84    H     0.11858   0.17946   0.56672   0.00000  Uiso   1.00
C85    C     0.95664   0.30823   0.08512   0.00000  Uiso   1.00
H86    H     0.92247   0.29453   0.04794   0.00000  Uiso   1.00
C87    C     0.95670   0.34507   0.19148   0.00000  Uiso   1.00
H88    H     0.92318   0.35858   0.23752   0.00000  Uiso   1.00
C89    C     0.19371   0.21030   0.06015   0.00000  Uiso   1.00
H90    H     0.18242   0.17935   0.11618   0.00000  Uiso   1.00
C91    C     0.22133   0.21014   0.91167   0.00000  Uiso   1.00
H92    H     0.23049   0.17821   0.86206   0.00000  Uiso   1.00
C93    C     0.95676   0.43637   0.72516   0.00000  Uiso   1.00
H94    H     0.92306   0.42427   0.67456   0.00000  Uiso   1.00
C95    C     0.95659   0.46708   0.85766   0.00000  Uiso   1.00
H96    H     0.92182   0.47722   0.90211   0.00000  Uiso   1.00
C97    C     0.43636   0.78982   0.21856   0.00000  Uiso   1.00
H98    H     0.45151   0.82120   0.25468   0.00000  Uiso   1.00
C99    C     0.39595   0.78976   0.11357   0.00000  Uiso   1.00
H100   H     0.38142   0.82054   0.06672   0.00000  Uiso   1.00
C101   C     0.54336   0.69177   0.58512   0.00000  Uiso   1.00
H102   H     0.57753   0.70547   0.54794   0.00000  Uiso   1.00
C103   C     0.54330   0.65493   0.69148   0.00000  Uiso   1.00
H104   H     0.57682   0.64142   0.73752   0.00000  Uiso   1.00
C105   C     0.30629   0.78970   0.56015   0.00000  Uiso   1.00
H106   H     0.31758   0.82065   0.61618   0.00000  Uiso   1.00
C107   C     0.27867   0.78986   0.41167   0.00000  Uiso   1.00
H108   H     0.26951   0.82179   0.36206   0.00000  Uiso   1.00
C109   C     0.54324   0.56363   0.22516   0.00000  Uiso   1.00
H110   H     0.57694   0.57573   0.17456   0.00000  Uiso   1.00
C111   C     0.54341   0.53292   0.35766   0.00000  Uiso   1.00
H112   H     0.57818   0.52278   0.40211   0.00000  Uiso   1.00
C113   C     0.93636   0.28982   0.71856   0.00000  Uiso   1.00
H114   H     0.95151   0.32120   0.75468   0.00000  Uiso   1.00
C115   C     0.89595   0.28976   0.61357   0.00000  Uiso   1.00
H116   H     0.88142   0.32054   0.56672   0.00000  Uiso   1.00
C117   C     0.04336   0.19177   0.08512   0.00000  Uiso   1.00
H118   H     0.07753   0.20547   0.04794   0.00000  Uiso   1.00
C119   C     0.04330   0.15493   0.19148   0.00000  Uiso   1.00
H120   H     0.07682   0.14142   0.23752   0.00000  Uiso   1.00
C121   C     0.80629   0.28970   0.06015   0.00000  Uiso   1.00
H122   H     0.81758   0.32065   0.11618   0.00000  Uiso   1.00
C123   C     0.77867   0.28986   0.91167   0.00000  Uiso   1.00
H124   H     0.76951   0.32179   0.86206   0.00000  Uiso   1.00
C125   C     0.04324   0.06363   0.72516   0.00000  Uiso   1.00
H126   H     0.07694   0.07573   0.67456   0.00000  Uiso   1.00
C127   C     0.04341   0.03292   0.85766   0.00000  Uiso   1.00
H128   H     0.07818   0.02278   0.90211   0.00000  Uiso   1.00
C129   C     0.56364   0.78982   0.21856   0.00000  Uiso   1.00
H130   H     0.54849   0.82120   0.25468   0.00000  Uiso   1.00
C131   C     0.60405   0.78976   0.11357   0.00000  Uiso   1.00
H132   H     0.61858   0.82054   0.06672   0.00000  Uiso   1.00
C133   C     0.45664   0.69177   0.58512   0.00000  Uiso   1.00
H134   H     0.42247   0.70547   0.54794   0.00000  Uiso   1.00
C135   C     0.45670   0.65493   0.69148   0.00000  Uiso   1.00
H136   H     0.42318   0.64142   0.73752   0.00000  Uiso   1.00
C137   C     0.69371   0.78970   0.56015   0.00000  Uiso   1.00
H138   H     0.68242   0.82065   0.61618   0.00000  Uiso   1.00
C139   C     0.72133   0.78986   0.41167   0.00000  Uiso   1.00
H140   H     0.73049   0.82179   0.36206   0.00000  Uiso   1.00
C141   C     0.45676   0.56363   0.22516   0.00000  Uiso   1.00
H142   H     0.42306   0.57573   0.17456   0.00000  Uiso   1.00
C143   C     0.45659   0.53292   0.35766   0.00000  Uiso   1.00
H144   H     0.42182   0.52278   0.40211   0.00000  Uiso   1.00
C145   C     0.06364   0.28982   0.71856   0.00000  Uiso   1.00
H146   H     0.04849   0.32120   0.75468   0.00000  Uiso   1.00
C147   C     0.10405   0.28976   0.61357   0.00000  Uiso   1.00
H148   H     0.11858   0.32054   0.56672   0.00000  Uiso   1.00
C149   C     0.95664   0.19177   0.08512   0.00000  Uiso   1.00
H150   H     0.92247   0.20547   0.04794   0.00000  Uiso   1.00
C151   C     0.95670   0.15493   0.19148   0.00000  Uiso   1.00
H152   H     0.92318   0.14142   0.23752   0.00000  Uiso   1.00
C153   C     0.19371   0.28970   0.06015   0.00000  Uiso   1.00
H154   H     0.18242   0.32065   0.11618   0.00000  Uiso   1.00
C155   C     0.22133   0.28986   0.91167   0.00000  Uiso   1.00
H156   H     0.23049   0.32179   0.86206   0.00000  Uiso   1.00
C157   C     0.95676   0.06363   0.72516   0.00000  Uiso   1.00
H158   H     0.92306   0.07573   0.67456   0.00000  Uiso   1.00
C159   C     0.95659   0.03292   0.85766   0.00000  Uiso   1.00
H160   H     0.92182   0.02278   0.90211   0.00000  Uiso   1.00
C161   C     0.43636   0.71018   0.21856   0.00000  Uiso   1.00
H162   H     0.45151   0.67880   0.25468   0.00000  Uiso   1.00
C163   C     0.39595   0.71024   0.11357   0.00000  Uiso   1.00
H164   H     0.38142   0.67946   0.06672   0.00000  Uiso   1.00
C165   C     0.54336   0.80823   0.58512   0.00000  Uiso   1.00
H166   H     0.57753   0.79453   0.54794   0.00000  Uiso   1.00
C167   C     0.54330   0.84507   0.69148   0.00000  Uiso   1.00
H168   H     0.57682   0.85858   0.73752   0.00000  Uiso   1.00
C169   C     0.30629   0.71030   0.56015   0.00000  Uiso   1.00
H170   H     0.31758   0.67935   0.61618   0.00000  Uiso   1.00
C171   C     0.27867   0.71014   0.41167   0.00000  Uiso   1.00
H172   H     0.26951   0.67821   0.36206   0.00000  Uiso   1.00
C173   C     0.54324   0.93637   0.22516   0.00000  Uiso   1.00
H174   H     0.57694   0.92427   0.17456   0.00000  Uiso   1.00
C175   C     0.54341   0.96708   0.35766   0.00000  Uiso   1.00
H176   H     0.57818   0.97722   0.40211   0.00000  Uiso   1.00
C177   C     0.93636   0.21018   0.71856   0.00000  Uiso   1.00
H178   H     0.95151   0.17880   0.75468   0.00000  Uiso   1.00
C179   C     0.89595   0.21024   0.61357   0.00000  Uiso   1.00
H180   H     0.88142   0.17946   0.56672   0.00000  Uiso   1.00
C181   C     0.04336   0.30823   0.08512   0.00000  Uiso   1.00
H182   H     0.07753   0.29453   0.04794   0.00000  Uiso   1.00
C183   C     0.04330   0.34507   0.19148   0.00000  Uiso   1.00
H184   H     0.07682   0.35858   0.23752   0.00000  Uiso   1.00
C185   C     0.80629   0.21030   0.06015   0.00000  Uiso   1.00
H186   H     0.81758   0.17935   0.11618   0.00000  Uiso   1.00
C187   C     0.77867   0.21014   0.91167   0.00000  Uiso   1.00
H188   H     0.76951   0.17821   0.86206   0.00000  Uiso   1.00
C189   C     0.04324   0.43637   0.72516   0.00000  Uiso   1.00
H190   H     0.07694   0.42427   0.67456   0.00000  Uiso   1.00
C191   C     0.04341   0.46708   0.85766   0.00000  Uiso   1.00
H192   H     0.07818   0.47722   0.90211   0.00000  Uiso   1.00
C193   C     0.43636   0.28982   0.78144   0.00000  Uiso   1.00
H194   H     0.45151   0.32120   0.74532   0.00000  Uiso   1.00
C195   C     0.39595   0.28976   0.88643   0.00000  Uiso   1.00
H196   H     0.38142   0.32054   0.93328   0.00000  Uiso   1.00
C197   C     0.54336   0.19177   0.41488   0.00000  Uiso   1.00
H198   H     0.57753   0.20547   0.45206   0.00000  Uiso   1.00
C199   C     0.54330   0.15493   0.30852   0.00000  Uiso   1.00
H200   H     0.57682   0.14142   0.26248   0.00000  Uiso   1.00
C201   C     0.30629   0.28970   0.43985   0.00000  Uiso   1.00
H202   H     0.31758   0.32065   0.38382   0.00000  Uiso   1.00
C203   C     0.27867   0.28986   0.58833   0.00000  Uiso   1.00
H204   H     0.26951   0.32179   0.63794   0.00000  Uiso   1.00
C205   C     0.54324   0.06363   0.77484   0.00000  Uiso   1.00
H206   H     0.57694   0.07573   0.82544   0.00000  Uiso   1.00
C207   C     0.54341   0.03292   0.64234   0.00000  Uiso   1.00
H208   H     0.57818   0.02278   0.59789   0.00000  Uiso   1.00
C209   C     0.93636   0.78982   0.28144   0.00000  Uiso   1.00
H210   H     0.95151   0.82120   0.24532   0.00000  Uiso   1.00
C211   C     0.89595   0.78976   0.38643   0.00000  Uiso   1.00
H212   H     0.88142   0.82054   0.43328   0.00000  Uiso   1.00
C213   C     0.04336   0.69177   0.91488   0.00000  Uiso   1.00
H214   H     0.07753   0.70547   0.95206   0.00000  Uiso   1.00
C215   C     0.04330   0.65493   0.80852   0.00000  Uiso   1.00
H216   H     0.07682   0.64142   0.76248   0.00000  Uiso   1.00
C217   C     0.80629   0.78970   0.93985   0.00000  Uiso   1.00
H218   H     0.81758   0.82065   0.88382   0.00000  Uiso   1.00
C219   C     0.77867   0.78986   0.08833   0.00000  Uiso   1.00
H220   H     0.76951   0.82179   0.13794   0.00000  Uiso   1.00
C221   C     0.04324   0.56363   0.27484   0.00000  Uiso   1.00
H222   H     0.07694   0.57573   0.32544   0.00000  Uiso   1.00
C223   C     0.04341   0.53292   0.14234   0.00000  Uiso   1.00
H224   H     0.07818   0.52278   0.09789   0.00000  Uiso   1.00
C225   C     0.56364   0.21018   0.78144   0.00000  Uiso   1.00
H226   H     0.54849   0.17880   0.74532   0.00000  Uiso   1.00
C227   C     0.60405   0.21024   0.88643   0.00000  Uiso   1.00
H228   H     0.61858   0.17946   0.93328   0.00000  Uiso   1.00
C229   C     0.45664   0.30823   0.41488   0.00000  Uiso   1.00
H230   H     0.42247   0.29453   0.45206   0.00000  Uiso   1.00
C231   C     0.45670   0.34507   0.30852   0.00000  Uiso   1.00
H232   H     0.42318   0.35858   0.26248   0.00000  Uiso   1.00
C233   C     0.69371   0.21030   0.43985   0.00000  Uiso   1.00
H234   H     0.68242   0.17935   0.38382   0.00000  Uiso   1.00
C235   C     0.72133   0.21014   0.58833   0.00000  Uiso   1.00
H236   H     0.73049   0.17821   0.63794   0.00000  Uiso   1.00
C237   C     0.45676   0.43637   0.77484   0.00000  Uiso   1.00
H238   H     0.42306   0.42427   0.82544   0.00000  Uiso   1.00
C239   C     0.45659   0.46708   0.64234   0.00000  Uiso   1.00
H240   H     0.42182   0.47722   0.59789   0.00000  Uiso   1.00
C241   C     0.06364   0.71018   0.28144   0.00000  Uiso   1.00
H242   H     0.04849   0.67880   0.24532   0.00000  Uiso   1.00
C243   C     0.10405   0.71024   0.38643   0.00000  Uiso   1.00
H244   H     0.11858   0.67946   0.43328   0.00000  Uiso   1.00
C245   C     0.95664   0.80823   0.91488   0.00000  Uiso   1.00
H246   H     0.92247   0.79453   0.95206   0.00000  Uiso   1.00
C247   C     0.95670   0.84507   0.80852   0.00000  Uiso   1.00
H248   H     0.92318   0.85858   0.76248   0.00000  Uiso   1.00
C249   C     0.19371   0.71030   0.93985   0.00000  Uiso   1.00
H250   H     0.18242   0.67935   0.88382   0.00000  Uiso   1.00
C251   C     0.22133   0.71014   0.08833   0.00000  Uiso   1.00
H252   H     0.23049   0.67821   0.13794   0.00000  Uiso   1.00
C253   C     0.95676   0.93637   0.27484   0.00000  Uiso   1.00
H254   H     0.92306   0.92427   0.32544   0.00000  Uiso   1.00
C255   C     0.95659   0.96708   0.14234   0.00000  Uiso   1.00
H256   H     0.92182   0.97722   0.09789   0.00000  Uiso   1.00
N257   N     0.33976   0.25000   0.06753   0.00000  Uiso   1.00
C258   C     0.45612   0.25000   0.71982   0.00000  Uiso   1.00
C259   C     0.37535   0.25000   0.93728   0.00000  Uiso   1.00
C260   C     0.35399   0.25000   0.22442   0.00000  Uiso   1.00
H261   H     0.39187   0.25000   0.25280   0.00000  Uiso   1.00
C262   C     0.32013   0.25000   0.36575   0.00000  Uiso   1.00
C263   C     0.26444   0.25000   0.66819   0.00000  Uiso   1.00
N264   N     0.83976   0.75000   0.56753   0.00000  Uiso   1.00
C265   C     0.95612   0.75000   0.21982   0.00000  Uiso   1.00
C266   C     0.87535   0.75000   0.43728   0.00000  Uiso   1.00
C267   C     0.85399   0.75000   0.72442   0.00000  Uiso   1.00
H268   H     0.89187   0.75000   0.75280   0.00000  Uiso   1.00
C269   C     0.82013   0.75000   0.86575   0.00000  Uiso   1.00
C270   C     0.76444   0.75000   0.16819   0.00000  Uiso   1.00
N271   N     0.66024   0.25000   0.06753   0.00000  Uiso   1.00
C272   C     0.54388   0.25000   0.71982   0.00000  Uiso   1.00
C273   C     0.62465   0.25000   0.93728   0.00000  Uiso   1.00
C274   C     0.64601   0.25000   0.22442   0.00000  Uiso   1.00
H275   H     0.60813   0.25000   0.25280   0.00000  Uiso   1.00
C276   C     0.67987   0.25000   0.36575   0.00000  Uiso   1.00
C277   C     0.73556   0.25000   0.66819   0.00000  Uiso   1.00
N278   N     0.16024   0.75000   0.56753   0.00000  Uiso   1.00
C279   C     0.04388   0.75000   0.21982   0.00000  Uiso   1.00
C280   C     0.12465   0.75000   0.43728   0.00000  Uiso   1.00
C281   C     0.14601   0.75000   0.72442   0.00000  Uiso   1.00
H282   H     0.10813   0.75000   0.75280   0.00000  Uiso   1.00
C283   C     0.17987   0.75000   0.86575   0.00000  Uiso   1.00
C284   C     0.23556   0.75000   0.16819   0.00000  Uiso   1.00
N285   N     0.66024   0.75000   0.93247   0.00000  Uiso   1.00
C286   C     0.54388   0.75000   0.28018   0.00000  Uiso   1.00
C287   C     0.62465   0.75000   0.06272   0.00000  Uiso   1.00
C288   C     0.64601   0.75000   0.77558   0.00000  Uiso   1.00
H289   H     0.60813   0.75000   0.74720   0.00000  Uiso   1.00
C290   C     0.67987   0.75000   0.63425   0.00000  Uiso   1.00
C291   C     0.73556   0.75000   0.33181   0.00000  Uiso   1.00
N292   N     0.16024   0.25000   0.43247   0.00000  Uiso   1.00
C293   C     0.04388   0.25000   0.78018   0.00000  Uiso   1.00
C294   C     0.12465   0.25000   0.56272   0.00000  Uiso   1.00
C295   C     0.14601   0.25000   0.27558   0.00000  Uiso   1.00
H296   H     0.10813   0.25000   0.24720   0.00000  Uiso   1.00
C297   C     0.17987   0.25000   0.13425   0.00000  Uiso   1.00
C298   C     0.23556   0.25000   0.83181   0.00000  Uiso   1.00
N299   N     0.33976   0.75000   0.93247   0.00000  Uiso   1.00
C300   C     0.45612   0.75000   0.28018   0.00000  Uiso   1.00
C301   C     0.37535   0.75000   0.06272   0.00000  Uiso   1.00
C302   C     0.35399   0.75000   0.77558   0.00000  Uiso   1.00
H303   H     0.39187   0.75000   0.74720   0.00000  Uiso   1.00
C304   C     0.32013   0.75000   0.63425   0.00000  Uiso   1.00
C305   C     0.26444   0.75000   0.33181   0.00000  Uiso   1.00
N306   N     0.83976   0.25000   0.43247   0.00000  Uiso   1.00
C307   C     0.95612   0.25000   0.78018   0.00000  Uiso   1.00
C308   C     0.87535   0.25000   0.56272   0.00000  Uiso   1.00
C309   C     0.85399   0.25000   0.27558   0.00000  Uiso   1.00
H310   H     0.89187   0.25000   0.24720   0.00000  Uiso   1.00
C311   C     0.82013   0.25000   0.13425   0.00000  Uiso   1.00
C312   C     0.76444   0.25000   0.83181   0.00000  Uiso   1.00
N313   N     0.50000   0.39806   0.13319   0.00000  Uiso   1.00
C314   C     0.50000   0.29021   0.47703   0.00000  Uiso   1.00
C315   C     0.50000   0.36388   0.25741   0.00000  Uiso   1.00
C316   C     0.50000   0.38750   0.97350   0.00000  Uiso   1.00
H317   H     0.50000   0.35330   0.93618   0.00000  Uiso   1.00
C318   C     0.50000   0.42122   0.84156   0.00000  Uiso   1.00
C319   C     0.50000   0.48338   0.57201   0.00000  Uiso   1.00
N320   N     0.00000   0.89806   0.63319   0.00000  Uiso   1.00
C321   C     0.00000   0.79021   0.97703   0.00000  Uiso   1.00
C322   C     0.00000   0.86388   0.75741   0.00000  Uiso   1.00
C323   C     0.00000   0.88750   0.47350   0.00000  Uiso   1.00
H324   H     0.00000   0.85330   0.43618   0.00000  Uiso   1.00
C325   C     0.00000   0.92122   0.34156   0.00000  Uiso   1.00
C326   C     0.00000   0.98338   0.07201   0.00000  Uiso   1.00
N327   N     0.50000   0.10194   0.13319   0.00000  Uiso   1.00
C328   C     0.50000   0.20979   0.47703   0.00000  Uiso   1.00
C329   C     0.50000   0.13612   0.25741   0.00000  Uiso   1.00
C330   C     0.50000   0.11250   0.97350   0.00000  Uiso   1.00
H331   H     0.50000   0.14670   0.93618   0.00000  Uiso   1.00
C332   C     0.50000   0.07878   0.84156   0.00000  Uiso   1.00
C333   C     0.50000   0.01662   0.57201   0.00000  Uiso   1.00
N334   N     0.00000   0.60194   0.63319   0.00000  Uiso   1.00
C335   C     0.00000   0.70979   0.97703   0.00000  Uiso   1.00
C336   C     0.00000   0.63612   0.75741   0.00000  Uiso   1.00
C337   C     0.00000   0.61250   0.47350   0.00000  Uiso   1.00
H338   H     0.00000   0.64670   0.43618   0.00000  Uiso   1.00
C339   C     0.00000   0.57878   0.34156   0.00000  Uiso   1.00
C340   C     0.00000   0.51662   0.07201   0.00000  Uiso   1.00
N341   N     0.50000   0.89806   0.86681   0.00000  Uiso   1.00
C342   C     0.50000   0.79021   0.52297   0.00000  Uiso   1.00
C343   C     0.50000   0.86388   0.74259   0.00000  Uiso   1.00
C344   C     0.50000   0.88750   0.02650   0.00000  Uiso   1.00
H345   H     0.50000   0.85330   0.06382   0.00000  Uiso   1.00
C346   C     0.50000   0.92122   0.15844   0.00000  Uiso   1.00
C347   C     0.50000   0.98338   0.42799   0.00000  Uiso   1.00
N348   N     0.00000   0.39806   0.36681   0.00000  Uiso   1.00
C349   C     0.00000   0.29021   0.02297   0.00000  Uiso   1.00
C350   C     0.00000   0.36388   0.24259   0.00000  Uiso   1.00
C351   C     0.00000   0.38750   0.52650   0.00000  Uiso   1.00
H352   H     0.00000   0.35330   0.56382   0.00000  Uiso   1.00
C353   C     0.00000   0.42122   0.65844   0.00000  Uiso   1.00
C354   C     0.00000   0.48338   0.92799   0.00000  Uiso   1.00
N355   N     0.50000   0.60194   0.86681   0.00000  Uiso   1.00
C356   C     0.50000   0.70979   0.52297   0.00000  Uiso   1.00
C357   C     0.50000   0.63612   0.74259   0.00000  Uiso   1.00
C358   C     0.50000   0.61250   0.02650   0.00000  Uiso   1.00
H359   H     0.50000   0.64670   0.06382   0.00000  Uiso   1.00
C360   C     0.50000   0.57878   0.15844   0.00000  Uiso   1.00
C361   C     0.50000   0.51662   0.42799   0.00000  Uiso   1.00
N362   N     0.00000   0.10194   0.36681   0.00000  Uiso   1.00
C363   C     0.00000   0.20979   0.02297   0.00000  Uiso   1.00
C364   C     0.00000   0.13612   0.24259   0.00000  Uiso   1.00
C365   C     0.00000   0.11250   0.52650   0.00000  Uiso   1.00
H366   H     0.00000   0.14670   0.56382   0.00000  Uiso   1.00
C367   C     0.00000   0.07878   0.65844   0.00000  Uiso   1.00
C368   C     0.00000   0.01662   0.92799   0.00000  Uiso   1.00
C369   C     0.50000   0.25000   0.59859   0.00000  Uiso   1.00
C370   C     0.00000   0.75000   0.09859   0.00000  Uiso   1.00
C371   C     0.50000   0.75000   0.40141   0.00000  Uiso   1.00
C372   C     0.00000   0.25000   0.90141   0.00000  Uiso   1.00
loop_
_geom_bond_atom_site_label_1
_geom_bond_atom_site_label_2
_geom_bond_distance
_geom_bond_site_symmetry_2
_ccdc_geom_bond_type
C1     H2      1.079   .     S
C1     C3      1.395   .     S
C1     C258    1.413   .     D
C3     H4      1.082   .     S
C3     C259    1.394   .     D
C5     H6      1.079   .     S
C5     C7      1.395   .     D
C5     C314    1.413   .     S
C7     H8      1.082   .     S
C7     C315    1.394   .     S
C9     H10     1.083   .     S
C9     C11     1.396   .     S
C9     C262    1.392   .     D
C11    H12     1.075   .     S
C11    C263    1.418   .     D
C13    H14     1.084   .     S
C13    C15     1.396   .     D
C13    C318    1.392   .     S
C15    H16     1.075   .     S
C15    C319    1.418   .     S
C17    H18     1.079   .     S
C17    C19     1.395   .     S
C17    C265    1.413   .     D
C19    H20     1.082   .     S
C19    C266    1.394   .     D
C21    H22     1.079   .     S
C21    C23     1.395   .     D
C21    C321    1.413   .     S
C23    H24     1.082   .     S
C23    C322    1.394   .     S
C25    H26     1.083   .     S
C25    C27     1.396   1_556 S
C25    C269    1.392   .     D
C27    C25     1.396   1_554 S
C27    H28     1.075   .     S
C27    C270    1.418   .     D
C29    H30     1.084   .     S
C29    C31     1.396   .     D
C29    C325    1.392   .     S
C31    H32     1.075   .     S
C31    C326    1.418   .     S
C33    H34     1.079   .     S
C33    C35     1.395   .     D
C33    C272    1.413   .     S
C35    H36     1.082   .     S
C35    C273    1.394   .     S
C37    H38     1.079   .     S
C37    C39     1.395   .     S
C37    C328    1.413   .     D
C39    H40     1.082   .     S
C39    C329    1.394   .     D
C41    H42     1.083   .     S
C41    C43     1.396   .     D
C41    C276    1.392   .     S
C43    H44     1.075   .     S
C43    C277    1.418   .     S
C45    H46     1.084   .     S
C45    C47     1.396   .     S
C45    C332    1.392   .     D
C47    H48     1.075   .     S
C47    C333    1.418   .     D
C49    H50     1.079   .     S
C49    C51     1.395   .     D
C49    C279    1.413   .     S
C51    H52     1.082   .     S
C51    C280    1.394   .     S
C53    H54     1.079   .     S
C53    C55     1.395   .     S
C53    C335    1.413   1_655 D
C55    H56     1.082   .     S
C55    C336    1.394   1_655 D
C57    H58     1.083   .     S
C57    C59     1.396   1_556 D
C57    C283    1.392   .     S
C59    C57     1.396   1_554 D
C59    H60     1.075   .     S
C59    C284    1.418   .     S
C61    H62     1.084   .     S
C61    C63     1.396   .     S
C61    C339    1.392   1_655 D
C63    H64     1.075   .     S
C63    C340    1.418   1_655 D
C65    H66     1.079   .     S
C65    C67     1.395   .     S
C65    C286    1.413   .     D
C67    H68     1.082   .     S
C67    C287    1.394   .     D
C69    H70     1.079   .     S
C69    C71     1.395   .     S
C69    C342    1.413   .     D
C71    H72     1.082   .     S
C71    C343    1.394   .     D
C73    H74     1.083   .     S
C73    C75     1.396   .     S
C73    C290    1.392   .     D
C75    H76     1.075   .     S
C75    C291    1.418   .     D
C77    H78     1.084   .     S
C77    C79     1.396   .     S
C77    C346    1.392   .     D
C79    H80     1.075   .     S
C79    C347    1.418   .     D
C81    H82     1.079   .     S
C81    C83     1.395   .     S
C81    C293    1.413   .     D
C83    H84     1.082   .     S
C83    C294    1.394   .     D
C85    H86     1.079   .     S
C85    C87     1.395   .     S
C85    C349    1.413   1_655 D
C87    H88     1.082   .     S
C87    C350    1.394   1_655 D
C89    H90     1.083   .     S
C89    C91     1.396   1_554 S
C89    C297    1.392   .     D
C91    C89     1.396   1_556 S
C91    H92     1.075   .     S
C91    C298    1.418   .     D
C93    H94     1.084   .     S
C93    C95     1.396   .     S
C93    C353    1.392   1_655 D
C95    H96     1.075   .     S
C95    C354    1.418   1_655 D
C97    H98     1.079   .     S
C97    C99     1.395   .     D
C97    C300    1.413   .     S
C99    H100    1.082   .     S
C99    C301    1.394   .     S
C101   H102    1.079   .     S
C101   C103    1.395   .     D
C101   C356    1.413   .     S
C103   H104    1.082   .     S
C103   C357    1.394   .     S
C105   H106    1.083   .     S
C105   C107    1.396   .     D
C105   C304    1.392   .     S
C107   H108    1.075   .     S
C107   C305    1.418   .     S
C109   H110    1.084   .     S
C109   C111    1.396   .     D
C109   C360    1.392   .     S
C111   H112    1.075   .     S
C111   C361    1.418   .     S
C113   H114    1.079   .     S
C113   C115    1.395   .     D
C113   C307    1.413   .     S
C115   H116    1.082   .     S
C115   C308    1.394   .     S
C117   H118    1.079   .     S
C117   C119    1.395   .     D
C117   C363    1.413   .     S
C119   H120    1.082   .     S
C119   C364    1.394   .     S
C121   H122    1.083   .     S
C121   C123    1.396   1_554 D
C121   C311    1.392   .     S
C123   C121    1.396   1_556 D
C123   H124    1.075   .     S
C123   C312    1.418   .     S
C125   H126    1.084   .     S
C125   C127    1.396   .     D
C125   C367    1.392   .     S
C127   H128    1.075   .     S
C127   C368    1.418   .     S
C129   H130    1.079   .     S
C129   C131    1.395   .     D
C129   C286    1.413   .     S
C131   H132    1.082   .     S
C131   C287    1.394   .     S
C133   H134    1.079   .     S
C133   C135    1.395   .     S
C133   C356    1.413   .     D
C135   H136    1.082   .     S
C135   C357    1.394   .     D
C137   H138    1.083   .     S
C137   C139    1.396   .     D
C137   C290    1.392   .     S
C139   H140    1.075   .     S
C139   C291    1.418   .     S
C141   H142    1.084   .     S
C141   C143    1.396   .     S
C141   C360    1.392   .     D
C143   H144    1.075   .     S
C143   C361    1.418   .     D
C145   H146    1.079   .     S
C145   C147    1.395   .     D
C145   C293    1.413   .     S
C147   H148    1.082   .     S
C147   C294    1.394   .     S
C149   H150    1.079   .     S
C149   C151    1.395   .     S
C149   C363    1.413   1_655 D
C151   H152    1.082   .     S
C151   C364    1.394   1_655 D
C153   H154    1.083   .     S
C153   C155    1.396   1_554 D
C153   C297    1.392   .     S
C155   C153    1.396   1_556 D
C155   H156    1.075   .     S
C155   C298    1.418   .     S
C157   H158    1.084   .     S
C157   C159    1.396   .     S
C157   C367    1.392   1_655 D
C159   H160    1.075   .     S
C159   C368    1.418   1_655 D
C161   H162    1.079   .     S
C161   C163    1.395   .     S
C161   C300    1.413   .     D
C163   H164    1.082   .     S
C163   C301    1.394   .     D
C165   H166    1.079   .     S
C165   C167    1.395   .     D
C165   C342    1.413   .     S
C167   H168    1.082   .     S
C167   C343    1.394   .     S
C169   H170    1.083   .     S
C169   C171    1.396   .     S
C169   C304    1.392   .     D
C171   H172    1.075   .     S
C171   C305    1.418   .     D
C173   H174    1.084   .     S
C173   C175    1.396   .     D
C173   C346    1.392   .     S
C175   H176    1.075   .     S
C175   C347    1.418   .     S
C177   H178    1.079   .     S
C177   C179    1.395   .     S
C177   C307    1.413   .     D
C179   H180    1.082   .     S
C179   C308    1.394   .     D
C181   H182    1.079   .     S
C181   C183    1.395   .     D
C181   C349    1.413   .     S
C183   H184    1.082   .     S
C183   C350    1.394   .     S
C185   H186    1.083   .     S
C185   C187    1.396   1_554 S
C185   C311    1.392   .     D
C187   C185    1.396   1_556 S
C187   H188    1.075   .     S
C187   C312    1.418   .     D
C189   H190    1.084   .     S
C189   C191    1.396   .     D
C189   C353    1.392   .     S
C191   H192    1.075   .     S
C191   C354    1.418   .     S
C193   H194    1.079   .     S
C193   C195    1.395   .     D
C193   C258    1.413   .     S
C195   H196    1.082   .     S
C195   C259    1.394   .     S
C197   H198    1.079   .     S
C197   C199    1.395   .     D
C197   C328    1.413   .     S
C199   H200    1.082   .     S
C199   C329    1.394   .     S
C201   H202    1.083   .     S
C201   C203    1.396   .     D
C201   C262    1.392   .     S
C203   H204    1.075   .     S
C203   C263    1.418   .     S
C205   H206    1.084   .     S
C205   C207    1.396   .     D
C205   C332    1.392   .     S
C207   H208    1.075   .     S
C207   C333    1.418   .     S
C209   H210    1.079   .     S
C209   C211    1.395   .     D
C209   C265    1.413   .     S
C211   H212    1.082   .     S
C211   C266    1.394   .     S
C213   H214    1.079   .     S
C213   C215    1.395   .     D
C213   C335    1.413   .     S
C215   H216    1.082   .     S
C215   C336    1.394   .     S
C217   H218    1.083   .     S
C217   C219    1.396   1_556 D
C217   C269    1.392   .     S
C219   C217    1.396   1_554 D
C219   H220    1.075   .     S
C219   C270    1.418   .     S
C221   H222    1.084   .     S
C221   C223    1.396   .     D
C221   C339    1.392   .     S
C223   H224    1.075   .     S
C223   C340    1.418   .     S
C225   H226    1.079   .     S
C225   C227    1.395   .     S
C225   C272    1.413   .     D
C227   H228    1.082   .     S
C227   C273    1.394   .     D
C229   H230    1.079   .     S
C229   C231    1.395   .     S
C229   C314    1.413   .     D
C231   H232    1.082   .     S
C231   C315    1.394   .     D
C233   H234    1.083   .     S
C233   C235    1.396   .     S
C233   C276    1.392   .     D
C235   H236    1.075   .     S
C235   C277    1.418   .     D
C237   H238    1.084   .     S
C237   C239    1.396   .     S
C237   C318    1.392   .     D
C239   H240    1.075   .     S
C239   C319    1.418   .     D
C241   H242    1.079   .     S
C241   C243    1.395   .     S
C241   C279    1.413   .     D
C243   H244    1.082   .     S
C243   C280    1.394   .     D
C245   H246    1.079   .     S
C245   C247    1.395   .     S
C245   C321    1.413   1_655 D
C247   H248    1.082   .     S
C247   C322    1.394   1_655 D
C249   H250    1.083   .     S
C249   C251    1.396   1_556 S
C249   C283    1.392   .     D
C251   C249    1.396   1_554 S
C251   H252    1.075   .     S
C251   C284    1.418   .     D
C253   H254    1.084   .     S
C253   C255    1.396   .     S
C253   C325    1.392   1_655 D
C255   H256    1.075   .     S
C255   C326    1.418   1_655 D
N257   C259    1.424   1_554 S
N257   C260    1.293   .     D
C258   C369    1.549   .     S
C259   N257    1.424   1_556 S
C260   H261    1.079   .     S
C260   C262    1.455   .     S
C263   C298    1.514   .     S
N264   C266    1.424   .     S
N264   C267    1.293   .     D
C265   C370    1.549   1_655 S
C267   H268    1.079   .     S
C267   C269    1.455   .     S
C270   C291    1.514   .     S
N271   C273    1.424   1_554 S
N271   C274    1.293   .     D
C272   C369    1.549   .     S
C273   N271    1.424   1_556 S
C274   H275    1.079   .     S
C274   C276    1.455   .     S
C277   C312    1.514   .     S
N278   C280    1.424   .     S
N278   C281    1.293   .     D
C279   C370    1.549   .     S
C281   H282    1.079   .     S
C281   C283    1.455   .     S
C284   C305    1.514   .     S
N285   C287    1.424   1_556 S
N285   C288    1.293   .     D
C286   C371    1.549   .     S
C287   N285    1.424   1_554 S
C288   H289    1.079   .     S
C288   C290    1.455   .     S
N292   C294    1.424   .     S
N292   C295    1.293   .     D
C293   C372    1.549   .     S
C295   H296    1.079   .     S
C295   C297    1.455   .     S
N299   C301    1.424   1_556 S
N299   C302    1.293   .     D
C300   C371    1.549   .     S
C301   N299    1.424   1_554 S
C302   H303    1.079   .     S
C302   C304    1.455   .     S
N306   C308    1.424   .     S
N306   C309    1.293   .     D
C307   C372    1.549   1_655 S
C309   H310    1.079   .     S
C309   C311    1.455   .     S
N313   C315    1.423   .     S
N313   C316    1.292   1_554 D
C314   C369    1.548   .     S
C316   N313    1.292   1_556 D
C316   H317    1.078   .     S
C316   C318    1.455   .     S
C319   C361    1.514   .     S
N320   C322    1.423   .     S
N320   C323    1.292   .     D
C321   C245    1.413   1_455 D
C321   C370    1.548   1_556 S
C322   C247    1.394   1_455 D
C323   H324    1.078   .     S
C323   C325    1.455   .     S
C325   C253    1.392   1_455 D
C326   C255    1.418   1_455 D
C326   C368    1.514   1_564 S
N327   C329    1.423   .     S
N327   C330    1.292   1_554 D
C328   C369    1.548   .     S
C330   N327    1.292   1_556 D
C330   H331    1.078   .     S
C330   C332    1.455   .     S
C333   C347    1.514   1_545 S
N334   C336    1.423   .     S
N334   C337    1.292   .     D
C335   C53     1.413   1_455 D
C335   C370    1.548   1_556 S
C336   C55     1.394   1_455 D
C337   H338    1.078   .     S
C337   C339    1.455   .     S
C339   C61     1.392   1_455 D
C340   C63     1.418   1_455 D
C340   C354    1.514   1_554 S
N341   C343    1.423   .     S
N341   C344    1.292   1_556 D
C342   C371    1.548   .     S
C344   N341    1.292   1_554 D
C344   H345    1.078   .     S
C344   C346    1.455   .     S
C347   C333    1.514   1_565 S
N348   C350    1.423   .     S
N348   C351    1.292   .     D
C349   C85     1.413   1_455 D
C349   C372    1.548   1_554 S
C350   C87     1.394   1_455 D
C351   H352    1.078   .     S
C351   C353    1.455   .     S
C353   C93     1.392   1_455 D
C354   C340    1.514   1_556 S
C354   C95     1.418   1_455 D
N355   C357    1.423   .     S
N355   C358    1.292   1_556 D
C356   C371    1.548   .     S
C358   N355    1.292   1_554 D
C358   H359    1.078   .     S
C358   C360    1.455   .     S
N362   C364    1.423   .     S
N362   C365    1.292   .     D
C363   C149    1.413   1_455 D
C363   C372    1.548   1_554 S
C364   C151    1.394   1_455 D
C365   H366    1.078   .     S
C365   C367    1.455   .     S
C367   C157    1.392   1_455 D
C368   C326    1.514   1_546 S
C368   C159    1.418   1_455 D
C370   C265    1.549   1_455 S
C370   C321    1.548   1_554 S
C370   C335    1.548   1_554 S
C372   C307    1.549   1_455 S
C372   C349    1.548   1_556 S
C372   C363    1.548   1_556 S
