data_296
_audit_creation_date              2023-09-08
_audit_creation_method            'Materials Studio'
_symmetry_space_group_name_H-M    'P1'
_symmetry_Int_Tables_number       1
_symmetry_cell_setting            triclinic
loop_
_symmetry_equiv_pos_as_xyz
  x,y,z
_cell_length_a                    38.1506
_cell_length_b                    38.1506
_cell_length_c                    3.4357
_cell_angle_alpha                 90.0000
_cell_angle_beta                  90.0000
_cell_angle_gamma                 120.0000
loop_
_atom_site_label
_atom_site_type_symbol
_atom_site_fract_x
_atom_site_fract_y
_atom_site_fract_z
_atom_site_U_iso_or_equiv
_atom_site_adp_type
_atom_site_occupancy
C1     C     0.31014   0.14342   0.00000   0.00000  Uiso   1.00
C2     C     0.35239   0.16202   0.00000   0.00000  Uiso   1.00
C3     C     0.37783   0.20440   0.00000   0.00000  Uiso   1.00
C4     C     0.35706   0.22640   0.00000   0.00000  Uiso   1.00
C5     C     0.31498   0.20831   0.00000   0.00000  Uiso   1.00
C6     C     0.28892   0.16521   0.00000   0.00000  Uiso   1.00
C7     C     0.24237   0.14141   0.00000   0.00000  Uiso   1.00
C8     C     0.42386   0.22340   0.00000   0.00000  Uiso   1.00
C9     C     0.44223   0.19895   0.00000   0.00000  Uiso   1.00
C10    C     0.48420   0.21578   0.00000   0.00000  Uiso   1.00
C11    C     0.50984   0.25752   0.00000   0.00000  Uiso   1.00
C12    C     0.49268   0.28252   0.00000   0.00000  Uiso   1.00
C13    C     0.45068   0.26583   0.00000   0.00000  Uiso   1.00
C14    C     0.21819   0.15986   0.00000   0.00000  Uiso   1.00
C15    C     0.17595   0.13745   0.00000   0.00000  Uiso   1.00
C16    C     0.15552   0.09541   0.00000   0.00000  Uiso   1.00
C17    C     0.17827   0.07587   0.00000   0.00000  Uiso   1.00
C18    C     0.22053   0.09826   0.00000   0.00000  Uiso   1.00
N19    N     0.11200   0.07427   0.00000   0.00000  Uiso   1.00
N20    N     0.55277   0.27277   0.00000   0.00000  Uiso   1.00
C21    C     0.08771   0.03534   0.00000   0.00000  Uiso   1.00
C22    C     0.04347   0.01824   0.00000   0.00000  Uiso   1.00
C23    C     0.58140   0.31043   0.00000   0.00000  Uiso   1.00
C24    C     0.62428   0.32121   0.00000   0.00000  Uiso   1.00
N25    N     0.37466   0.26916   0.00000   0.00000  Uiso   1.00
C26    C     0.34504   0.27629   0.00000   0.00000  Uiso   1.00
N27    N     0.30636   0.24077   0.00000   0.00000  Uiso   1.00
C28    C     0.02615   0.04305   0.00000   0.00000  Uiso   1.00
C29    C     0.63565   0.29156   0.00000   0.00000  Uiso   1.00
H30    H     0.29533   0.11105   0.00000   0.00000  Uiso   1.00
H31    H     0.36393   0.14149   0.00000   0.00000  Uiso   1.00
H32    H     0.42530   0.16647   0.00000   0.00000  Uiso   1.00
H33    H     0.49690   0.19596   0.00000   0.00000  Uiso   1.00
H34    H     0.51115   0.31507   0.00000   0.00000  Uiso   1.00
H35    H     0.44088   0.28759   0.00000   0.00000  Uiso   1.00
H36    H     0.22994   0.19129   0.00000   0.00000  Uiso   1.00
H37    H     0.15889   0.15317   0.00000   0.00000  Uiso   1.00
H38    H     0.16405   0.04330   0.00000   0.00000  Uiso   1.00
H39    H     0.23462   0.08001   0.00000   0.00000  Uiso   1.00
H40    H     0.09914   0.01456   0.00000   0.00000  Uiso   1.00
H41    H     0.57466   0.33474   0.00000   0.00000  Uiso   1.00
H42    H     0.34946   0.30658   0.00000   0.00000  Uiso   1.00
H43    H     0.28041   0.24287   0.00000   0.00000  Uiso   1.00
H44    H     0.04520   0.07566   0.00000   0.00000  Uiso   1.00
H45    H     0.61284   0.25978   0.00000   0.00000  Uiso   1.00
C46    C     0.85658   0.16672   0.00000   0.00000  Uiso   1.00
C47    C     0.83798   0.19037   0.00000   0.00000  Uiso   1.00
C48    C     0.79560   0.17343   0.00000   0.00000  Uiso   1.00
C49    C     0.77360   0.13066   0.00000   0.00000  Uiso   1.00
C50    C     0.79169   0.10667   0.00000   0.00000  Uiso   1.00
C51    C     0.83479   0.12371   0.00000   0.00000  Uiso   1.00
C52    C     0.85859   0.10096   0.00000   0.00000  Uiso   1.00
C53    C     0.77660   0.20046   0.00000   0.00000  Uiso   1.00
C54    C     0.80105   0.24328   0.00000   0.00000  Uiso   1.00
C55    C     0.78422   0.26842   0.00000   0.00000  Uiso   1.00
C56    C     0.74248   0.25232   0.00000   0.00000  Uiso   1.00
C57    C     0.71748   0.21016   0.00000   0.00000  Uiso   1.00
C58    C     0.73417   0.18485   0.00000   0.00000  Uiso   1.00
C59    C     0.84014   0.05833   0.00000   0.00000  Uiso   1.00
C60    C     0.86255   0.03850   0.00000   0.00000  Uiso   1.00
C61    C     0.90459   0.06011   0.00000   0.00000  Uiso   1.00
C62    C     0.92413   0.10240   0.00000   0.00000  Uiso   1.00
C63    C     0.90174   0.12227   0.00000   0.00000  Uiso   1.00
N64    N     0.92573   0.03773   0.00000   0.00000  Uiso   1.00
N65    N     0.72723   0.28000   0.00000   0.00000  Uiso   1.00
C66    C     0.96466   0.05237   0.00000   0.00000  Uiso   1.00
C67    C     0.98176   0.02523   0.00000   0.00000  Uiso   1.00
C68    C     0.68957   0.27097   0.00000   0.00000  Uiso   1.00
C69    C     0.67879   0.30307   0.00000   0.00000  Uiso   1.00
N70    N     0.73084   0.10550   0.00000   0.00000  Uiso   1.00
C71    C     0.72371   0.06875   0.00000   0.00000  Uiso   1.00
N72    N     0.75923   0.06559   0.00000   0.00000  Uiso   1.00
C73    C     0.95695   0.98310   0.00000   0.00000  Uiso   1.00
C74    C     0.70844   0.34409   0.00000   0.00000  Uiso   1.00
H75    H     0.88895   0.18428   0.00000   0.00000  Uiso   1.00
H76    H     0.85851   0.22244   0.00000   0.00000  Uiso   1.00
H77    H     0.83353   0.25883   0.00000   0.00000  Uiso   1.00
H78    H     0.80404   0.30094   0.00000   0.00000  Uiso   1.00
H79    H     0.68493   0.19608   0.00000   0.00000  Uiso   1.00
H80    H     0.71241   0.15329   0.00000   0.00000  Uiso   1.00
H81    H     0.80871   0.03865   0.00000   0.00000  Uiso   1.00
H82    H     0.84683   0.00572   0.00000   0.00000  Uiso   1.00
H83    H     0.95670   0.12075   0.00000   0.00000  Uiso   1.00
H84    H     0.91999   0.15461   0.00000   0.00000  Uiso   1.00
H85    H     0.98544   0.08458   0.00000   0.00000  Uiso   1.00
H86    H     0.66526   0.23992   0.00000   0.00000  Uiso   1.00
H87    H     0.69342   0.04288   0.00000   0.00000  Uiso   1.00
H88    H     0.75713   0.03754   0.00000   0.00000  Uiso   1.00
H89    H     0.92434   0.96954   0.00000   0.00000  Uiso   1.00
H90    H     0.74022   0.35306   0.00000   0.00000  Uiso   1.00
C91    C     0.83328   0.68986   0.00000   0.00000  Uiso   1.00
C92    C     0.80963   0.64761   0.00000   0.00000  Uiso   1.00
C93    C     0.82657   0.62217   0.00000   0.00000  Uiso   1.00
C94    C     0.86934   0.64294   0.00000   0.00000  Uiso   1.00
C95    C     0.89333   0.68502   0.00000   0.00000  Uiso   1.00
C96    C     0.87629   0.71108   0.00000   0.00000  Uiso   1.00
C97    C     0.89904   0.75763   0.00000   0.00000  Uiso   1.00
C98    C     0.79954   0.57614   0.00000   0.00000  Uiso   1.00
C99    C     0.75672   0.55777   0.00000   0.00000  Uiso   1.00
C100   C     0.73158   0.51580   0.00000   0.00000  Uiso   1.00
C101   C     0.74768   0.49016   0.00000   0.00000  Uiso   1.00
C102   C     0.78984   0.50732   0.00000   0.00000  Uiso   1.00
C103   C     0.81515   0.54932   0.00000   0.00000  Uiso   1.00
C104   C     0.94167   0.78181   0.00000   0.00000  Uiso   1.00
C105   C     0.96150   0.82405   0.00000   0.00000  Uiso   1.00
C106   C     0.93989   0.84448   0.00000   0.00000  Uiso   1.00
C107   C     0.89760   0.82173   0.00000   0.00000  Uiso   1.00
C108   C     0.87773   0.77947   0.00000   0.00000  Uiso   1.00
N109   N     0.96227   0.88800   0.00000   0.00000  Uiso   1.00
N110   N     0.72000   0.44723   0.00000   0.00000  Uiso   1.00
C111   C     0.94763   0.91229   0.00000   0.00000  Uiso   1.00
C112   C     0.97477   0.95653   0.00000   0.00000  Uiso   1.00
C113   C     0.72903   0.41860   0.00000   0.00000  Uiso   1.00
C114   C     0.69693   0.37572   0.00000   0.00000  Uiso   1.00
N115   N     0.89450   0.62534   0.00000   0.00000  Uiso   1.00
C116   C     0.93125   0.65496   0.00000   0.00000  Uiso   1.00
N117   N     0.93441   0.69364   0.00000   0.00000  Uiso   1.00
C118   C     0.01690   0.97385   0.00000   0.00000  Uiso   1.00
C119   C     0.65591   0.36435   0.00000   0.00000  Uiso   1.00
H120   H     0.81572   0.70467   0.00000   0.00000  Uiso   1.00
H121   H     0.77756   0.63607   0.00000   0.00000  Uiso   1.00
H122   H     0.74117   0.57470   0.00000   0.00000  Uiso   1.00
H123   H     0.69906   0.50310   0.00000   0.00000  Uiso   1.00
H124   H     0.80392   0.48885   0.00000   0.00000  Uiso   1.00
H125   H     0.84671   0.55912   0.00000   0.00000  Uiso   1.00
H126   H     0.96135   0.77006   0.00000   0.00000  Uiso   1.00
H127   H     0.99428   0.84111   0.00000   0.00000  Uiso   1.00
H128   H     0.87925   0.83595   0.00000   0.00000  Uiso   1.00
H129   H     0.84539   0.76538   0.00000   0.00000  Uiso   1.00
H130   H     0.91542   0.90086   0.00000   0.00000  Uiso   1.00
H131   H     0.76008   0.42534   0.00000   0.00000  Uiso   1.00
H132   H     0.95712   0.65054   0.00000   0.00000  Uiso   1.00
H133   H     0.96246   0.71959   0.00000   0.00000  Uiso   1.00
H134   H     0.03046   0.95480   0.00000   0.00000  Uiso   1.00
H135   H     0.64694   0.38716   0.00000   0.00000  Uiso   1.00
loop_
_geom_bond_atom_site_label_1
_geom_bond_atom_site_label_2
_geom_bond_distance
_geom_bond_site_symmetry_2
_ccdc_geom_bond_type
C1     C2      1.399   .     S
C1     C6      1.421   .     D
C1     H30     1.071   .     S
C2     C3      1.410   .     D
C2     H31     1.073   .     S
C3     C4      1.413   .     S
C3     C8      1.528   .     S
C4     C5      1.395   .     D
C4     N25     1.420   .     S
C5     C6      1.434   .     S
C5     N27     1.431   .     S
C6     C7      1.538   .     S
C7     C14     1.413   .     D
C7     C18     1.426   .     S
C8     C9      1.419   .     D
C8     C13     1.418   .     S
C9     C10     1.396   .     S
C9     H32     1.073   .     S
C10    C11     1.391   .     D
C10    H33     1.083   .     S
C11    C12     1.401   .     S
C11    N20     1.438   .     S
C12    C13     1.397   .     D
C12    H34     1.079   .     S
C13    H35     1.067   .     S
C14    C15     1.396   .     S
C14    H36     1.049   .     S
C15    C16     1.389   .     D
C15    H37     1.083   .     S
C16    C17     1.399   .     S
C16    N19     1.438   .     S
C17    C18     1.397   .     D
C17    H38     1.079   .     S
C18    H39     1.071   .     S
N19    C21     1.299   .     D
N20    C23     1.299   .     D
C21    C22     1.474   .     S
C21    H40     1.079   .     S
C22    C28     1.399   .     D
C22    C118    1.476   1_545 S
C23    C24     1.474   .     S
C23    H41     1.079   .     S
C24    C29     1.399   .     S
C24    C119    1.476   .     D
N25    C26     1.288   .     D
C26    N27     1.419   .     S
C26    H42     1.081   .     S
N27    H43     1.032   .     S
C28    H44     1.082   .     S
C28    C67     1.476   1_455 S
C29    H45     1.083   .     S
C29    C69     1.476   .     D
C46    C47     1.399   .     S
C46    C51     1.421   .     D
C46    H75     1.071   .     S
C47    C48     1.410   .     D
C47    H76     1.073   .     S
C48    C49     1.413   .     S
C48    C53     1.528   .     S
C49    C50     1.395   .     D
C49    N70     1.420   .     S
C50    C51     1.434   .     S
C50    N72     1.431   .     S
C51    C52     1.538   .     S
C52    C59     1.413   .     D
C52    C63     1.426   .     S
C53    C54     1.419   .     D
C53    C58     1.418   .     S
C54    C55     1.396   .     S
C54    H77     1.073   .     S
C55    C56     1.391   .     D
C55    H78     1.083   .     S
C56    C57     1.401   .     S
C56    N65     1.438   .     S
C57    C58     1.397   .     D
C57    H79     1.079   .     S
C58    H80     1.067   .     S
C59    C60     1.396   .     S
C59    H81     1.049   .     S
C60    C61     1.389   .     D
C60    H82     1.083   .     S
C61    C62     1.399   .     S
C61    N64     1.438   .     S
C62    C63     1.397   .     D
C62    H83     1.079   .     S
C63    H84     1.071   .     S
N64    C66     1.299   .     D
N65    C68     1.299   .     D
C66    C67     1.474   .     S
C66    H85     1.079   .     S
C67    C28     1.476   1_655 S
C67    C73     1.399   1_545 D
C68    C69     1.474   .     S
C68    H86     1.079   .     S
C69    C74     1.399   .     S
N70    C71     1.288   .     D
C71    N72     1.419   .     S
C71    H87     1.081   .     S
N72    H88     1.032   .     S
C73    C67     1.399   1_565 D
C73    H89     1.082   .     S
C73    C112    1.476   .     S
C74    H90     1.083   .     S
C74    C114    1.476   .     D
C91    C92     1.399   .     D
C91    C96     1.421   .     S
C91    H120    1.071   .     S
C92    C93     1.410   .     S
C92    H121    1.073   .     S
C93    C94     1.413   .     D
C93    C98     1.528   .     S
C94    C95     1.395   .     S
C94    N115    1.420   .     S
C95    C96     1.434   .     D
C95    N117    1.431   .     S
C96    C97     1.538   .     S
C97    C104    1.413   .     S
C97    C108    1.426   .     D
C98    C99     1.419   .     S
C98    C103    1.418   .     D
C99    C100    1.396   .     D
C99    H122    1.073   .     S
C100   C101    1.391   .     S
C100   H123    1.083   .     S
C101   C102    1.401   .     D
C101   N110    1.438   .     S
C102   C103    1.397   .     S
C102   H124    1.079   .     S
C103   H125    1.067   .     S
C104   C105    1.396   .     D
C104   H126    1.049   .     S
C105   C106    1.389   .     S
C105   H127    1.083   .     S
C106   C107    1.399   .     D
C106   N109    1.438   .     S
C107   C108    1.397   .     S
C107   H128    1.079   .     S
C108   H129    1.071   .     S
N109   C111    1.299   .     D
N110   C113    1.299   .     D
C111   C112    1.474   .     S
C111   H130    1.079   .     S
C112   C118    1.399   1_655 D
C113   C114    1.474   .     S
C113   H131    1.079   .     S
C114   C119    1.399   .     S
N115   C116    1.288   .     D
C116   N117    1.419   .     S
C116   H132    1.081   .     S
N117   H133    1.032   .     S
C118   C112    1.399   1_455 D
C118   C22     1.476   1_565 S
C118   H134    1.082   .     S
C119   H135    1.083   .     S
