data_297
_audit_creation_date              2023-09-08
_audit_creation_method            'Materials Studio'
_symmetry_space_group_name_H-M    'P1'
_symmetry_Int_Tables_number       1
_symmetry_cell_setting            triclinic
loop_
_symmetry_equiv_pos_as_xyz
  x,y,z
_cell_length_a                    37.4334
_cell_length_b                    37.4334
_cell_length_c                    3.9433
_cell_angle_alpha                 90.0000
_cell_angle_beta                  90.0000
_cell_angle_gamma                 120.0000
loop_
_atom_site_label
_atom_site_type_symbol
_atom_site_fract_x
_atom_site_fract_y
_atom_site_fract_z
_atom_site_U_iso_or_equiv
_atom_site_adp_type
_atom_site_occupancy
C1     C     0.31216   0.12823   0.72986   0.00000  Uiso   1.00
C2     C     0.35516   0.14773   0.78034   0.00000  Uiso   1.00
C3     C     0.37727   0.18814   0.91272   0.00000  Uiso   1.00
C4     C     0.35454   0.20755   0.98900   0.00000  Uiso   1.00
C5     C     0.31295   0.18879   0.93801   0.00000  Uiso   1.00
C6     C     0.29013   0.14863   0.81036   0.00000  Uiso   1.00
C7     C     0.24469   0.12775   0.77059   0.00000  Uiso   1.00
C8     C     0.42247   0.20878   0.96287   0.00000  Uiso   1.00
C9     C     0.22563   0.14896   0.63943   0.00000  Uiso   1.00
C10    C     0.18278   0.12921   0.60747   0.00000  Uiso   1.00
C11    C     0.15813   0.08793   0.70358   0.00000  Uiso   1.00
C12    C     0.17705   0.06666   0.83819   0.00000  Uiso   1.00
C13    C     0.21993   0.08639   0.86954   0.00000  Uiso   1.00
C14    C     0.44041   0.18735   1.11051   0.00000  Uiso   1.00
C15    C     0.48315   0.20641   1.14942   0.00000  Uiso   1.00
C16    C     0.50873   0.24716   1.04352   0.00000  Uiso   1.00
C17    C     0.49089   0.26854   0.89118   0.00000  Uiso   1.00
C18    C     0.44815   0.24945   0.85176   0.00000  Uiso   1.00
N19    N     0.11414   0.06951   0.67637   0.00000  Uiso   1.00
N20    N     0.55257   0.26487   1.07722   0.00000  Uiso   1.00
N21    N     0.36787   0.24646   1.14163   0.00000  Uiso   1.00
C22    C     0.33043   0.24794   1.16468   0.00000  Uiso   1.00
N23    N     0.29805   0.21499   1.05140   0.00000  Uiso   1.00
C24    C     0.32896   0.28455   1.30520   0.00000  Uiso   1.00
N25    N     0.36265   0.32285   1.16575   0.00000  Uiso   1.00
C26    C     0.34723   0.35174   1.13064   0.00000  Uiso   1.00
C27    C     0.30150   0.32925   1.21926   0.00000  Uiso   1.00
C28    C     0.28897   0.28421   1.22561   0.00000  Uiso   1.00
C29    C     0.08766   0.03022   0.67322   0.00000  Uiso   1.00
C30    C     0.57946   0.30405   1.07895   0.00000  Uiso   1.00
C31    C     0.04292   0.01507   0.66087   0.00000  Uiso   1.00
C32    C     0.62407   0.31864   1.09473   0.00000  Uiso   1.00
C33    C     0.02753   0.04247   0.66014   0.00000  Uiso   1.00
C34    C     0.65221   0.36115   1.09565   0.00000  Uiso   1.00
H35    H     0.29626   0.09736   0.62529   0.00000  Uiso   1.00
H36    H     0.37112   0.13135   0.71249   0.00000  Uiso   1.00
H37    H     0.24378   0.18076   0.55964   0.00000  Uiso   1.00
H38    H     0.16866   0.14609   0.50623   0.00000  Uiso   1.00
H39    H     0.15903   0.03530   0.92817   0.00000  Uiso   1.00
H40    H     0.23370   0.06960   0.97952   0.00000  Uiso   1.00
H41    H     0.42132   0.15591   1.19730   0.00000  Uiso   1.00
H42    H     0.49645   0.18941   1.26365   0.00000  Uiso   1.00
H43    H     0.50971   0.29939   0.79255   0.00000  Uiso   1.00
H44    H     0.43526   0.26618   0.72677   0.00000  Uiso   1.00
H45    H     0.39703   0.26794   1.23203   0.00000  Uiso   1.00
H46    H     0.33249   0.28458   1.58317   0.00000  Uiso   1.00
H47    H     0.38739   0.33504   1.33666   0.00000  Uiso   1.00
H48    H     0.35176   0.36270   0.86552   0.00000  Uiso   1.00
H49    H     0.36465   0.37926   1.29534   0.00000  Uiso   1.00
H50    H     0.28299   0.33548   1.03390   0.00000  Uiso   1.00
H51    H     0.29689   0.33901   1.47241   0.00000  Uiso   1.00
H52    H     0.27697   0.27072   0.97281   0.00000  Uiso   1.00
H53    H     0.26450   0.26670   1.41552   0.00000  Uiso   1.00
H54    H     0.09792   0.00785   0.67823   0.00000  Uiso   1.00
H55    H     0.56961   0.32673   1.06883   0.00000  Uiso   1.00
H56    H     0.04865   0.07546   0.66350   0.00000  Uiso   1.00
H57    H     0.64075   0.38260   1.09133   0.00000  Uiso   1.00
C58    C     0.87177   0.18393   0.72986   0.00000  Uiso   1.00
C59    C     0.85227   0.20743   0.78034   0.00000  Uiso   1.00
C60    C     0.81186   0.18913   0.91272   0.00000  Uiso   1.00
C61    C     0.79245   0.14699   0.98900   0.00000  Uiso   1.00
C62    C     0.81121   0.12416   0.93801   0.00000  Uiso   1.00
C63    C     0.85137   0.14150   0.81036   0.00000  Uiso   1.00
C64    C     0.87225   0.11694   0.77059   0.00000  Uiso   1.00
C65    C     0.79122   0.21369   0.96287   0.00000  Uiso   1.00
C66    C     0.85104   0.07667   0.63943   0.00000  Uiso   1.00
C67    C     0.87079   0.05357   0.60747   0.00000  Uiso   1.00
C68    C     0.91207   0.07020   0.70358   0.00000  Uiso   1.00
C69    C     0.93334   0.11039   0.83819   0.00000  Uiso   1.00
C70    C     0.91361   0.13354   0.86954   0.00000  Uiso   1.00
C71    C     0.81265   0.25306   1.11051   0.00000  Uiso   1.00
C72    C     0.79359   0.27674   1.14942   0.00000  Uiso   1.00
C73    C     0.75284   0.26157   1.04352   0.00000  Uiso   1.00
C74    C     0.73146   0.22235   0.89118   0.00000  Uiso   1.00
C75    C     0.75055   0.19870   0.85176   0.00000  Uiso   1.00
N76    N     0.93049   0.04463   0.67637   0.00000  Uiso   1.00
N77    N     0.73513   0.28770   1.07722   0.00000  Uiso   1.00
N78    N     0.75354   0.12141   1.14163   0.00000  Uiso   1.00
C79    C     0.75206   0.08249   1.16468   0.00000  Uiso   1.00
N80    N     0.78501   0.08306   1.05140   0.00000  Uiso   1.00
C81    C     0.71545   0.04441   1.30520   0.00000  Uiso   1.00
N82    N     0.67715   0.03980   1.16575   0.00000  Uiso   1.00
C83    C     0.64826   0.99549   1.13064   0.00000  Uiso   1.00
C84    C     0.67075   0.97225   1.21926   0.00000  Uiso   1.00
C85    C     0.71579   0.00476   1.22561   0.00000  Uiso   1.00
C86    C     0.96978   0.05744   0.67322   0.00000  Uiso   1.00
C87    C     0.69595   0.27541   1.07895   0.00000  Uiso   1.00
C88    C     0.98493   0.02785   0.66087   0.00000  Uiso   1.00
C89    C     0.68136   0.30543   1.09473   0.00000  Uiso   1.00
C90    C     0.95753   0.98506   0.66014   0.00000  Uiso   1.00
C91    C     0.63885   0.29106   1.09565   0.00000  Uiso   1.00
H92    H     0.90264   0.19890   0.62529   0.00000  Uiso   1.00
H93    H     0.86865   0.23977   0.71249   0.00000  Uiso   1.00
H94    H     0.81924   0.06302   0.55964   0.00000  Uiso   1.00
H95    H     0.85391   0.02257   0.50623   0.00000  Uiso   1.00
H96    H     0.96470   0.12373   0.92817   0.00000  Uiso   1.00
H97    H     0.93040   0.16410   0.97952   0.00000  Uiso   1.00
H98    H     0.84409   0.26541   1.19730   0.00000  Uiso   1.00
H99    H     0.81059   0.30704   1.26365   0.00000  Uiso   1.00
H100   H     0.70061   0.21032   0.79255   0.00000  Uiso   1.00
H101   H     0.73382   0.16908   0.72677   0.00000  Uiso   1.00
H102   H     0.73206   0.12909   1.23203   0.00000  Uiso   1.00
H103   H     0.71542   0.04791   1.58317   0.00000  Uiso   1.00
H104   H     0.66496   0.05235   1.33666   0.00000  Uiso   1.00
H105   H     0.63730   0.98906   0.86552   0.00000  Uiso   1.00
H106   H     0.62074   0.98539   1.29534   0.00000  Uiso   1.00
H107   H     0.66452   0.94751   1.03390   0.00000  Uiso   1.00
H108   H     0.66099   0.95788   1.47241   0.00000  Uiso   1.00
H109   H     0.72928   0.00625   0.97281   0.00000  Uiso   1.00
H110   H     0.73330   0.99780   1.41552   0.00000  Uiso   1.00
H111   H     0.99215   0.09007   0.67823   0.00000  Uiso   1.00
H112   H     0.67327   0.24288   1.06883   0.00000  Uiso   1.00
H113   H     0.92454   0.97319   0.66350   0.00000  Uiso   1.00
H114   H     0.61740   0.25815   1.09133   0.00000  Uiso   1.00
C115   C     0.81607   0.68784   0.72986   0.00000  Uiso   1.00
C116   C     0.79257   0.64484   0.78034   0.00000  Uiso   1.00
C117   C     0.81087   0.62273   0.91272   0.00000  Uiso   1.00
C118   C     0.85301   0.64546   0.98900   0.00000  Uiso   1.00
C119   C     0.87584   0.68705   0.93801   0.00000  Uiso   1.00
C120   C     0.85850   0.70987   0.81036   0.00000  Uiso   1.00
C121   C     0.88306   0.75531   0.77059   0.00000  Uiso   1.00
C122   C     0.78631   0.57753   0.96287   0.00000  Uiso   1.00
C123   C     0.92333   0.77437   0.63943   0.00000  Uiso   1.00
C124   C     0.94643   0.81722   0.60747   0.00000  Uiso   1.00
C125   C     0.92980   0.84187   0.70358   0.00000  Uiso   1.00
C126   C     0.88961   0.82295   0.83819   0.00000  Uiso   1.00
C127   C     0.86646   0.78007   0.86954   0.00000  Uiso   1.00
C128   C     0.74694   0.55959   1.11051   0.00000  Uiso   1.00
C129   C     0.72326   0.51685   1.14942   0.00000  Uiso   1.00
C130   C     0.73843   0.49127   1.04352   0.00000  Uiso   1.00
C131   C     0.77765   0.50911   0.89118   0.00000  Uiso   1.00
C132   C     0.80130   0.55185   0.85176   0.00000  Uiso   1.00
N133   N     0.95537   0.88586   0.67637   0.00000  Uiso   1.00
N134   N     0.71230   0.44743   1.07722   0.00000  Uiso   1.00
N135   N     0.87859   0.63213   1.14163   0.00000  Uiso   1.00
C136   C     0.91751   0.66957   1.16468   0.00000  Uiso   1.00
N137   N     0.91694   0.70195   1.05140   0.00000  Uiso   1.00
C138   C     0.95559   0.67104   1.30520   0.00000  Uiso   1.00
N139   N     0.96020   0.63735   1.16575   0.00000  Uiso   1.00
C140   C     0.00451   0.65277   1.13064   0.00000  Uiso   1.00
C141   C     0.02775   0.69850   1.21926   0.00000  Uiso   1.00
C142   C     0.99524   0.71103   1.22561   0.00000  Uiso   1.00
C143   C     0.94256   0.91234   0.67322   0.00000  Uiso   1.00
C144   C     0.72459   0.42054   1.07895   0.00000  Uiso   1.00
C145   C     0.97215   0.95708   0.66087   0.00000  Uiso   1.00
C146   C     0.69457   0.37593   1.09473   0.00000  Uiso   1.00
C147   C     0.01494   0.97247   0.66014   0.00000  Uiso   1.00
C148   C     0.70894   0.34779   1.09565   0.00000  Uiso   1.00
H149   H     0.80110   0.70374   0.62529   0.00000  Uiso   1.00
H150   H     0.76023   0.62888   0.71249   0.00000  Uiso   1.00
H151   H     0.93698   0.75622   0.55964   0.00000  Uiso   1.00
H152   H     0.97743   0.83134   0.50623   0.00000  Uiso   1.00
H153   H     0.87627   0.84097   0.92817   0.00000  Uiso   1.00
H154   H     0.83590   0.76630   0.97952   0.00000  Uiso   1.00
H155   H     0.73459   0.57868   1.19730   0.00000  Uiso   1.00
H156   H     0.69296   0.50355   1.26365   0.00000  Uiso   1.00
H157   H     0.78968   0.49029   0.79255   0.00000  Uiso   1.00
H158   H     0.83092   0.56474   0.72677   0.00000  Uiso   1.00
H159   H     0.87091   0.60297   1.23203   0.00000  Uiso   1.00
H160   H     0.95209   0.66751   1.58317   0.00000  Uiso   1.00
H161   H     0.94765   0.61261   1.33666   0.00000  Uiso   1.00
H162   H     0.01094   0.64824   0.86552   0.00000  Uiso   1.00
H163   H     0.01461   0.63535   1.29534   0.00000  Uiso   1.00
H164   H     0.05249   0.71701   1.03390   0.00000  Uiso   1.00
H165   H     0.04212   0.70311   1.47241   0.00000  Uiso   1.00
H166   H     0.99375   0.72303   0.97281   0.00000  Uiso   1.00
H167   H     0.00220   0.73550   1.41552   0.00000  Uiso   1.00
H168   H     0.90993   0.90208   0.67823   0.00000  Uiso   1.00
H169   H     0.75712   0.43039   1.06883   0.00000  Uiso   1.00
H170   H     0.02681   0.95135   0.66350   0.00000  Uiso   1.00
H171   H     0.74185   0.35925   1.09133   0.00000  Uiso   1.00
loop_
_geom_bond_atom_site_label_1
_geom_bond_atom_site_label_2
_geom_bond_distance
_geom_bond_site_symmetry_2
_ccdc_geom_bond_type
C1     C2      1.410   .     D
C1     C6      1.412   .     S
C1     H35     1.083   .     S
C2     C3      1.412   .     S
C2     H36     1.082   .     S
C3     C4      1.400   .     D
C3     C8      1.480   .     S
C4     C5      1.365   .     S
C4     N21     1.416   .     S
C5     C6      1.400   .     D
C5     N23     1.421   .     S
C6     C7      1.483   .     S
C7     C9      1.405   .     D
C7     C13     1.405   .     S
C8     C14     1.404   .     D
C8     C18     1.404   .     S
C9     C10     1.396   .     S
C9     H37     1.081   .     S
C10    C11     1.399   .     D
C10    H38     1.083   .     S
C11    C12     1.408   .     S
C11    N19     1.436   .     S
C12    C13     1.397   .     D
C12    H39     1.080   .     S
C13    H40     1.083   .     S
C14    C15     1.397   .     S
C14    H41     1.083   .     S
C15    C16     1.399   .     D
C15    H42     1.083   .     S
C16    C17     1.408   .     S
C16    N20     1.436   .     S
C17    C18     1.397   .     D
C17    H43     1.081   .     S
C18    H44     1.082   .     S
N19    C29     1.299   .     D
N20    C30     1.299   .     D
N21    C22     1.433   .     S
N21    H45     1.043   .     S
C22    N23     1.302   .     D
C22    C24     1.505   .     S
C24    N25     1.463   .     S
C24    C28     1.523   .     S
C24    H46     1.104   .     S
N25    C26     1.465   .     S
N25    H47     1.048   .     S
C26    C27     1.523   .     S
C26    H48     1.105   .     S
C26    H49     1.112   .     S
C27    C28     1.507   .     S
C27    H50     1.109   .     S
C27    H51     1.106   .     S
C28    H52     1.106   .     S
C28    H53     1.109   .     S
C29    C31     1.476   .     S
C29    H54     1.082   .     S
C30    C32     1.476   .     S
C30    H55     1.082   .     S
C31    C33     1.405   .     S
C31    C147    1.403   1_545 D
C32    C34     1.402   .     D
C32    C91     1.394   .     S
C33    H56     1.083   .     S
C33    C88     1.403   1_455 D
C34    H57     1.083   .     S
C34    C146    1.394   .     S
C58    C59     1.410   .     S
C58    C63     1.412   .     D
C58    H92     1.083   .     S
C59    C60     1.412   .     D
C59    H93     1.082   .     S
C60    C61     1.400   .     S
C60    C65     1.480   .     S
C61    C62     1.365   .     D
C61    N78     1.416   .     S
C62    C63     1.400   .     S
C62    N80     1.421   .     S
C63    C64     1.483   .     S
C64    C66     1.405   .     S
C64    C70     1.405   .     D
C65    C71     1.404   .     D
C65    C75     1.404   .     S
C66    C67     1.396   .     D
C66    H94     1.081   .     S
C67    C68     1.399   .     S
C67    H95     1.083   .     S
C68    C69     1.408   .     D
C68    N76     1.436   .     S
C69    C70     1.397   .     S
C69    H96     1.080   .     S
C70    H97     1.083   .     S
C71    C72     1.397   .     S
C71    H98     1.083   .     S
C72    C73     1.399   .     D
C72    H99     1.083   .     S
C73    C74     1.408   .     S
C73    N77     1.436   .     S
C74    C75     1.397   .     D
C74    H100    1.081   .     S
C75    H101    1.082   .     S
N76    C86     1.299   .     D
N77    C87     1.299   .     D
N78    C79     1.433   .     S
N78    H102    1.043   .     S
C79    N80     1.302   .     D
C79    C81     1.505   .     S
C81    N82     1.463   .     S
C81    C85     1.523   .     S
C81    H103    1.104   .     S
N82    C83     1.465   1_545 S
N82    H104    1.048   .     S
C83    N82     1.465   1_565 S
C83    C84     1.523   .     S
C83    H105    1.105   .     S
C83    H106    1.112   .     S
C84    C85     1.507   1_565 S
C84    H107    1.109   .     S
C84    H108    1.106   .     S
C85    C84     1.507   1_545 S
C85    H109    1.106   .     S
C85    H110    1.109   1_545 S
C86    C88     1.476   .     S
C86    H111    1.082   .     S
C87    C89     1.476   .     S
C87    H112    1.082   .     S
C88    C33     1.403   1_655 D
C88    C90     1.405   1_545 S
C89    C91     1.402   .     D
C89    C148    1.394   .     S
C90    C88     1.405   1_565 S
C90    H113    1.083   .     S
C90    C145    1.403   .     D
C91    H114    1.083   .     S
H110   C85     1.109   1_565 S
C115   C116    1.410   .     D
C115   C120    1.412   .     S
C115   H149    1.083   .     S
C116   C117    1.412   .     S
C116   H150    1.082   .     S
C117   C118    1.400   .     D
C117   C122    1.480   .     S
C118   C119    1.365   .     S
C118   N135    1.416   .     S
C119   C120    1.400   .     D
C119   N137    1.421   .     S
C120   C121    1.483   .     S
C121   C123    1.405   .     D
C121   C127    1.405   .     S
C122   C128    1.404   .     S
C122   C132    1.404   .     D
C123   C124    1.396   .     S
C123   H151    1.081   .     S
C124   C125    1.399   .     D
C124   H152    1.083   .     S
C125   C126    1.408   .     S
C125   N133    1.436   .     S
C126   C127    1.397   .     D
C126   H153    1.080   .     S
C127   H154    1.083   .     S
C128   C129    1.397   .     D
C128   H155    1.083   .     S
C129   C130    1.399   .     S
C129   H156    1.083   .     S
C130   C131    1.408   .     D
C130   N134    1.436   .     S
C131   C132    1.397   .     S
C131   H157    1.081   .     S
C132   H158    1.082   .     S
N133   C143    1.299   .     D
N134   C144    1.299   .     D
N135   C136    1.433   .     S
N135   H159    1.043   .     S
C136   N137    1.302   .     D
C136   C138    1.505   .     S
C138   N139    1.463   .     S
C138   C142    1.523   .     S
C138   H160    1.104   .     S
N139   C140    1.465   1_655 S
N139   H161    1.048   .     S
C140   N139    1.465   1_455 S
C140   C141    1.523   .     S
C140   H162    1.105   .     S
C140   H163    1.112   .     S
C141   C142    1.507   1_455 S
C141   H164    1.109   .     S
C141   H165    1.106   .     S
C142   C141    1.507   1_655 S
C142   H166    1.106   .     S
C142   H167    1.109   1_655 S
C143   C145    1.476   .     S
C143   H168    1.082   .     S
C144   C146    1.476   .     S
C144   H169    1.082   .     S
C145   C147    1.405   1_655 S
C146   C148    1.402   .     D
C147   C145    1.405   1_455 S
C147   C31     1.403   1_565 D
C147   H170    1.083   .     S
C148   H171    1.083   .     S
H167   C142    1.109   1_455 S
