data_298
_audit_creation_date              2023-09-08
_audit_creation_method            'Materials Studio'
_symmetry_space_group_name_H-M    'P1'
_symmetry_Int_Tables_number       1
_symmetry_cell_setting            triclinic
loop_
_symmetry_equiv_pos_as_xyz
  x,y,z
_cell_length_a                    37.4089
_cell_length_b                    37.4089
_cell_length_c                    5.0118
_cell_angle_alpha                 90.0000
_cell_angle_beta                  90.0000
_cell_angle_gamma                 120.0000
loop_
_atom_site_label
_atom_site_type_symbol
_atom_site_fract_x
_atom_site_fract_y
_atom_site_fract_z
_atom_site_U_iso_or_equiv
_atom_site_adp_type
_atom_site_occupancy
C1     C     0.31667   0.13620  -0.36570   0.00000  Uiso   1.00
C2     C     0.35992   0.16060  -0.33512   0.00000  Uiso   1.00
C3     C     0.37691   0.19311  -0.14870   0.00000  Uiso   1.00
C4     C     0.34955   0.19957   0.00467   0.00000  Uiso   1.00
C5     C     0.30769   0.17566  -0.02006   0.00000  Uiso   1.00
C6     C     0.28945   0.14344  -0.20764   0.00000  Uiso   1.00
C7     C     0.24390   0.11840  -0.24581   0.00000  Uiso   1.00
C8     C     0.42185   0.21923  -0.11665   0.00000  Uiso   1.00
C9     C     0.21890   0.13663  -0.23191   0.00000  Uiso   1.00
C10    C     0.17621   0.11302  -0.27145   0.00000  Uiso   1.00
C11    C     0.15751   0.07057  -0.33071   0.00000  Uiso   1.00
C12    C     0.18254   0.05249  -0.34734   0.00000  Uiso   1.00
C13    C     0.22512   0.07597  -0.30377   0.00000  Uiso   1.00
C14    C     0.44367   0.20606   0.04492   0.00000  Uiso   1.00
C15    C     0.48634   0.23118   0.07900   0.00000  Uiso   1.00
C16    C     0.50791   0.26951  -0.05328   0.00000  Uiso   1.00
C17    C     0.48567   0.28266  -0.21217   0.00000  Uiso   1.00
C18    C     0.44293   0.25781  -0.24260   0.00000  Uiso   1.00
N19    N     0.35866   0.23075   0.19623   0.00000  Uiso   1.00
C20    C     0.31827   0.22230   0.27561   0.00000  Uiso   1.00
N21    N     0.28809   0.19041   0.15709   0.00000  Uiso   1.00
C22    C     0.31080   0.24861   0.46938   0.00000  Uiso   1.00
N23    N     0.34992   0.28258   0.57076   0.00000  Uiso   1.00
C24    C     0.34572   0.31952   0.58058   0.00000  Uiso   1.00
C25    C     0.30235   0.30762   0.48946   0.00000  Uiso   1.00
C26    C     0.28767   0.26781   0.33811   0.00000  Uiso   1.00
N27    N     0.11367   0.04504  -0.37493   0.00000  Uiso   1.00
N28    N     0.55190   0.29586  -0.02540   0.00000  Uiso   1.00
C29    C     0.08365   0.05714  -0.31115   0.00000  Uiso   1.00
C30    C     0.57890   0.28072   0.05505   0.00000  Uiso   1.00
C31    C     0.04359   0.02967  -0.25727   0.00000  Uiso   1.00
C32    C     0.61898   0.30583   0.12086   0.00000  Uiso   1.00
C33    C     0.01378   0.04463  -0.22480   0.00000  Uiso   1.00
C34    C     0.64637   0.28804   0.15525   0.00000  Uiso   1.00
O35    O     0.02630   0.08041  -0.15827   0.00000  Uiso   1.00
O36    O     0.63167   0.25198   0.22258   0.00000  Uiso   1.00
H37    H     0.30470   0.11237  -0.51747   0.00000  Uiso   1.00
H38    H     0.37999   0.15451  -0.45932   0.00000  Uiso   1.00
H39    H     0.23221   0.16936  -0.19543   0.00000  Uiso   1.00
H40    H     0.15855   0.12863  -0.25892   0.00000  Uiso   1.00
H41    H     0.16891   0.01987  -0.39163   0.00000  Uiso   1.00
H42    H     0.24329   0.06074  -0.31334   0.00000  Uiso   1.00
H43    H     0.42758   0.17653   0.14625   0.00000  Uiso   1.00
H44    H     0.50216   0.22066   0.21060   0.00000  Uiso   1.00
H45    H     0.50151   0.31223  -0.31330   0.00000  Uiso   1.00
H46    H     0.42633   0.26866  -0.36389   0.00000  Uiso   1.00
H47    H     0.38735   0.25637   0.24077   0.00000  Uiso   1.00
H48    H     0.29196   0.22891   0.63860   0.00000  Uiso   1.00
H49    H     0.35481   0.27540   0.76448   0.00000  Uiso   1.00
H50    H     0.36879   0.34306   0.44262   0.00000  Uiso   1.00
H51    H     0.35161   0.33287   0.78548   0.00000  Uiso   1.00
H52    H     0.30232   0.33193   0.36139   0.00000  Uiso   1.00
H53    H     0.28217   0.30204   0.66628   0.00000  Uiso   1.00
H54    H     0.29654   0.27498   0.12420   0.00000  Uiso   1.00
H55    H     0.25361   0.24736   0.35410   0.00000  Uiso   1.00
H56    H     0.10348   0.01620  -0.46336   0.00000  Uiso   1.00
H57    H     0.56490   0.32571  -0.10352   0.00000  Uiso   1.00
H58    H     0.09293   0.08953  -0.32149   0.00000  Uiso   1.00
H59    H     0.56733   0.24779   0.04093   0.00000  Uiso   1.00
C60    C     0.86380   0.18047  -0.36570   0.00000  Uiso   1.00
C61    C     0.83940   0.19932  -0.33512   0.00000  Uiso   1.00
C62    C     0.80689   0.18380  -0.14870   0.00000  Uiso   1.00
C63    C     0.80043   0.14998   0.00467   0.00000  Uiso   1.00
C64    C     0.82434   0.13203  -0.02006   0.00000  Uiso   1.00
C65    C     0.85656   0.14601  -0.20764   0.00000  Uiso   1.00
C66    C     0.88160   0.12550  -0.24581   0.00000  Uiso   1.00
C67    C     0.78077   0.20262  -0.11665   0.00000  Uiso   1.00
C68    C     0.86337   0.08227  -0.23191   0.00000  Uiso   1.00
C69    C     0.88698   0.06319  -0.27145   0.00000  Uiso   1.00
C70    C     0.92943   0.08694  -0.33071   0.00000  Uiso   1.00
C71    C     0.94751   0.13005  -0.34734   0.00000  Uiso   1.00
C72    C     0.92403   0.14915  -0.30377   0.00000  Uiso   1.00
C73    C     0.79394   0.23761   0.04492   0.00000  Uiso   1.00
C74    C     0.76882   0.25516   0.07900   0.00000  Uiso   1.00
C75    C     0.73049   0.23840  -0.05328   0.00000  Uiso   1.00
C76    C     0.71734   0.20301  -0.21217   0.00000  Uiso   1.00
C77    C     0.74219   0.18512  -0.24260   0.00000  Uiso   1.00
N78    N     0.76925   0.12791   0.19623   0.00000  Uiso   1.00
C79    C     0.77770   0.09597   0.27561   0.00000  Uiso   1.00
N80    N     0.80959   0.09768   0.15709   0.00000  Uiso   1.00
C81    C     0.75139   0.06219   0.46938   0.00000  Uiso   1.00
N82    N     0.71742   0.06734   0.57076   0.00000  Uiso   1.00
C83    C     0.68048   0.02620   0.58058   0.00000  Uiso   1.00
C84    C     0.69238   0.99473   0.48946   0.00000  Uiso   1.00
C85    C     0.73219   0.01986   0.33811   0.00000  Uiso   1.00
N86    N     0.95496   0.06863  -0.37493   0.00000  Uiso   1.00
N87    N     0.70414   0.25604  -0.02540   0.00000  Uiso   1.00
C88    C     0.94286   0.02651  -0.31115   0.00000  Uiso   1.00
C89    C     0.71928   0.29818   0.05505   0.00000  Uiso   1.00
C90    C     0.97033   0.01392  -0.25727   0.00000  Uiso   1.00
C91    C     0.69417   0.31315   0.12086   0.00000  Uiso   1.00
C92    C     0.95537   0.96915  -0.22480   0.00000  Uiso   1.00
C93    C     0.71196   0.35833   0.15525   0.00000  Uiso   1.00
O94    O     0.91959   0.94589  -0.15827   0.00000  Uiso   1.00
O95    O     0.74802   0.37969   0.22258   0.00000  Uiso   1.00
H96    H     0.88763   0.19233  -0.51747   0.00000  Uiso   1.00
H97    H     0.84549   0.22548  -0.45932   0.00000  Uiso   1.00
H98    H     0.83064   0.06285  -0.19543   0.00000  Uiso   1.00
H99    H     0.87137   0.02992  -0.25892   0.00000  Uiso   1.00
H100   H     0.98013   0.14904  -0.39163   0.00000  Uiso   1.00
H101   H     0.93926   0.18255  -0.31334   0.00000  Uiso   1.00
H102   H     0.82347   0.25105   0.14625   0.00000  Uiso   1.00
H103   H     0.77934   0.28150   0.21060   0.00000  Uiso   1.00
H104   H     0.68777   0.18928  -0.31330   0.00000  Uiso   1.00
H105   H     0.73134   0.15767  -0.36389   0.00000  Uiso   1.00
H106   H     0.74363   0.13098   0.24077   0.00000  Uiso   1.00
H107   H     0.77109   0.06305   0.63860   0.00000  Uiso   1.00
H108   H     0.72460   0.07941   0.76448   0.00000  Uiso   1.00
H109   H     0.65694   0.02573   0.44262   0.00000  Uiso   1.00
H110   H     0.66713   0.01874   0.78548   0.00000  Uiso   1.00
H111   H     0.66807   0.97039   0.36139   0.00000  Uiso   1.00
H112   H     0.69796   0.98013   0.66628   0.00000  Uiso   1.00
H113   H     0.72502   0.02156   0.12420   0.00000  Uiso   1.00
H114   H     0.75264   0.00625   0.35410   0.00000  Uiso   1.00
H115   H     0.98380   0.08728  -0.46336   0.00000  Uiso   1.00
H116   H     0.67429   0.23919  -0.10352   0.00000  Uiso   1.00
H117   H     0.91047   0.00340  -0.32149   0.00000  Uiso   1.00
H118   H     0.75221   0.31954   0.04093   0.00000  Uiso   1.00
C119   C     0.81953   0.68333  -0.36570   0.00000  Uiso   1.00
C120   C     0.80068   0.64008  -0.33512   0.00000  Uiso   1.00
C121   C     0.81620   0.62309  -0.14870   0.00000  Uiso   1.00
C122   C     0.85002   0.65045   0.00467   0.00000  Uiso   1.00
C123   C     0.86797   0.69231  -0.02006   0.00000  Uiso   1.00
C124   C     0.85399   0.71055  -0.20764   0.00000  Uiso   1.00
C125   C     0.87450   0.75610  -0.24581   0.00000  Uiso   1.00
C126   C     0.79738   0.57815  -0.11665   0.00000  Uiso   1.00
C127   C     0.91773   0.78110  -0.23191   0.00000  Uiso   1.00
C128   C     0.93681   0.82379  -0.27145   0.00000  Uiso   1.00
C129   C     0.91306   0.84249  -0.33071   0.00000  Uiso   1.00
C130   C     0.86995   0.81746  -0.34734   0.00000  Uiso   1.00
C131   C     0.85085   0.77488  -0.30377   0.00000  Uiso   1.00
C132   C     0.76239   0.55633   0.04492   0.00000  Uiso   1.00
C133   C     0.74484   0.51366   0.07900   0.00000  Uiso   1.00
C134   C     0.76160   0.49209  -0.05328   0.00000  Uiso   1.00
C135   C     0.79699   0.51433  -0.21217   0.00000  Uiso   1.00
C136   C     0.81488   0.55707  -0.24260   0.00000  Uiso   1.00
N137   N     0.87209   0.64134   0.19623   0.00000  Uiso   1.00
C138   C     0.90403   0.68173   0.27561   0.00000  Uiso   1.00
N139   N     0.90232   0.71191   0.15709   0.00000  Uiso   1.00
C140   C     0.93781   0.68920   0.46938   0.00000  Uiso   1.00
N141   N     0.93266   0.65008   0.57076   0.00000  Uiso   1.00
C142   C     0.97380   0.65428   0.58058   0.00000  Uiso   1.00
C143   C     0.00527   0.69765   0.48946   0.00000  Uiso   1.00
C144   C     0.98014   0.71233   0.33811   0.00000  Uiso   1.00
N145   N     0.93137   0.88633  -0.37493   0.00000  Uiso   1.00
N146   N     0.74396   0.44810  -0.02540   0.00000  Uiso   1.00
C147   C     0.97349   0.91635  -0.31115   0.00000  Uiso   1.00
C148   C     0.70182   0.42110   0.05505   0.00000  Uiso   1.00
C149   C     0.98608   0.95641  -0.25727   0.00000  Uiso   1.00
C150   C     0.68685   0.38102   0.12086   0.00000  Uiso   1.00
C151   C     0.03085   0.98622  -0.22480   0.00000  Uiso   1.00
C152   C     0.64167   0.35363   0.15525   0.00000  Uiso   1.00
O153   O     0.05411   0.97370  -0.15827   0.00000  Uiso   1.00
O154   O     0.62031   0.36833   0.22258   0.00000  Uiso   1.00
H155   H     0.80767   0.69530  -0.51747   0.00000  Uiso   1.00
H156   H     0.77452   0.62001  -0.45932   0.00000  Uiso   1.00
H157   H     0.93715   0.76779  -0.19543   0.00000  Uiso   1.00
H158   H     0.97008   0.84145  -0.25892   0.00000  Uiso   1.00
H159   H     0.85096   0.83109  -0.39163   0.00000  Uiso   1.00
H160   H     0.81745   0.75671  -0.31334   0.00000  Uiso   1.00
H161   H     0.74895   0.57242   0.14625   0.00000  Uiso   1.00
H162   H     0.71850   0.49784   0.21060   0.00000  Uiso   1.00
H163   H     0.81072   0.49849  -0.31330   0.00000  Uiso   1.00
H164   H     0.84233   0.57367  -0.36389   0.00000  Uiso   1.00
H165   H     0.86902   0.61265   0.24077   0.00000  Uiso   1.00
H166   H     0.93695   0.70804   0.63860   0.00000  Uiso   1.00
H167   H     0.92059   0.64519   0.76448   0.00000  Uiso   1.00
H168   H     0.97427   0.63121   0.44262   0.00000  Uiso   1.00
H169   H     0.98126   0.64839   0.78548   0.00000  Uiso   1.00
H170   H     0.02961   0.69768   0.36139   0.00000  Uiso   1.00
H171   H     0.01987   0.71783   0.66628   0.00000  Uiso   1.00
H172   H     0.97844   0.70346   0.12420   0.00000  Uiso   1.00
H173   H     0.99375   0.74639   0.35410   0.00000  Uiso   1.00
H174   H     0.91272   0.89652  -0.46336   0.00000  Uiso   1.00
H175   H     0.76081   0.43510  -0.10352   0.00000  Uiso   1.00
H176   H     0.99660   0.90707  -0.32149   0.00000  Uiso   1.00
H177   H     0.68046   0.43267   0.04093   0.00000  Uiso   1.00
loop_
_geom_bond_atom_site_label_1
_geom_bond_atom_site_label_2
_geom_bond_distance
_geom_bond_site_symmetry_2
_ccdc_geom_bond_type
C1     C2      1.413   .     D
C1     C6      1.419   .     S
C1     H37     1.084   .     S
C2     C3      1.408   .     S
C2     H38     1.084   .     S
C3     C4      1.394   .     D
C3     C8      1.471   .     S
C4     C5      1.366   .     S
C4     N19     1.415   .     S
C5     C6      1.407   .     D
C5     N21     1.426   .     S
C6     C7      1.490   .     S
C7     C9      1.408   .     D
C7     C13     1.408   .     S
C8     C14     1.402   .     D
C8     C18     1.402   .     S
C9     C10     1.400   .     S
C9     H39     1.082   .     S
C10    C11     1.410   .     D
C10    H40     1.080   .     S
C11    C12     1.405   .     S
C11    N27     1.444   .     S
C12    C13     1.399   .     D
C12    H41     1.084   .     S
C13    H42     1.085   .     S
C14    C15     1.400   .     S
C14    H43     1.084   .     S
C15    C16     1.411   .     D
C15    H44     1.083   .     S
C16    C17     1.406   .     S
C16    N28     1.441   .     S
C17    C18     1.399   .     D
C17    H45     1.085   .     S
C18    H46     1.083   .     S
N19    C20     1.437   .     S
N19    H47     1.045   .     S
C20    N21     1.305   .     D
C20    C22     1.505   .     S
C22    N23     1.468   .     S
C22    C26     1.523   .     S
C22    H48     1.113   .     S
N23    C24     1.468   .     S
N23    H49     1.048   .     S
C24    C25     1.522   .     S
C24    H50     1.113   .     S
C24    H51     1.115   .     S
C25    C26     1.509   .     S
C25    H52     1.114   .     S
C25    H53     1.114   .     S
C26    H54     1.115   .     S
C26    H55     1.114   .     S
N27    C29     1.441   .     S
N27    H56     1.046   .     S
N28    C30     1.441   .     S
N28    H57     1.046   .     S
C29    C31     1.355   .     D
C29    H58     1.082   .     S
C30    C32     1.353   .     D
C30    H59     1.085   .     S
C31    C33     1.486   .     S
C31    C151    1.456   1_545 S
C32    C34     1.485   .     S
C32    C152    1.559   .     S
C33    O35     1.223   .     D
C33    C90     1.456   1_455 S
C34    O36     1.222   .     D
C34    C91     1.559   .     S
C60    C61     1.413   .     D
C60    C65     1.419   .     S
C60    H96     1.084   .     S
C61    C62     1.408   .     S
C61    H97     1.084   .     S
C62    C63     1.394   .     D
C62    C67     1.471   .     S
C63    C64     1.366   .     S
C63    N78     1.415   .     S
C64    C65     1.407   .     D
C64    N80     1.426   .     S
C65    C66     1.490   .     S
C66    C68     1.408   .     D
C66    C72     1.408   .     S
C67    C73     1.402   .     D
C67    C77     1.402   .     S
C68    C69     1.400   .     S
C68    H98     1.082   .     S
C69    C70     1.410   .     D
C69    H99     1.080   .     S
C70    C71     1.405   .     S
C70    N86     1.444   .     S
C71    C72     1.399   .     D
C71    H100    1.084   .     S
C72    H101    1.085   .     S
C73    C74     1.400   .     S
C73    H102    1.084   .     S
C74    C75     1.411   .     D
C74    H103    1.083   .     S
C75    C76     1.406   .     S
C75    N87     1.441   .     S
C76    C77     1.399   .     D
C76    H104    1.085   .     S
C77    H105    1.083   .     S
N78    C79     1.437   .     S
N78    H106    1.045   .     S
C79    N80     1.305   .     D
C79    C81     1.505   .     S
C81    N82     1.468   .     S
C81    C85     1.523   .     S
C81    H107    1.113   .     S
N82    C83     1.468   .     S
N82    H108    1.048   .     S
C83    C84     1.522   1_545 S
C83    H109    1.113   .     S
C83    H110    1.115   .     S
C84    C83     1.522   1_565 S
C84    C85     1.509   1_565 S
C84    H111    1.114   .     S
C84    H112    1.114   .     S
C85    C84     1.509   1_545 S
C85    H113    1.115   .     S
C85    H114    1.114   .     S
N86    C88     1.441   .     S
N86    H115    1.046   .     S
N87    C89     1.441   .     S
N87    H116    1.046   .     S
C88    C90     1.355   .     D
C88    H117    1.082   .     S
C89    C91     1.353   .     D
C89    H118    1.085   .     S
C90    C33     1.456   1_655 S
C90    C92     1.486   1_545 S
C91    C93     1.485   .     S
C92    C90     1.486   1_565 S
C92    O94     1.223   .     D
C92    C149    1.456   .     S
C93    O95     1.222   .     D
C93    C150    1.559   .     S
C119   C120    1.413   .     D
C119   C124    1.419   .     S
C119   H155    1.084   .     S
C120   C121    1.408   .     S
C120   H156    1.084   .     S
C121   C122    1.394   .     D
C121   C126    1.471   .     S
C122   C123    1.366   .     S
C122   N137    1.415   .     S
C123   C124    1.407   .     D
C123   N139    1.427   .     S
C124   C125    1.490   .     S
C125   C127    1.408   .     D
C125   C131    1.408   .     S
C126   C132    1.402   .     D
C126   C136    1.402   .     S
C127   C128    1.400   .     S
C127   H157    1.082   .     S
C128   C129    1.410   .     D
C128   H158    1.080   .     S
C129   C130    1.405   .     S
C129   N145    1.444   .     S
C130   C131    1.399   .     D
C130   H159    1.084   .     S
C131   H160    1.085   .     S
C132   C133    1.400   .     S
C132   H161    1.084   .     S
C133   C134    1.411   .     D
C133   H162    1.083   .     S
C134   C135    1.406   .     S
C134   N146    1.441   .     S
C135   C136    1.399   .     D
C135   H163    1.085   .     S
C136   H164    1.083   .     S
N137   C138    1.437   .     S
N137   H165    1.045   .     S
C138   N139    1.305   .     D
C138   C140    1.505   .     S
C140   N141    1.468   .     S
C140   C144    1.523   .     S
C140   H166    1.113   .     S
N141   C142    1.468   .     S
N141   H167    1.048   .     S
C142   C143    1.522   1_655 S
C142   H168    1.113   .     S
C142   H169    1.115   .     S
C143   C142    1.522   1_455 S
C143   C144    1.509   1_455 S
C143   H170    1.114   .     S
C143   H171    1.114   .     S
C144   C143    1.509   1_655 S
C144   H172    1.115   .     S
C144   H173    1.114   .     S
N145   C147    1.441   .     S
N145   H174    1.046   .     S
N146   C148    1.441   .     S
N146   H175    1.046   .     S
C147   C149    1.355   .     D
C147   H176    1.082   .     S
C148   C150    1.353   .     D
C148   H177    1.085   .     S
C149   C151    1.486   1_655 S
C150   C152    1.485   .     S
C151   C149    1.486   1_455 S
C151   C31     1.456   1_565 S
C151   O153    1.223   .     D
C152   O154    1.222   .     D
