data_299
_audit_creation_date              2023-09-08
_audit_creation_method            'Materials Studio'
_symmetry_space_group_name_H-M    'P1'
_symmetry_Int_Tables_number       1
_symmetry_cell_setting            triclinic
loop_
_symmetry_equiv_pos_as_xyz
  x,y,z
_cell_length_a                    27.8380
_cell_length_b                    27.8380
_cell_length_c                    7.5132
_cell_angle_alpha                 90.0000
_cell_angle_beta                  90.0000
_cell_angle_gamma                 90.0000
loop_
_atom_site_label
_atom_site_type_symbol
_atom_site_fract_x
_atom_site_fract_y
_atom_site_fract_z
_atom_site_U_iso_or_equiv
_atom_site_adp_type
_atom_site_occupancy
C1     C     0.28010   0.27810   0.37950   0.00000  Uiso   1.00
C2     C     0.30620   0.25100   0.50100   0.00000  Uiso   1.00
H3     H     0.30430   0.21770   0.49910   0.00000  Uiso   1.00
C4     C     0.33520   0.27380   0.62600   0.00000  Uiso   1.00
H5     H     0.35270   0.25570   0.70740   0.00000  Uiso   1.00
C6     C     0.33810   0.32370   0.62900   0.00000  Uiso   1.00
C7     C     0.31200   0.35070   0.50700   0.00000  Uiso   1.00
H8     H     0.31390   0.38410   0.50950   0.00000  Uiso   1.00
C9     C     0.28300   0.32800   0.38300   0.00000  Uiso   1.00
H10    H     0.26550   0.34610   0.30120   0.00000  Uiso   1.00
N11    N     0.36610   0.35080   0.75300   0.00000  Uiso   1.00
C12    C     0.39200   0.34100   0.89200   0.00000  Uiso   1.00
H13    H     0.39680   0.30830   0.91010   0.00000  Uiso   1.00
C14    C     0.41500   0.37130   0.02600   0.00000  Uiso   1.00
C15    C     0.46120   0.36330   0.08900   0.00000  Uiso   1.00
H16    H     0.47930   0.33780   0.04440   0.00000  Uiso   1.00
C17    C     0.48050   0.39330   0.21800   0.00000  Uiso   1.00
H18    H     0.51150   0.38790   0.26040   0.00000  Uiso   1.00
C19    C     0.45350   0.43130   0.28400   0.00000  Uiso   1.00
C20    C     0.40730   0.43930   0.22100   0.00000  Uiso   1.00
H21    H     0.38920   0.46470   0.26570   0.00000  Uiso   1.00
C22    C     0.38800   0.40930   0.09200   0.00000  Uiso   1.00
H23    H     0.35710   0.41460   0.04970   0.00000  Uiso   1.00
C24    C     0.47320   0.46550   0.41000   0.00000  Uiso   1.00
C25    C     0.45550   0.47690   0.58200   0.00000  Uiso   1.00
C26    C     0.48570   0.51230   0.66000   0.00000  Uiso   1.00
N27    N     0.46730   0.52320   0.83100   0.00000  Uiso   1.00
C28    C     0.42580   0.49450   0.86000   0.00000  Uiso   1.00
H29    H     0.40680   0.49450   0.96150   0.00000  Uiso   1.00
N30    N     0.41850   0.46590   0.70600   0.00000  Uiso   1.00
H31    H     0.39570   0.44550   0.69000   0.00000  Uiso   1.00
C32    C     0.21990   0.22190   0.37950   0.00000  Uiso   1.00
C33    C     0.19380   0.24900   0.50100   0.00000  Uiso   1.00
H34    H     0.19570   0.28230   0.49910   0.00000  Uiso   1.00
C35    C     0.16480   0.22620   0.62600   0.00000  Uiso   1.00
H36    H     0.14730   0.24430   0.70740   0.00000  Uiso   1.00
C37    C     0.16190   0.17630   0.62900   0.00000  Uiso   1.00
C38    C     0.18800   0.14930   0.50700   0.00000  Uiso   1.00
H39    H     0.18610   0.11590   0.50950   0.00000  Uiso   1.00
C40    C     0.21700   0.17200   0.38300   0.00000  Uiso   1.00
H41    H     0.23450   0.15390   0.30120   0.00000  Uiso   1.00
N42    N     0.13390   0.14920   0.75300   0.00000  Uiso   1.00
C43    C     0.10800   0.15900   0.89200   0.00000  Uiso   1.00
H44    H     0.10320   0.19170   0.91010   0.00000  Uiso   1.00
C45    C     0.08500   0.12870   0.02600   0.00000  Uiso   1.00
C46    C     0.03880   0.13670   0.08900   0.00000  Uiso   1.00
H47    H     0.02070   0.16220   0.04440   0.00000  Uiso   1.00
C48    C     0.01950   0.10670   0.21800   0.00000  Uiso   1.00
H49    H     0.98850   0.11210   0.26040   0.00000  Uiso   1.00
C50    C     0.04650   0.06870   0.28400   0.00000  Uiso   1.00
C51    C     0.09270   0.06070   0.22100   0.00000  Uiso   1.00
H52    H     0.11080   0.03530   0.26570   0.00000  Uiso   1.00
C53    C     0.11200   0.09070   0.09200   0.00000  Uiso   1.00
H54    H     0.14290   0.08540   0.04970   0.00000  Uiso   1.00
C55    C     0.02680   0.03450   0.41000   0.00000  Uiso   1.00
C56    C     0.04450   0.02310   0.58200   0.00000  Uiso   1.00
C57    C     0.01430   0.98770   0.66000   0.00000  Uiso   1.00
N58    N     0.03270   0.97680   0.83100   0.00000  Uiso   1.00
C59    C     0.07420   0.00550   0.86000   0.00000  Uiso   1.00
H60    H     0.09320   0.00550   0.96150   0.00000  Uiso   1.00
N61    N     0.08150   0.03410   0.70600   0.00000  Uiso   1.00
H62    H     0.10430   0.05450   0.69000   0.00000  Uiso   1.00
C63    C     0.72190   0.78010   0.87950   0.00000  Uiso   1.00
C64    C     0.74900   0.80620   0.00100   0.00000  Uiso   1.00
H65    H     0.78230   0.80430   0.99910   0.00000  Uiso   1.00
C66    C     0.72620   0.83520   0.12600   0.00000  Uiso   1.00
H67    H     0.74430   0.85270   0.20740   0.00000  Uiso   1.00
C68    C     0.67630   0.83810   0.12900   0.00000  Uiso   1.00
C69    C     0.64930   0.81200   0.00700   0.00000  Uiso   1.00
H70    H     0.61590   0.81390   0.00950   0.00000  Uiso   1.00
C71    C     0.67200   0.78300   0.88300   0.00000  Uiso   1.00
H72    H     0.65390   0.76550   0.80120   0.00000  Uiso   1.00
N73    N     0.64920   0.86610   0.25300   0.00000  Uiso   1.00
C74    C     0.65900   0.89200   0.39200   0.00000  Uiso   1.00
H75    H     0.69170   0.89680   0.41010   0.00000  Uiso   1.00
C76    C     0.62870   0.91500   0.52600   0.00000  Uiso   1.00
C77    C     0.63670   0.96120   0.58900   0.00000  Uiso   1.00
H78    H     0.66220   0.97930   0.54440   0.00000  Uiso   1.00
C79    C     0.60670   0.98050   0.71800   0.00000  Uiso   1.00
H80    H     0.61210   0.01150   0.76040   0.00000  Uiso   1.00
C81    C     0.56870   0.95350   0.78400   0.00000  Uiso   1.00
C82    C     0.56070   0.90730   0.72100   0.00000  Uiso   1.00
H83    H     0.53530   0.88920   0.76570   0.00000  Uiso   1.00
C84    C     0.59070   0.88800   0.59200   0.00000  Uiso   1.00
H85    H     0.58540   0.85710   0.54970   0.00000  Uiso   1.00
C86    C     0.53450   0.97320   0.91000   0.00000  Uiso   1.00
C87    C     0.52310   0.95550   0.08200   0.00000  Uiso   1.00
C88    C     0.48770   0.98570   0.16000   0.00000  Uiso   1.00
N89    N     0.47680   0.96730   0.33100   0.00000  Uiso   1.00
C90    C     0.50550   0.92580   0.36000   0.00000  Uiso   1.00
H91    H     0.50550   0.90680   0.46150   0.00000  Uiso   1.00
N92    N     0.53410   0.91850   0.20600   0.00000  Uiso   1.00
H93    H     0.55450   0.89570   0.19000   0.00000  Uiso   1.00
C94    C     0.77810   0.71990   0.87950   0.00000  Uiso   1.00
C95    C     0.75100   0.69380   0.00100   0.00000  Uiso   1.00
H96    H     0.71770   0.69570   0.99910   0.00000  Uiso   1.00
C97    C     0.77380   0.66480   0.12600   0.00000  Uiso   1.00
H98    H     0.75570   0.64730   0.20740   0.00000  Uiso   1.00
C99    C     0.82370   0.66190   0.12900   0.00000  Uiso   1.00
C100   C     0.85070   0.68800   0.00700   0.00000  Uiso   1.00
H101   H     0.88410   0.68610   0.00950   0.00000  Uiso   1.00
C102   C     0.82800   0.71700   0.88300   0.00000  Uiso   1.00
H103   H     0.84610   0.73450   0.80120   0.00000  Uiso   1.00
N104   N     0.85080   0.63390   0.25300   0.00000  Uiso   1.00
C105   C     0.84100   0.60800   0.39200   0.00000  Uiso   1.00
H106   H     0.80830   0.60320   0.41010   0.00000  Uiso   1.00
C107   C     0.87130   0.58500   0.52600   0.00000  Uiso   1.00
C108   C     0.86330   0.53880   0.58900   0.00000  Uiso   1.00
H109   H     0.83780   0.52070   0.54440   0.00000  Uiso   1.00
C110   C     0.89330   0.51950   0.71800   0.00000  Uiso   1.00
H111   H     0.88790   0.48850   0.76040   0.00000  Uiso   1.00
C112   C     0.93130   0.54650   0.78400   0.00000  Uiso   1.00
C113   C     0.93930   0.59270   0.72100   0.00000  Uiso   1.00
H114   H     0.96470   0.61080   0.76570   0.00000  Uiso   1.00
C115   C     0.90930   0.61200   0.59200   0.00000  Uiso   1.00
H116   H     0.91460   0.64290   0.54970   0.00000  Uiso   1.00
C117   C     0.96550   0.52680   0.91000   0.00000  Uiso   1.00
C118   C     0.97690   0.54450   0.08200   0.00000  Uiso   1.00
C119   C     0.01230   0.51430   0.16000   0.00000  Uiso   1.00
N120   N     0.02320   0.53270   0.33100   0.00000  Uiso   1.00
C121   C     0.99450   0.57420   0.36000   0.00000  Uiso   1.00
H122   H     0.99450   0.59320   0.46150   0.00000  Uiso   1.00
N123   N     0.96590   0.58150   0.20600   0.00000  Uiso   1.00
H124   H     0.94550   0.60430   0.19000   0.00000  Uiso   1.00
C125   C     0.71990   0.72190   0.62050   0.00000  Uiso   1.00
C126   C     0.69380   0.74900   0.49900   0.00000  Uiso   1.00
H127   H     0.69570   0.78230   0.50090   0.00000  Uiso   1.00
C128   C     0.66480   0.72620   0.37400   0.00000  Uiso   1.00
H129   H     0.64730   0.74430   0.29260   0.00000  Uiso   1.00
C130   C     0.66190   0.67630   0.37100   0.00000  Uiso   1.00
C131   C     0.68800   0.64930   0.49300   0.00000  Uiso   1.00
H132   H     0.68610   0.61590   0.49050   0.00000  Uiso   1.00
C133   C     0.71700   0.67200   0.61700   0.00000  Uiso   1.00
H134   H     0.73450   0.65390   0.69880   0.00000  Uiso   1.00
N135   N     0.63390   0.64920   0.24700   0.00000  Uiso   1.00
C136   C     0.60800   0.65900   0.10800   0.00000  Uiso   1.00
H137   H     0.60320   0.69170   0.08990   0.00000  Uiso   1.00
C138   C     0.58500   0.62870   0.97400   0.00000  Uiso   1.00
C139   C     0.53880   0.63670   0.91100   0.00000  Uiso   1.00
H140   H     0.52070   0.66220   0.95560   0.00000  Uiso   1.00
C141   C     0.51950   0.60670   0.78200   0.00000  Uiso   1.00
H142   H     0.48850   0.61210   0.73960   0.00000  Uiso   1.00
C143   C     0.54650   0.56870   0.71600   0.00000  Uiso   1.00
C144   C     0.59270   0.56070   0.77900   0.00000  Uiso   1.00
H145   H     0.61080   0.53530   0.73430   0.00000  Uiso   1.00
C146   C     0.61200   0.59070   0.90800   0.00000  Uiso   1.00
H147   H     0.64290   0.58540   0.95030   0.00000  Uiso   1.00
C148   C     0.52680   0.53450   0.59000   0.00000  Uiso   1.00
C149   C     0.54450   0.52310   0.41800   0.00000  Uiso   1.00
C150   C     0.51430   0.48770   0.34000   0.00000  Uiso   1.00
N151   N     0.53270   0.47680   0.16900   0.00000  Uiso   1.00
C152   C     0.57420   0.50550   0.14000   0.00000  Uiso   1.00
H153   H     0.59320   0.50550   0.03850   0.00000  Uiso   1.00
N154   N     0.58150   0.53410   0.29400   0.00000  Uiso   1.00
H155   H     0.60430   0.55450   0.31000   0.00000  Uiso   1.00
C156   C     0.78010   0.77810   0.62050   0.00000  Uiso   1.00
C157   C     0.80620   0.75100   0.49900   0.00000  Uiso   1.00
H158   H     0.80430   0.71770   0.50090   0.00000  Uiso   1.00
C159   C     0.83520   0.77380   0.37400   0.00000  Uiso   1.00
H160   H     0.85270   0.75570   0.29260   0.00000  Uiso   1.00
C161   C     0.83810   0.82370   0.37100   0.00000  Uiso   1.00
C162   C     0.81200   0.85070   0.49300   0.00000  Uiso   1.00
H163   H     0.81390   0.88410   0.49050   0.00000  Uiso   1.00
C164   C     0.78300   0.82800   0.61700   0.00000  Uiso   1.00
H165   H     0.76550   0.84610   0.69880   0.00000  Uiso   1.00
N166   N     0.86610   0.85080   0.24700   0.00000  Uiso   1.00
C167   C     0.89200   0.84100   0.10800   0.00000  Uiso   1.00
H168   H     0.89680   0.80830   0.08990   0.00000  Uiso   1.00
C169   C     0.91500   0.87130   0.97400   0.00000  Uiso   1.00
C170   C     0.96120   0.86330   0.91100   0.00000  Uiso   1.00
H171   H     0.97930   0.83780   0.95560   0.00000  Uiso   1.00
C172   C     0.98050   0.89330   0.78200   0.00000  Uiso   1.00
H173   H     0.01150   0.88790   0.73960   0.00000  Uiso   1.00
C174   C     0.95350   0.93130   0.71600   0.00000  Uiso   1.00
C175   C     0.90730   0.93930   0.77900   0.00000  Uiso   1.00
H176   H     0.88920   0.96470   0.73430   0.00000  Uiso   1.00
C177   C     0.88800   0.90930   0.90800   0.00000  Uiso   1.00
H178   H     0.85710   0.91460   0.95030   0.00000  Uiso   1.00
C179   C     0.97320   0.96550   0.59000   0.00000  Uiso   1.00
C180   C     0.95550   0.97690   0.41800   0.00000  Uiso   1.00
C181   C     0.98570   0.01230   0.34000   0.00000  Uiso   1.00
N182   N     0.96730   0.02320   0.16900   0.00000  Uiso   1.00
C183   C     0.92580   0.99450   0.14000   0.00000  Uiso   1.00
H184   H     0.90680   0.99450   0.03850   0.00000  Uiso   1.00
N185   N     0.91850   0.96590   0.29400   0.00000  Uiso   1.00
H186   H     0.89570   0.94550   0.31000   0.00000  Uiso   1.00
C187   C     0.27810   0.21990   0.12050   0.00000  Uiso   1.00
C188   C     0.25100   0.19380   0.99900   0.00000  Uiso   1.00
H189   H     0.21770   0.19570   0.00090   0.00000  Uiso   1.00
C190   C     0.27380   0.16480   0.87400   0.00000  Uiso   1.00
H191   H     0.25570   0.14730   0.79260   0.00000  Uiso   1.00
C192   C     0.32370   0.16190   0.87100   0.00000  Uiso   1.00
C193   C     0.35070   0.18800   0.99300   0.00000  Uiso   1.00
H194   H     0.38410   0.18610   0.99050   0.00000  Uiso   1.00
C195   C     0.32800   0.21700   0.11700   0.00000  Uiso   1.00
H196   H     0.34610   0.23450   0.19880   0.00000  Uiso   1.00
N197   N     0.35080   0.13390   0.74700   0.00000  Uiso   1.00
C198   C     0.34100   0.10800   0.60800   0.00000  Uiso   1.00
H199   H     0.30830   0.10320   0.58990   0.00000  Uiso   1.00
C200   C     0.37130   0.08500   0.47400   0.00000  Uiso   1.00
C201   C     0.36330   0.03880   0.41100   0.00000  Uiso   1.00
H202   H     0.33780   0.02070   0.45560   0.00000  Uiso   1.00
C203   C     0.39330   0.01950   0.28200   0.00000  Uiso   1.00
H204   H     0.38790   0.98850   0.23960   0.00000  Uiso   1.00
C205   C     0.43130   0.04650   0.21600   0.00000  Uiso   1.00
C206   C     0.43930   0.09270   0.27900   0.00000  Uiso   1.00
H207   H     0.46470   0.11080   0.23430   0.00000  Uiso   1.00
C208   C     0.40930   0.11200   0.40800   0.00000  Uiso   1.00
H209   H     0.41460   0.14290   0.45030   0.00000  Uiso   1.00
C210   C     0.46550   0.02680   0.09000   0.00000  Uiso   1.00
C211   C     0.47690   0.04450   0.91800   0.00000  Uiso   1.00
C212   C     0.51230   0.01430   0.84000   0.00000  Uiso   1.00
N213   N     0.52320   0.03270   0.66900   0.00000  Uiso   1.00
C214   C     0.49450   0.07420   0.64000   0.00000  Uiso   1.00
H215   H     0.49450   0.09320   0.53850   0.00000  Uiso   1.00
N216   N     0.46590   0.08150   0.79400   0.00000  Uiso   1.00
H217   H     0.44550   0.10430   0.81000   0.00000  Uiso   1.00
C218   C     0.22190   0.28010   0.12050   0.00000  Uiso   1.00
C219   C     0.24900   0.30620   0.99900   0.00000  Uiso   1.00
H220   H     0.28230   0.30430   0.00090   0.00000  Uiso   1.00
C221   C     0.22620   0.33520   0.87400   0.00000  Uiso   1.00
H222   H     0.24430   0.35270   0.79260   0.00000  Uiso   1.00
C223   C     0.17630   0.33810   0.87100   0.00000  Uiso   1.00
C224   C     0.14930   0.31200   0.99300   0.00000  Uiso   1.00
H225   H     0.11590   0.31390   0.99050   0.00000  Uiso   1.00
C226   C     0.17200   0.28300   0.11700   0.00000  Uiso   1.00
H227   H     0.15390   0.26550   0.19880   0.00000  Uiso   1.00
N228   N     0.14920   0.36610   0.74700   0.00000  Uiso   1.00
C229   C     0.15900   0.39200   0.60800   0.00000  Uiso   1.00
H230   H     0.19170   0.39680   0.58990   0.00000  Uiso   1.00
C231   C     0.12870   0.41500   0.47400   0.00000  Uiso   1.00
C232   C     0.13670   0.46120   0.41100   0.00000  Uiso   1.00
H233   H     0.16220   0.47930   0.45560   0.00000  Uiso   1.00
C234   C     0.10670   0.48050   0.28200   0.00000  Uiso   1.00
H235   H     0.11210   0.51150   0.23960   0.00000  Uiso   1.00
C236   C     0.06870   0.45350   0.21600   0.00000  Uiso   1.00
C237   C     0.06070   0.40730   0.27900   0.00000  Uiso   1.00
H238   H     0.03530   0.38920   0.23430   0.00000  Uiso   1.00
C239   C     0.09070   0.38800   0.40800   0.00000  Uiso   1.00
H240   H     0.08540   0.35710   0.45030   0.00000  Uiso   1.00
C241   C     0.03450   0.47320   0.09000   0.00000  Uiso   1.00
C242   C     0.02310   0.45550   0.91800   0.00000  Uiso   1.00
C243   C     0.98770   0.48570   0.84000   0.00000  Uiso   1.00
N244   N     0.97680   0.46730   0.66900   0.00000  Uiso   1.00
C245   C     0.00550   0.42580   0.64000   0.00000  Uiso   1.00
H246   H     0.00550   0.40680   0.53850   0.00000  Uiso   1.00
N247   N     0.03410   0.41850   0.79400   0.00000  Uiso   1.00
H248   H     0.05450   0.39570   0.81000   0.00000  Uiso   1.00
C249   C     0.25000   0.25000   0.25000   0.00000  Uiso   1.00
C250   C     0.75000   0.75000   0.75000   0.00000  Uiso   1.00
loop_
_geom_bond_atom_site_label_1
_geom_bond_atom_site_label_2
_geom_bond_distance
_geom_bond_site_symmetry_2
_ccdc_geom_bond_type
C1     C2      1.389   .     D
C1     C9      1.392   .     S
C1     C249    1.504   .     S
C2     H3      0.929   .     S
C2     C4      1.392   .     S
C4     H5      0.930   .     S
C4     C6      1.392   .     D
C6     C7      1.390   .     S
C6     N11     1.430   .     S
C7     H8      0.931   .     S
C7     C9      1.385   .     D
C9     H10     0.932   .     S
N11    C12     1.298   .     D
C12    H13     0.930   .     S
C12    C14     1.461   1_556 S
C14    C12     1.461   1_554 S
C14    C15     1.388   .     D
C14    C22     1.389   .     S
C15    H16     0.933   .     S
C15    C17     1.388   .     S
C17    H18     0.932   .     S
C17    C19     1.389   .     D
C19    C20     1.388   .     S
C19    C24     1.450   .     S
C20    H21     0.931   .     S
C20    C22     1.388   .     D
C22    H23     0.929   .     S
C24    C25     1.419   .     S
C24    C150    1.403   .     D
C25    C26     1.422   .     D
C25    N30     1.422   .     S
C26    N27     1.416   .     S
C26    C148    1.403   .     S
N27    C28     1.421   .     D
C28    H29     0.928   .     S
C28    N30     1.419   .     S
N30    H31     0.860   .     S
C32    C33     1.389   .     D
C32    C40     1.392   .     S
C32    C249    1.504   .     S
C33    H34     0.929   .     S
C33    C35     1.392   .     S
C35    H36     0.930   .     S
C35    C37     1.392   .     D
C37    C38     1.390   .     S
C37    N42     1.430   .     S
C38    H39     0.931   .     S
C38    C40     1.385   .     D
C40    H41     0.932   .     S
N42    C43     1.298   .     D
C43    H44     0.930   .     S
C43    C45     1.461   1_556 S
C45    C43     1.461   1_554 S
C45    C46     1.388   .     D
C45    C53     1.389   .     S
C46    H47     0.933   .     S
C46    C48     1.388   .     S
C48    H49     0.932   1_455 S
C48    C50     1.389   .     D
H49    C48     0.932   1_655 S
C50    C51     1.388   .     S
C50    C55     1.450   .     S
C51    H52     0.931   .     S
C51    C53     1.388   .     D
C53    H54     0.929   .     S
C55    C56     1.419   .     S
C55    C181    1.403   1_455 D
C56    C57     1.422   1_545 D
C56    N61     1.422   .     S
C57    C56     1.422   1_565 D
C57    N58     1.416   .     S
C57    C179    1.403   1_455 S
N58    C59     1.421   1_565 D
C59    N58     1.421   1_545 D
C59    H60     0.928   .     S
C59    N61     1.419   .     S
N61    H62     0.860   .     S
C63    C64     1.389   1_556 D
C63    C71     1.392   .     S
C63    C250    1.504   .     S
C64    C63     1.389   1_554 D
C64    H65     0.929   1_554 S
C64    C66     1.392   .     S
H65    C64     0.929   1_556 S
C66    H67     0.930   .     S
C66    C68     1.392   .     D
C68    C69     1.390   .     S
C68    N73     1.430   .     S
C69    H70     0.931   .     S
C69    C71     1.385   1_554 D
C71    C69     1.385   1_556 D
C71    H72     0.932   .     S
N73    C74     1.298   .     D
C74    H75     0.930   .     S
C74    C76     1.461   .     S
C76    C77     1.388   .     D
C76    C84     1.389   .     S
C77    H78     0.933   .     S
C77    C79     1.388   .     S
C79    H80     0.932   1_565 S
C79    C81     1.389   .     D
H80    C79     0.932   1_545 S
C81    C82     1.388   .     S
C81    C86     1.450   .     S
C82    H83     0.931   .     S
C82    C84     1.388   .     D
C84    H85     0.929   .     S
C86    C87     1.419   1_556 S
C86    C212    1.403   1_565 D
C87    C86     1.419   1_554 S
C87    C88     1.422   .     D
C87    N92     1.422   .     S
C88    N89     1.416   .     S
C88    C210    1.403   1_565 S
N89    C90     1.421   .     D
C90    H91     0.928   .     S
C90    N92     1.419   .     S
N92    H93     0.860   .     S
C94    C95     1.389   1_556 D
C94    C102    1.392   .     S
C94    C250    1.504   .     S
C95    C94     1.389   1_554 D
C95    H96     0.929   1_554 S
C95    C97     1.392   .     S
H96    C95     0.929   1_556 S
C97    H98     0.930   .     S
C97    C99     1.392   .     D
C99    C100    1.390   .     S
C99    N104    1.430   .     S
C100   H101    0.931   .     S
C100   C102    1.385   1_554 D
C102   C100    1.385   1_556 D
C102   H103    0.932   .     S
N104   C105    1.298   .     D
C105   H106    0.930   .     S
C105   C107    1.461   .     S
C107   C108    1.388   .     D
C107   C115    1.389   .     S
C108   H109    0.933   .     S
C108   C110    1.388   .     S
C110   H111    0.932   .     S
C110   C112    1.389   .     D
C112   C113    1.388   .     S
C112   C117    1.450   .     S
C113   H114    0.931   .     S
C113   C115    1.388   .     D
C115   H116    0.929   .     S
C117   C118    1.419   1_556 S
C117   C243    1.403   .     D
C118   C117    1.419   1_554 S
C118   C119    1.422   1_655 D
C118   N123    1.422   .     S
C119   C118    1.422   1_455 D
C119   N120    1.416   .     S
C119   C241    1.403   .     S
N120   C121    1.421   1_455 D
C121   N120    1.421   1_655 D
C121   H122    0.928   .     S
C121   N123    1.419   .     S
N123   H124    0.860   .     S
C125   C126    1.389   .     D
C125   C133    1.392   .     S
C125   C250    1.504   .     S
C126   H127    0.929   .     S
C126   C128    1.392   .     S
C128   H129    0.930   .     S
C128   C130    1.392   .     D
C130   C131    1.390   .     S
C130   N135    1.430   .     S
C131   H132    0.931   .     S
C131   C133    1.385   .     D
C133   H134    0.932   .     S
N135   C136    1.298   .     D
C136   H137    0.930   .     S
C136   C138    1.461   1_554 S
C138   C136    1.461   1_556 S
C138   C139    1.388   .     D
C138   C146    1.389   .     S
C139   H140    0.933   .     S
C139   C141    1.388   .     S
C141   H142    0.932   .     S
C141   C143    1.389   .     D
C143   C144    1.388   .     S
C143   C148    1.450   .     S
C144   H145    0.931   .     S
C144   C146    1.388   .     D
C146   H147    0.929   .     S
C148   C149    1.419   .     D
C149   C150    1.422   .     S
C149   N154    1.422   .     S
C150   N151    1.416   .     S
N151   C152    1.421   .     D
C152   H153    0.928   .     S
C152   N154    1.419   .     S
N154   H155    0.860   .     S
C156   C157    1.389   .     D
C156   C164    1.392   .     S
C156   C250    1.504   .     S
C157   H158    0.929   .     S
C157   C159    1.392   .     S
C159   H160    0.930   .     S
C159   C161    1.392   .     D
C161   C162    1.390   .     S
C161   N166    1.430   .     S
C162   H163    0.931   .     S
C162   C164    1.385   .     D
C164   H165    0.932   .     S
N166   C167    1.298   .     D
C167   H168    0.930   .     S
C167   C169    1.461   1_554 S
C169   C167    1.461   1_556 S
C169   C170    1.388   .     D
C169   C177    1.389   .     S
C170   H171    0.933   .     S
C170   C172    1.388   .     S
C172   H173    0.932   1_655 S
C172   C174    1.389   .     D
H173   C172    0.932   1_455 S
C174   C175    1.388   .     S
C174   C179    1.450   .     S
C175   H176    0.931   .     S
C175   C177    1.388   .     D
C177   H178    0.929   .     S
C179   C57     1.403   1_655 S
C179   C180    1.419   .     D
C180   C181    1.422   1_565 S
C180   N185    1.422   .     S
C181   C55     1.403   1_655 D
C181   C180    1.422   1_545 S
C181   N182    1.416   .     S
N182   C183    1.421   1_545 D
C183   N182    1.421   1_565 D
C183   H184    0.928   .     S
C183   N185    1.419   .     S
N185   H186    0.860   .     S
C187   C188    1.389   1_554 D
C187   C195    1.392   .     S
C187   C249    1.504   .     S
C188   C187    1.389   1_556 D
C188   H189    0.929   1_556 S
C188   C190    1.392   .     S
H189   C188    0.929   1_554 S
C190   H191    0.930   .     S
C190   C192    1.392   .     D
C192   C193    1.390   .     S
C192   N197    1.430   .     S
C193   H194    0.931   .     S
C193   C195    1.385   1_556 D
C195   C193    1.385   1_554 D
C195   H196    0.932   .     S
N197   C198    1.298   .     D
C198   H199    0.930   .     S
C198   C200    1.461   .     S
C200   C201    1.388   .     D
C200   C208    1.389   .     S
C201   H202    0.933   .     S
C201   C203    1.388   .     S
C203   H204    0.932   1_545 S
C203   C205    1.389   .     D
H204   C203    0.932   1_565 S
C205   C206    1.388   .     S
C205   C210    1.450   .     S
C206   H207    0.931   .     S
C206   C208    1.388   .     D
C208   H209    0.929   .     S
C210   C88     1.403   1_545 S
C210   C211    1.419   1_554 D
C211   C210    1.419   1_556 D
C211   C212    1.422   .     S
C211   N216    1.422   .     S
C212   C86     1.403   1_545 D
C212   N213    1.416   .     S
N213   C214    1.421   .     D
C214   H215    0.928   .     S
C214   N216    1.419   .     S
N216   H217    0.860   .     S
C218   C219    1.389   1_554 D
C218   C226    1.392   .     S
C218   C249    1.504   .     S
C219   C218    1.389   1_556 D
C219   H220    0.929   1_556 S
C219   C221    1.392   .     S
H220   C219    0.929   1_554 S
C221   H222    0.930   .     S
C221   C223    1.392   .     D
C223   C224    1.390   .     S
C223   N228    1.430   .     S
C224   H225    0.931   .     S
C224   C226    1.385   1_556 D
C226   C224    1.385   1_554 D
C226   H227    0.932   .     S
N228   C229    1.298   .     D
C229   H230    0.930   .     S
C229   C231    1.461   .     S
C231   C232    1.388   .     D
C231   C239    1.389   .     S
C232   H233    0.933   .     S
C232   C234    1.388   .     S
C234   H235    0.932   .     S
C234   C236    1.389   .     D
C236   C237    1.388   .     S
C236   C241    1.450   .     S
C237   H238    0.931   .     S
C237   C239    1.388   .     D
C239   H240    0.929   .     S
C241   C242    1.419   1_554 D
C242   C241    1.419   1_556 D
C242   C243    1.422   1_455 S
C242   N247    1.422   .     S
C243   C242    1.422   1_655 S
C243   N244    1.416   .     S
N244   C245    1.421   1_655 D
C245   N244    1.421   1_455 D
C245   H246    0.928   .     S
C245   N247    1.419   .     S
N247   H248    0.860   .     S
