data_3
_audit_creation_date              2023-09-08
_audit_creation_method            'Materials Studio'
_symmetry_space_group_name_H-M    'P1'
_symmetry_Int_Tables_number       1
_symmetry_cell_setting            triclinic
loop_
_symmetry_equiv_pos_as_xyz
  x,y,z
_cell_length_a                    36.8884
_cell_length_b                    36.8884
_cell_length_c                    4.5446
_cell_angle_alpha                 90.0000
_cell_angle_beta                  90.0000
_cell_angle_gamma                 120.0000
loop_
_atom_site_label
_atom_site_type_symbol
_atom_site_fract_x
_atom_site_fract_y
_atom_site_fract_z
_atom_site_U_iso_or_equiv
_atom_site_adp_type
_atom_site_occupancy
C1     C     0.29132   0.63493  -0.27176   0.00000  Uiso   1.00
C2     C     0.30135   0.67696  -0.27020   0.00000  Uiso   1.00
C3     C     0.26746   0.68698  -0.23997   0.00000  Uiso   1.00
C4     C     0.57819   0.80929  -0.06087   0.00000  Uiso   1.00
C5     C     0.75508   0.90555   0.21354   0.00000  Uiso   1.00
C6     C     0.77355   0.89117   0.41935   0.00000  Uiso   1.00
C7     C     0.81706   0.91103   0.44852   0.00000  Uiso   1.00
C8     C     0.84302   0.94616   0.27509   0.00000  Uiso   1.00
C9     C     0.82476   0.96110   0.07529   0.00000  Uiso   1.00
C10    C     0.78136   0.94050   0.03988   0.00000  Uiso   1.00
C11    C     0.54654   0.81274   0.08496   0.00000  Uiso   1.00
C12    C     0.50450   0.78625   0.01361   0.00000  Uiso   1.00
C13    C     0.49322   0.75494  -0.20092   0.00000  Uiso   1.00
C14    C     0.52463   0.75057  -0.34051   0.00000  Uiso   1.00
C15    C     0.56678   0.77781  -0.27423   0.00000  Uiso   1.00
N16    N     0.45020   0.72490  -0.26004   0.00000  Uiso   1.00
C17    C     0.95596   0.97649   0.39474   0.00000  Uiso   1.00
C18    C     0.97955   0.95623   0.39605   0.00000  Uiso   1.00
C19    C     0.90987   0.95128   0.38466   0.00000  Uiso   1.00
N20    N     0.88780   0.96793   0.30015   0.00000  Uiso   1.00
O21    O     0.64286   0.98623  -0.12599   0.00000  Uiso   1.00
O22    O     0.62112   0.89986  -0.06081   0.00000  Uiso   1.00
O23    O     0.70455   0.94740   0.11488   0.00000  Uiso   1.00
O24    O     0.75795   0.03327   0.12895   0.00000  Uiso   1.00
O25    O     0.71124   0.06154  -0.13530   0.00000  Uiso   1.00
C26    C     0.73888   0.08821   0.08333   0.00000  Uiso   1.00
C27    C     0.77329   0.07705   0.13650   0.00000  Uiso   1.00
C28    C     0.73200   0.01321   0.37390   0.00000  Uiso   1.00
C29    C     0.72160   0.96783   0.38924   0.00000  Uiso   1.00
C30    C     0.63863   0.01907  -0.25161   0.00000  Uiso   1.00
C31    C     0.67257   0.06082  -0.12771   0.00000  Uiso   1.00
C32    C     0.60476   0.95519  -0.00386   0.00000  Uiso   1.00
C33    C     0.61215   0.92294   0.15233   0.00000  Uiso   1.00
C34    C     0.68544   0.90352   0.11962   0.00000  Uiso   1.00
C35    C     0.64244   0.87974   0.04363   0.00000  Uiso   1.00
C36    C     0.62267   0.83562   0.02774   0.00000  Uiso   1.00
C37    C     0.64553   0.81581   0.09541   0.00000  Uiso   1.00
C38    C     0.68778   0.83896   0.16497   0.00000  Uiso   1.00
C39    C     0.70873   0.88286   0.17257   0.00000  Uiso   1.00
H40    H     0.25876   0.61049  -0.26314   0.00000  Uiso   1.00
H41    H     0.23603   0.66177  -0.19374   0.00000  Uiso   1.00
H42    H     0.75430   0.86481   0.56085   0.00000  Uiso   1.00
H43    H     0.83015   0.89956   0.61226   0.00000  Uiso   1.00
H44    H     0.84434   0.98816  -0.05964   0.00000  Uiso   1.00
H45    H     0.76842   0.95191  -0.12379   0.00000  Uiso   1.00
H46    H     0.55402   0.83398   0.26737   0.00000  Uiso   1.00
H47    H     0.48084   0.78880   0.13771   0.00000  Uiso   1.00
H48    H     0.51640   0.72610  -0.50216   0.00000  Uiso   1.00
H49    H     0.59050   0.77393  -0.38657   0.00000  Uiso   1.00
H50    H     0.96360   0.92232   0.39437   0.00000  Uiso   1.00
H51    H     0.89495   0.91804   0.42957   0.00000  Uiso   1.00
H52    H     0.72308   0.08525   0.29788   0.00000  Uiso   1.00
H53    H     0.75341   0.12132   0.00981   0.00000  Uiso   1.00
H54    H     0.79676   0.09148  -0.04244   0.00000  Uiso   1.00
H55    H     0.79017   0.09127   0.34572   0.00000  Uiso   1.00
H56    H     0.70209   0.01333   0.35426   0.00000  Uiso   1.00
H57    H     0.74795   0.02861   0.58183   0.00000  Uiso   1.00
H58    H     0.75062   0.96761   0.44308   0.00000  Uiso   1.00
H59    H     0.69855   0.95205   0.56854   0.00000  Uiso   1.00
H60    H     0.60749   0.01656  -0.21682   0.00000  Uiso   1.00
H61    H     0.64316   0.01885  -0.49227   0.00000  Uiso   1.00
H62    H     0.67473   0.08678  -0.26474   0.00000  Uiso   1.00
H63    H     0.66266   0.06387   0.09788   0.00000  Uiso   1.00
H64    H     0.58089   0.93941  -0.17969   0.00000  Uiso   1.00
H65    H     0.59280   0.96898   0.16129   0.00000  Uiso   1.00
H66    H     0.63764   0.93917   0.31475   0.00000  Uiso   1.00
H67    H     0.58333   0.90164   0.27697   0.00000  Uiso   1.00
H68    H     0.63071   0.78199   0.08871   0.00000  Uiso   1.00
H69    H     0.70454   0.82223   0.20125   0.00000  Uiso   1.00
C70    C     0.36507   0.65639  -0.27176   0.00000  Uiso   1.00
C71    C     0.32304   0.62439  -0.27020   0.00000  Uiso   1.00
C72    C     0.31302   0.58048  -0.23997   0.00000  Uiso   1.00
C73    C     0.19071   0.76890  -0.06087   0.00000  Uiso   1.00
C74    C     0.09445   0.84953   0.21354   0.00000  Uiso   1.00
C75    C     0.10883   0.88238   0.41935   0.00000  Uiso   1.00
C76    C     0.08897   0.90603   0.44852   0.00000  Uiso   1.00
C77    C     0.05384   0.89686   0.27509   0.00000  Uiso   1.00
C78    C     0.03890   0.86366   0.07529   0.00000  Uiso   1.00
C79    C     0.05950   0.84086   0.03988   0.00000  Uiso   1.00
C80    C     0.18726   0.73380   0.08496   0.00000  Uiso   1.00
C81    C     0.21375   0.71825   0.01361   0.00000  Uiso   1.00
C82    C     0.24506   0.73828  -0.20092   0.00000  Uiso   1.00
C83    C     0.24943   0.77406  -0.34051   0.00000  Uiso   1.00
C84    C     0.22219   0.78897  -0.27423   0.00000  Uiso   1.00
N85    N     0.27510   0.72530  -0.26004   0.00000  Uiso   1.00
C86    C     0.02351   0.97947   0.39474   0.00000  Uiso   1.00
C87    C     0.04377   0.02332   0.39605   0.00000  Uiso   1.00
C88    C     0.04872   0.95859   0.38466   0.00000  Uiso   1.00
N89    N     0.03207   0.91987   0.30015   0.00000  Uiso   1.00
O90    O     0.01377   0.65663  -0.12599   0.00000  Uiso   1.00
O91    O     0.10014   0.72126  -0.06081   0.00000  Uiso   1.00
O92    O     0.05260   0.75715   0.11488   0.00000  Uiso   1.00
O93    O     0.96673   0.72468   0.12895   0.00000  Uiso   1.00
O94    O     0.93846   0.64970  -0.13530   0.00000  Uiso   1.00
C95    C     0.91179   0.65067   0.08333   0.00000  Uiso   1.00
C96    C     0.92295   0.69624   0.13650   0.00000  Uiso   1.00
C97    C     0.98679   0.71879   0.37390   0.00000  Uiso   1.00
C98    C     0.03217   0.75377   0.38924   0.00000  Uiso   1.00
C99    C     0.98093   0.61956  -0.25161   0.00000  Uiso   1.00
C100   C     0.93918   0.61175  -0.12771   0.00000  Uiso   1.00
C101   C     0.04481   0.64957  -0.00386   0.00000  Uiso   1.00
C102   C     0.07706   0.68921   0.15233   0.00000  Uiso   1.00
C103   C     0.09648   0.78192   0.11962   0.00000  Uiso   1.00
C104   C     0.12026   0.76270   0.04363   0.00000  Uiso   1.00
C105   C     0.16438   0.78705   0.02774   0.00000  Uiso   1.00
C106   C     0.18419   0.82972   0.09541   0.00000  Uiso   1.00
C107   C     0.16104   0.84882   0.16497   0.00000  Uiso   1.00
C108   C     0.11714   0.82587   0.17257   0.00000  Uiso   1.00
H109   H     0.38951   0.64827  -0.26314   0.00000  Uiso   1.00
H110   H     0.33823   0.57426  -0.19374   0.00000  Uiso   1.00
H111   H     0.13519   0.88949   0.56085   0.00000  Uiso   1.00
H112   H     0.10044   0.93059   0.61226   0.00000  Uiso   1.00
H113   H     0.01184   0.85618  -0.05964   0.00000  Uiso   1.00
H114   H     0.04809   0.81651  -0.12379   0.00000  Uiso   1.00
H115   H     0.16602   0.72004   0.26737   0.00000  Uiso   1.00
H116   H     0.21120   0.69204   0.13771   0.00000  Uiso   1.00
H117   H     0.27390   0.79030  -0.50216   0.00000  Uiso   1.00
H118   H     0.22607   0.81657  -0.38657   0.00000  Uiso   1.00
H119   H     0.07768   0.04128   0.39437   0.00000  Uiso   1.00
H120   H     0.08196   0.97691   0.42957   0.00000  Uiso   1.00
H121   H     0.91475   0.63783   0.29788   0.00000  Uiso   1.00
H122   H     0.87868   0.63209   0.00981   0.00000  Uiso   1.00
H123   H     0.90852   0.70528  -0.04244   0.00000  Uiso   1.00
H124   H     0.90873   0.69890   0.34572   0.00000  Uiso   1.00
H125   H     0.98667   0.68876   0.35426   0.00000  Uiso   1.00
H126   H     0.97139   0.71934   0.58183   0.00000  Uiso   1.00
H127   H     0.03239   0.78301   0.44308   0.00000  Uiso   1.00
H128   H     0.04795   0.74650   0.56854   0.00000  Uiso   1.00
H129   H     0.98344   0.59093  -0.21682   0.00000  Uiso   1.00
H130   H     0.98115   0.62431  -0.49227   0.00000  Uiso   1.00
H131   H     0.91322   0.58795  -0.26474   0.00000  Uiso   1.00
H132   H     0.93613   0.59879   0.09788   0.00000  Uiso   1.00
H133   H     0.06059   0.64148  -0.17969   0.00000  Uiso   1.00
H134   H     0.03102   0.62382   0.16129   0.00000  Uiso   1.00
H135   H     0.06083   0.69847   0.31475   0.00000  Uiso   1.00
H136   H     0.09836   0.68169   0.27697   0.00000  Uiso   1.00
H137   H     0.21801   0.84872   0.08871   0.00000  Uiso   1.00
H138   H     0.17777   0.88231   0.20125   0.00000  Uiso   1.00
C139   C     0.34361   0.70868  -0.27176   0.00000  Uiso   1.00
C140   C     0.37561   0.69865  -0.27020   0.00000  Uiso   1.00
C141   C     0.41952   0.73254  -0.23997   0.00000  Uiso   1.00
C142   C     0.23110   0.42181  -0.06087   0.00000  Uiso   1.00
C143   C     0.15047   0.24492   0.21354   0.00000  Uiso   1.00
C144   C     0.11762   0.22645   0.41935   0.00000  Uiso   1.00
C145   C     0.09397   0.18294   0.44852   0.00000  Uiso   1.00
C146   C     0.10314   0.15698   0.27509   0.00000  Uiso   1.00
C147   C     0.13634   0.17524   0.07529   0.00000  Uiso   1.00
C148   C     0.15914   0.21864   0.03988   0.00000  Uiso   1.00
C149   C     0.26620   0.45346   0.08496   0.00000  Uiso   1.00
C150   C     0.28175   0.49550   0.01361   0.00000  Uiso   1.00
C151   C     0.26172   0.50678  -0.20092   0.00000  Uiso   1.00
C152   C     0.22594   0.47537  -0.34051   0.00000  Uiso   1.00
C153   C     0.21103   0.43322  -0.27423   0.00000  Uiso   1.00
N154   N     0.27470   0.54980  -0.26004   0.00000  Uiso   1.00
C155   C     0.02053   0.04404   0.39474   0.00000  Uiso   1.00
C156   C     0.97668   0.02045   0.39605   0.00000  Uiso   1.00
C157   C     0.04141   0.09013   0.38466   0.00000  Uiso   1.00
N158   N     0.08013   0.11220   0.30015   0.00000  Uiso   1.00
O159   O     0.34337   0.35714  -0.12599   0.00000  Uiso   1.00
O160   O     0.27874   0.37888  -0.06081   0.00000  Uiso   1.00
O161   O     0.24285   0.29545   0.11488   0.00000  Uiso   1.00
O162   O     0.27532   0.24205   0.12895   0.00000  Uiso   1.00
O163   O     0.35030   0.28876  -0.13530   0.00000  Uiso   1.00
C164   C     0.34933   0.26112   0.08333   0.00000  Uiso   1.00
C165   C     0.30376   0.22671   0.13650   0.00000  Uiso   1.00
C166   C     0.28121   0.26800   0.37390   0.00000  Uiso   1.00
C167   C     0.24623   0.27840   0.38924   0.00000  Uiso   1.00
C168   C     0.38044   0.36137  -0.25161   0.00000  Uiso   1.00
C169   C     0.38825   0.32743  -0.12771   0.00000  Uiso   1.00
C170   C     0.35043   0.39524  -0.00386   0.00000  Uiso   1.00
C171   C     0.31079   0.38785   0.15233   0.00000  Uiso   1.00
C172   C     0.21808   0.31456   0.11962   0.00000  Uiso   1.00
C173   C     0.23730   0.35756   0.04363   0.00000  Uiso   1.00
C174   C     0.21295   0.37733   0.02774   0.00000  Uiso   1.00
C175   C     0.17028   0.35447   0.09541   0.00000  Uiso   1.00
C176   C     0.15118   0.31222   0.16497   0.00000  Uiso   1.00
C177   C     0.17413   0.29127   0.17257   0.00000  Uiso   1.00
H178   H     0.35173   0.74124  -0.26314   0.00000  Uiso   1.00
H179   H     0.42574   0.76397  -0.19374   0.00000  Uiso   1.00
H180   H     0.11051   0.24570   0.56085   0.00000  Uiso   1.00
H181   H     0.06941   0.16985   0.61226   0.00000  Uiso   1.00
H182   H     0.14382   0.15566  -0.05964   0.00000  Uiso   1.00
H183   H     0.18349   0.23158  -0.12379   0.00000  Uiso   1.00
H184   H     0.27996   0.44598   0.26737   0.00000  Uiso   1.00
H185   H     0.30796   0.51916   0.13771   0.00000  Uiso   1.00
H186   H     0.20970   0.48360  -0.50216   0.00000  Uiso   1.00
H187   H     0.18343   0.40950  -0.38657   0.00000  Uiso   1.00
H188   H     0.95872   0.03640   0.39437   0.00000  Uiso   1.00
H189   H     0.02309   0.10505   0.42957   0.00000  Uiso   1.00
H190   H     0.36217   0.27692   0.29788   0.00000  Uiso   1.00
H191   H     0.36791   0.24659   0.00981   0.00000  Uiso   1.00
H192   H     0.29472   0.20324  -0.04244   0.00000  Uiso   1.00
H193   H     0.30110   0.20983   0.34572   0.00000  Uiso   1.00
H194   H     0.31124   0.29791   0.35426   0.00000  Uiso   1.00
H195   H     0.28066   0.25205   0.58183   0.00000  Uiso   1.00
H196   H     0.21699   0.24938   0.44308   0.00000  Uiso   1.00
H197   H     0.25350   0.30145   0.56854   0.00000  Uiso   1.00
H198   H     0.40907   0.39251  -0.21682   0.00000  Uiso   1.00
H199   H     0.37569   0.35684  -0.49227   0.00000  Uiso   1.00
H200   H     0.41205   0.32527  -0.26474   0.00000  Uiso   1.00
H201   H     0.40121   0.33734   0.09788   0.00000  Uiso   1.00
H202   H     0.35852   0.41911  -0.17969   0.00000  Uiso   1.00
H203   H     0.37618   0.40720   0.16129   0.00000  Uiso   1.00
H204   H     0.30153   0.36236   0.31475   0.00000  Uiso   1.00
H205   H     0.31831   0.41667   0.27697   0.00000  Uiso   1.00
H206   H     0.15128   0.36929   0.08871   0.00000  Uiso   1.00
H207   H     0.11769   0.29546   0.20125   0.00000  Uiso   1.00
loop_
_geom_bond_atom_site_label_1
_geom_bond_atom_site_label_2
_geom_bond_distance
_geom_bond_site_symmetry_2
_ccdc_geom_bond_type
C1     C2      1.403   .     S
C1     H40     1.084   .     S
C1     C71     1.405   .     D
C2     C3      1.477   .     S
C2     C139    1.405   .     D
C3     H41     1.084   .     S
C3     N85     1.299   .     D
C4     C11     1.403   .     S
C4     C15     1.406   .     D
C4     C36     1.485   .     S
C5     C6      1.408   .     D
C5     C10     1.405   .     S
C5     C39     1.492   .     S
C6     C7      1.398   .     S
C6     H42     1.083   .     S
C7     C8      1.406   .     D
C7     H43     1.082   .     S
C8     C9      1.398   .     S
C8     N20     1.435   .     S
C9     C10     1.396   .     D
C9     H44     1.083   .     S
C10    H45     1.077   .     S
C11    C12     1.396   .     D
C11    H46     1.078   .     S
C12    C13     1.406   .     S
C12    H47     1.082   .     S
C13    C14     1.399   .     D
C13    N16     1.435   .     S
C14    C15     1.398   .     S
C14    H48     1.083   .     S
C15    H49     1.083   .     S
N16    C141    1.299   .     D
C17    C18     1.402   .     D
C17    C19     1.475   .     S
C17    C156    1.405   1_565 S
C18    H50     1.084   .     S
C18    C86     1.405   1_655 S
C19    N20     1.299   .     D
C19    H51     1.083   .     S
O21    C30     1.417   1_565 S
O21    C32     1.409   .     S
O22    C33     1.433   .     S
O22    C35     1.407   .     S
O23    C29     1.430   .     S
O23    C34     1.406   .     S
O24    C27     1.420   .     S
O24    C28     1.412   .     S
O25    C26     1.411   .     S
O25    C31     1.414   .     S
C26    C27     1.537   .     S
C26    H52     1.113   .     S
C26    H53     1.112   .     S
C27    H54     1.111   .     S
C27    H55     1.114   .     S
C28    C29     1.521   1_545 S
C28    H56     1.109   .     S
C28    H57     1.108   .     S
C29    C28     1.521   1_565 S
C29    H58     1.102   .     S
C29    H59     1.109   .     S
C30    O21     1.417   1_545 S
C30    C31     1.526   .     S
C30    H60     1.117   .     S
C30    H61     1.107   .     S
C31    H62     1.111   .     S
C31    H63     1.113   .     S
C32    C33     1.522   .     S
C32    H64     1.114   .     S
C32    H65     1.114   .     S
C33    H66     1.107   .     S
C33    H67     1.110   .     S
C34    C35     1.419   .     S
C34    C39     1.425   .     D
C35    C36     1.414   .     D
C36    C37     1.399   .     S
C37    C38     1.388   .     D
C37    H68     1.084   .     S
C38    C39     1.403   .     S
C38    H69     1.083   .     S
C70    C71     1.403   .     S
C70    H109    1.084   .     S
C70    C140    1.405   .     D
C71    C72     1.477   .     S
C72    H110    1.084   .     S
C72    N154    1.299   .     D
C73    C80     1.403   .     D
C73    C84     1.406   .     S
C73    C105    1.485   .     S
C74    C75     1.408   .     D
C74    C79     1.405   .     S
C74    C108    1.492   .     S
C75    C76     1.398   .     S
C75    H111    1.083   .     S
C76    C77     1.406   .     D
C76    H112    1.082   .     S
C77    C78     1.398   .     S
C77    N89     1.435   .     S
C78    C79     1.396   .     D
C78    H113    1.083   .     S
C79    H114    1.077   .     S
C80    C81     1.396   .     S
C80    H115    1.078   .     S
C81    C82     1.406   .     D
C81    H116    1.082   .     S
C82    C83     1.399   .     S
C82    N85     1.435   .     S
C83    C84     1.398   .     D
C83    H117    1.083   .     S
C84    H118    1.083   .     S
C86    C18     1.405   1_455 S
C86    C87     1.402   1_565 D
C86    C88     1.475   .     S
C87    C86     1.402   1_545 D
C87    H119    1.084   .     S
C87    C155    1.405   .     S
C88    N89     1.299   .     D
C88    H120    1.083   .     S
O90    C99     1.417   1_455 S
O90    C101    1.409   .     S
O91    C102    1.433   .     S
O91    C104    1.407   .     S
O92    C98     1.430   .     S
O92    C103    1.406   .     S
O93    C96     1.420   .     S
O93    C97     1.412   .     S
O94    C95     1.411   .     S
O94    C100    1.414   .     S
C95    C96     1.537   .     S
C95    H121    1.113   .     S
C95    H122    1.112   .     S
C96    H123    1.111   .     S
C96    H124    1.114   .     S
C97    C98     1.521   1_655 S
C97    H125    1.109   .     S
C97    H126    1.108   .     S
C98    C97     1.521   1_455 S
C98    H127    1.102   .     S
C98    H128    1.109   .     S
C99    O90     1.417   1_655 S
C99    C100    1.526   .     S
C99    H129    1.117   .     S
C99    H130    1.107   .     S
C100   H131    1.111   .     S
C100   H132    1.113   .     S
C101   C102    1.522   .     S
C101   H133    1.114   .     S
C101   H134    1.114   .     S
C102   H135    1.107   .     S
C102   H136    1.110   .     S
C103   C104    1.419   .     S
C103   C108    1.425   .     D
C104   C105    1.414   .     D
C105   C106    1.399   .     S
C106   C107    1.388   .     D
C106   H137    1.084   .     S
C107   C108    1.403   .     S
C107   H138    1.083   .     S
C139   C140    1.403   .     S
C139   H178    1.084   .     S
C140   C141    1.477   .     S
C141   H179    1.084   .     S
C142   C149    1.403   .     D
C142   C153    1.406   .     S
C142   C174    1.485   .     S
C143   C144    1.408   .     D
C143   C148    1.405   .     S
C143   C177    1.492   .     S
C144   C145    1.398   .     S
C144   H180    1.083   .     S
C145   C146    1.406   .     D
C145   H181    1.082   .     S
C146   C147    1.398   .     S
C146   N158    1.435   .     S
C147   C148    1.396   .     D
C147   H182    1.083   .     S
C148   H183    1.077   .     S
C149   C150    1.396   .     S
C149   H184    1.078   .     S
C150   C151    1.406   .     D
C150   H185    1.082   .     S
C151   C152    1.399   .     S
C151   N154    1.435   .     S
C152   C153    1.398   .     D
C152   H186    1.083   .     S
C153   H187    1.083   .     S
C155   C156    1.402   1_455 D
C155   C157    1.475   .     S
C156   C155    1.402   1_655 D
C156   C17     1.405   1_545 S
C156   H188    1.084   .     S
C157   N158    1.299   .     D
C157   H189    1.083   .     S
O159   C168    1.417   .     S
O159   C170    1.409   .     S
O160   C171    1.433   .     S
O160   C173    1.407   .     S
O161   C167    1.430   .     S
O161   C172    1.406   .     S
O162   C165    1.420   .     S
O162   C166    1.412   .     S
O163   C164    1.411   .     S
O163   C169    1.414   .     S
C164   C165    1.537   .     S
C164   H190    1.113   .     S
C164   H191    1.112   .     S
C165   H192    1.111   .     S
C165   H193    1.114   .     S
C166   C167    1.521   .     S
C166   H194    1.109   .     S
C166   H195    1.108   .     S
C167   H196    1.102   .     S
C167   H197    1.109   .     S
C168   C169    1.526   .     S
C168   H198    1.117   .     S
C168   H199    1.107   .     S
C169   H200    1.111   .     S
C169   H201    1.113   .     S
C170   C171    1.522   .     S
C170   H202    1.114   .     S
C170   H203    1.114   .     S
C171   H204    1.107   .     S
C171   H205    1.110   .     S
C172   C173    1.419   .     S
C172   C177    1.425   .     D
C173   C174    1.414   .     D
C174   C175    1.399   .     S
C175   C176    1.388   .     D
C175   H206    1.084   .     S
C176   C177    1.403   .     S
C176   H207    1.083   .     S
