data_30
_audit_creation_date              2023-09-08
_audit_creation_method            'Materials Studio'
_symmetry_space_group_name_H-M    'P1'
_symmetry_Int_Tables_number       1
_symmetry_cell_setting            triclinic
loop_
_symmetry_equiv_pos_as_xyz
  x,y,z
_cell_length_a                    14.7240
_cell_length_b                    14.7240
_cell_length_c                    3.3100
_cell_angle_alpha                 90.0000
_cell_angle_beta                  90.0000
_cell_angle_gamma                 120.0000
loop_
_atom_site_label
_atom_site_type_symbol
_atom_site_fract_x
_atom_site_fract_y
_atom_site_fract_z
_atom_site_U_iso_or_equiv
_atom_site_adp_type
_atom_site_occupancy
N1     N     0.04811   0.53499   0.50000   0.00000  Uiso   1.00
N2     N     0.46501   0.51312   0.50000   0.00000  Uiso   1.00
N3     N     0.48688   0.95189   0.50000   0.00000  Uiso   1.00
N4     N     0.95189   0.46501   0.50000   0.00000  Uiso   1.00
N5     N     0.53499   0.48688   0.50000   0.00000  Uiso   1.00
N6     N     0.51312   0.04811   0.50000   0.00000  Uiso   1.00
C7     C     0.12207   0.50809   0.50000   0.00000  Uiso   1.00
C8     C     0.49191   0.61398   0.50000   0.00000  Uiso   1.00
C9     C     0.38602   0.87793   0.50000   0.00000  Uiso   1.00
C10    C     0.87793   0.49191   0.50000   0.00000  Uiso   1.00
C11    C     0.50809   0.38602   0.50000   0.00000  Uiso   1.00
C12    C     0.61398   0.12207   0.50000   0.00000  Uiso   1.00
H13    H     0.10172   0.43056   0.50000   0.00000  Uiso   1.00
H14    H     0.56944   0.67116   0.50000   0.00000  Uiso   1.00
H15    H     0.32884   0.89828   0.50000   0.00000  Uiso   1.00
H16    H     0.89828   0.56944   0.50000   0.00000  Uiso   1.00
H17    H     0.43056   0.32884   0.50000   0.00000  Uiso   1.00
H18    H     0.67116   0.10172   0.50000   0.00000  Uiso   1.00
C19    C     0.22675   0.58770   0.50000   0.00000  Uiso   1.00
C20    C     0.41230   0.63905   0.50000   0.00000  Uiso   1.00
C21    C     0.36095   0.77325   0.50000   0.00000  Uiso   1.00
C22    C     0.77325   0.41230   0.50000   0.00000  Uiso   1.00
C23    C     0.58770   0.36095   0.50000   0.00000  Uiso   1.00
C24    C     0.63905   0.22675   0.50000   0.00000  Uiso   1.00
C25    C     0.25522   0.69449   0.50000   0.00000  Uiso   1.00
C26    C     0.30551   0.56073   0.50000   0.00000  Uiso   1.00
C27    C     0.43927   0.74479   0.50000   0.00000  Uiso   1.00
C28    C     0.74479   0.30551   0.50000   0.00000  Uiso   1.00
C29    C     0.69449   0.43927   0.50000   0.00000  Uiso   1.00
C30    C     0.56073   0.25521   0.50000   0.00000  Uiso   1.00
H31    H     0.28466   0.48313   0.50000   0.00000  Uiso   1.00
H32    H     0.51687   0.80152   0.50000   0.00000  Uiso   1.00
H33    H     0.19848   0.71534   0.50000   0.00000  Uiso   1.00
H34    H     0.71534   0.51687   0.50000   0.00000  Uiso   1.00
H35    H     0.48313   0.19848   0.50000   0.00000  Uiso   1.00
H36    H     0.80152   0.28466   0.50000   0.00000  Uiso   1.00
loop_
_geom_bond_atom_site_label_1
_geom_bond_atom_site_label_2
_geom_bond_distance
_geom_bond_site_symmetry_2
_ccdc_geom_bond_type
N1     N4      1.268   1_455 S
N1     C7      1.332   .     D
N2     N5      1.268   .     S
N2     C8      1.332   .     D
N3     N6      1.268   1_565 S
N3     C9      1.332   .     D
N4     N1      1.268   1_655 S
N4     C10     1.332   .     D
N5     C11     1.332   .     D
N6     N3      1.268   1_545 S
N6     C12     1.332   .     D
C7     H13     1.025   .     S
C7     C19     1.394   .     S
C8     H14     1.025   .     S
C8     C20     1.394   .     S
C9     H15     1.025   .     S
C9     C21     1.394   .     S
C10    H16     1.025   .     S
C10    C22     1.394   .     S
C11    H17     1.025   .     S
C11    C23     1.394   .     S
C12    H18     1.025   .     S
C12    C24     1.394   .     S
C19    C25     1.410   .     S
C19    C26     1.401   .     D
C20    C26     1.410   .     S
C20    C27     1.401   .     D
C21    C25     1.401   .     D
C21    C27     1.410   .     S
C22    C28     1.410   .     D
C22    C29     1.401   .     S
C23    C29     1.410   .     D
C23    C30     1.401   .     S
C24    C28     1.401   .     S
C24    C30     1.410   .     D
C25    H33     1.024   .     S
C26    H31     1.024   .     S
C27    H32     1.024   .     S
C28    H36     1.024   .     S
C29    H34     1.024   .     S
C30    H35     1.024   .     S
