data_300
_audit_creation_date              2023-09-08
_audit_creation_method            'Materials Studio'
_symmetry_space_group_name_H-M    'P1'
_symmetry_Int_Tables_number       1
_symmetry_cell_setting            triclinic
loop_
_symmetry_equiv_pos_as_xyz
  x,y,z
_cell_length_a                    23.0000
_cell_length_b                    27.3000
_cell_length_c                    6.7000
_cell_angle_alpha                 90.0000
_cell_angle_beta                  90.0000
_cell_angle_gamma                 90.0000
loop_
_atom_site_label
_atom_site_type_symbol
_atom_site_fract_x
_atom_site_fract_y
_atom_site_fract_z
_atom_site_U_iso_or_equiv
_atom_site_adp_type
_atom_site_occupancy
C1     C     0.95904   0.84666   1.00000   0.00000  Uiso   1.00
C2     C     0.02072   0.84709   1.00000   0.00000  Uiso   1.00
C3     C     0.05449   0.80405   0.00000   0.00000  Uiso   1.00
C4     C     0.02219   0.76095   0.00000   0.00000  Uiso   1.00
C5     C     0.96090   0.76022   0.00000   0.00000  Uiso   1.00
C6     C     0.92704   0.80258   1.00000   0.00000  Uiso   1.00
C7     C     0.94070   0.89771   0.99999   0.00000  Uiso   1.00
C8     C     0.03833   0.89810   1.00000   0.00000  Uiso   1.00
H9     H     0.10207   0.80465   0.00000   0.00000  Uiso   1.00
H10    H     0.87946   0.80178   1.00000   0.00000  Uiso   1.00
C11    C     0.80813   0.97392   0.99999   0.00000  Uiso   1.00
C12    C     0.80812   0.02600   0.99999   0.00000  Uiso   1.00
C13    C     0.75644   0.05371   1.00000   0.00000  Uiso   1.00
C14    C     0.70581   0.02579   0.00000   0.00000  Uiso   1.00
C15    C     0.70583   0.97405   1.00000   0.00000  Uiso   1.00
C16    C     0.75649   0.94616   0.99999   0.00000  Uiso   1.00
C17    C     0.86862   0.95870   0.99999   0.00000  Uiso   1.00
C18    C     0.86860   0.04124   0.99999   0.00000  Uiso   1.00
H19    H     0.75624   0.09388   1.00000   0.00000  Uiso   1.00
H20    H     0.75634   0.90600   0.99998   0.00000  Uiso   1.00
C21    C     0.02072   0.15286   0.00000   0.00000  Uiso   1.00
C22    C     0.95904   0.15329   0.00000   0.00000  Uiso   1.00
C23    C     0.92704   0.19737   0.00000   0.00000  Uiso   1.00
C24    C     0.96090   0.23973   0.00000   0.00000  Uiso   1.00
C25    C     0.02219   0.23900   0.00000   0.00000  Uiso   1.00
C26    C     0.05449   0.19590   0.00000   0.00000  Uiso   1.00
C27    C     0.03834   0.10184   0.00000   0.00000  Uiso   1.00
C28    C     0.94070   0.10224   1.00000   0.00000  Uiso   1.00
H29    H     0.87946   0.19817   0.00000   0.00000  Uiso   1.00
H30    H     0.10207   0.19530   0.00000   0.00000  Uiso   1.00
C31    C     0.17091   0.97392   0.00000   0.00000  Uiso   1.00
C32    C     0.17093   0.02600   0.00001   0.00000  Uiso   1.00
C33    C     0.22254   0.05377   0.00000   0.00000  Uiso   1.00
C34    C     0.27310   0.02578   1.00000   0.00000  Uiso   1.00
C35    C     0.27308   0.97405   1.00000   0.00000  Uiso   1.00
C36    C     0.22249   0.94610   1.00000   0.00000  Uiso   1.00
C37    C     0.11050   0.95877   0.00000   0.00000  Uiso   1.00
C38    C     0.11051   0.04116   0.00001   0.00000  Uiso   1.00
H39    H     0.22269   0.09394   0.00001   0.00000  Uiso   1.00
H40    H     0.22259   0.90594   0.99999   0.00000  Uiso   1.00
N41    N     0.88528   0.91187   0.99999   0.00000  Uiso   1.00
N42    N     0.88527   0.08807   1.00000   0.00000  Uiso   1.00
N43    N     0.09380   0.08790   0.00001   0.00000  Uiso   1.00
N44    N     0.09379   0.91204   0.00000   0.00000  Uiso   1.00
N45    N     0.98939   0.92793   1.00000   0.00000  Uiso   1.00
N46    N     0.90411   0.99997   0.99999   0.00000  Uiso   1.00
N47    N     0.98939   0.07201   0.00000   0.00000  Uiso   1.00
N48    N     0.07482   0.99997   0.00000   0.00000  Uiso   1.00
O49    O     0.04246   0.71313   0.00000   0.00000  Uiso   1.00
O50    O     0.94256   0.71175   0.00000   0.00000  Uiso   1.00
O51    O     0.64876   0.04206   0.00001   0.00000  Uiso   1.00
O52    O     0.64880   0.95774   0.00000   0.00000  Uiso   1.00
O53    O     0.94256   0.28820   0.00000   0.00000  Uiso   1.00
O54    O     0.04246   0.28682   0.00000   0.00000  Uiso   1.00
O55    O     0.33020   0.04206   1.00000   0.00000  Uiso   1.00
O56    O     0.33016   0.95774   0.99999   0.00000  Uiso   1.00
B57    B     0.99308   0.31625   0.00000   0.00000  Uiso   1.00
B58    B     0.36423   0.99989   0.99999   0.00000  Uiso   1.00
B59    B     0.99308   0.68371   0.00000   0.00000  Uiso   1.00
B60    B     0.61469   0.99989   0.00000   0.00000  Uiso   1.00
Ni61   Ni    0.98938   0.99997   1.00000   0.00000  Uiso   1.00
C62    C     0.42907   0.99987   0.99999   0.00000  Uiso   1.00
C63    C     0.45927   0.95535   0.00001   0.00000  Uiso   1.00
C64    C     0.51963   0.95538   0.00001   0.00000  Uiso   1.00
C65    C     0.54984   0.99987   0.00000   0.00000  Uiso   1.00
C66    C     0.51963   0.04436   0.99999   0.00000  Uiso   1.00
C67    C     0.45927   0.04439   0.99999   0.00000  Uiso   1.00
H68    H     0.43257   0.92206   0.00002   0.00000  Uiso   1.00
H69    H     0.54631   0.92207   0.00002   0.00000  Uiso   1.00
H70    H     0.54632   0.07767   0.99999   0.00000  Uiso   1.00
H71    H     0.43256   0.07767   0.99998   0.00000  Uiso   1.00
C72    C     0.99448   0.37097   1.00000   0.00000  Uiso   1.00
C73    C     0.94199   0.39626   1.00000   0.00000  Uiso   1.00
C74    C     0.94058   0.44774   1.00000   0.00000  Uiso   1.00
C75    C     0.99454   0.47383   1.00000   0.00000  Uiso   1.00
C76    C     0.04844   0.44765   1.00000   0.00000  Uiso   1.00
C77    C     0.04723   0.39615   1.00000   0.00000  Uiso   1.00
C78    C     0.88711   0.47494   1.00000   0.00000  Uiso   1.00
C79    C     0.99454   0.52614   1.00000   0.00000  Uiso   1.00
C80    C     0.94058   0.55223   1.00000   0.00000  Uiso   1.00
C81    C     0.88711   0.52503   1.00000   0.00000  Uiso   1.00
C82    C     0.94199   0.60371   0.00000   0.00000  Uiso   1.00
H83    H     0.90324   0.62715   0.00000   0.00000  Uiso   1.00
C84    C     0.99448   0.62899   0.00000   0.00000  Uiso   1.00
C85    C     0.04723   0.60381   0.00000   0.00000  Uiso   1.00
C86    C     0.04844   0.55232   1.00000   0.00000  Uiso   1.00
C87    C     0.10188   0.52502   1.00000   0.00000  Uiso   1.00
C88    C     0.10187   0.47495   1.00000   0.00000  Uiso   1.00
H89    H     0.14321   0.45480   1.00000   0.00000  Uiso   1.00
H90    H     0.14320   0.54518   0.00000   0.00000  Uiso   1.00
H91    H     0.84580   0.45474   1.00000   0.00000  Uiso   1.00
H92    H     0.90324   0.37283   1.00000   0.00000  Uiso   1.00
H93    H     0.08660   0.37347   1.00000   0.00000  Uiso   1.00
H94    H     0.84580   0.54523   0.00000   0.00000  Uiso   1.00
H95    H     0.08659   0.62650   0.00000   0.00000  Uiso   1.00
C96    C     0.02260   0.84709   0.50000   0.00000  Uiso   1.00
C97    C     0.08428   0.84666   0.50000   0.00000  Uiso   1.00
C98    C     0.11627   0.80258   0.50000   0.00000  Uiso   1.00
C99    C     0.08242   0.76022   0.50000   0.00000  Uiso   1.00
C100   C     0.02113   0.76095   0.50000   0.00000  Uiso   1.00
C101   C     0.98882   0.80405   0.50000   0.00000  Uiso   1.00
C102   C     0.00498   0.89810   0.50000   0.00000  Uiso   1.00
C103   C     0.10261   0.89771   0.50000   0.00000  Uiso   1.00
H104   H     0.16386   0.80178   0.50000   0.00000  Uiso   1.00
H105   H     0.94125   0.80465   0.50000   0.00000  Uiso   1.00
C106   C     0.87240   0.97392   0.49999   0.00000  Uiso   1.00
C107   C     0.87239   0.02600   0.50000   0.00000  Uiso   1.00
C108   C     0.82077   0.05377   0.50000   0.00000  Uiso   1.00
C109   C     0.77021   0.02579   0.50000   0.00000  Uiso   1.00
C110   C     0.77023   0.97405   0.50000   0.00000  Uiso   1.00
C111   C     0.82082   0.94610   0.49999   0.00000  Uiso   1.00
C112   C     0.93281   0.95877   0.49999   0.00000  Uiso   1.00
C113   C     0.93280   0.04116   0.50000   0.00000  Uiso   1.00
H114   H     0.82063   0.09394   0.50001   0.00000  Uiso   1.00
H115   H     0.82073   0.90594   0.49999   0.00000  Uiso   1.00
C116   C     0.08428   0.15329   0.50000   0.00000  Uiso   1.00
C117   C     0.02259   0.15286   0.50000   0.00000  Uiso   1.00
C118   C     0.98883   0.19590   0.50000   0.00000  Uiso   1.00
C119   C     0.02113   0.23900   0.50000   0.00000  Uiso   1.00
C120   C     0.08242   0.23973   0.50000   0.00000  Uiso   1.00
C121   C     0.11627   0.19737   0.50000   0.00000  Uiso   1.00
C122   C     0.10262   0.10224   0.50001   0.00000  Uiso   1.00
C123   C     0.00498   0.10184   0.50000   0.00000  Uiso   1.00
H124   H     0.94125   0.19530   0.50000   0.00000  Uiso   1.00
H125   H     0.16385   0.19817   0.50000   0.00000  Uiso   1.00
C126   C     0.23518   0.97392   0.50000   0.00000  Uiso   1.00
C127   C     0.23520   0.02600   0.50000   0.00000  Uiso   1.00
C128   C     0.28688   0.05371   0.50000   0.00000  Uiso   1.00
C129   C     0.33751   0.02579   0.50000   0.00000  Uiso   1.00
C130   C     0.33749   0.97405   0.49999   0.00000  Uiso   1.00
C131   C     0.28683   0.94616   0.49999   0.00000  Uiso   1.00
C132   C     0.17470   0.95870   0.50000   0.00000  Uiso   1.00
C133   C     0.17471   0.04124   0.50001   0.00000  Uiso   1.00
H134   H     0.28708   0.09388   0.50001   0.00000  Uiso   1.00
H135   H     0.28698   0.90600   0.49999   0.00000  Uiso   1.00
N136   N     0.94952   0.91204   0.49999   0.00000  Uiso   1.00
N137   N     0.94952   0.08790   0.50000   0.00000  Uiso   1.00
N138   N     0.15804   0.08807   0.50001   0.00000  Uiso   1.00
N139   N     0.15804   0.91187   0.50000   0.00000  Uiso   1.00
N140   N     0.05393   0.92793   0.50000   0.00000  Uiso   1.00
N141   N     0.96849   0.99997   0.50000   0.00000  Uiso   1.00
N142   N     0.05393   0.07201   0.50000   0.00000  Uiso   1.00
N143   N     0.13920   0.99997   0.50000   0.00000  Uiso   1.00
O144   O     0.10076   0.71175   0.50000   0.00000  Uiso   1.00
O145   O     0.00086   0.71313   0.50000   0.00000  Uiso   1.00
O146   O     0.71312   0.04206   0.50001   0.00000  Uiso   1.00
O147   O     0.71315   0.95774   0.50000   0.00000  Uiso   1.00
O148   O     0.00086   0.28682   0.50000   0.00000  Uiso   1.00
O149   O     0.10075   0.28820   0.50000   0.00000  Uiso   1.00
O150   O     0.39455   0.04206   0.49999   0.00000  Uiso   1.00
O151   O     0.39452   0.95774   0.49999   0.00000  Uiso   1.00
B152   B     0.05024   0.31625   0.50000   0.00000  Uiso   1.00
B153   B     0.42862   0.99989   0.49999   0.00000  Uiso   1.00
B154   B     0.05024   0.68371   0.50000   0.00000  Uiso   1.00
B155   B     0.67908   0.99989   0.50001   0.00000  Uiso   1.00
Ni156  Ni    0.05393   0.99997   0.50000   0.00000  Uiso   1.00
C157   C     0.49347   0.99987   0.49999   0.00000  Uiso   1.00
C158   C     0.52368   0.95538   0.50000   0.00000  Uiso   1.00
C159   C     0.58404   0.95535   0.50001   0.00000  Uiso   1.00
C160   C     0.61424   0.99987   0.50000   0.00000  Uiso   1.00
C161   C     0.58404   0.04439   0.49999   0.00000  Uiso   1.00
C162   C     0.52368   0.04436   0.49998   0.00000  Uiso   1.00
H163   H     0.49700   0.92207   0.50001   0.00000  Uiso   1.00
H164   H     0.61075   0.92206   0.50002   0.00000  Uiso   1.00
H165   H     0.61076   0.07767   0.49999   0.00000  Uiso   1.00
H166   H     0.49699   0.07767   0.49997   0.00000  Uiso   1.00
C167   C     0.04884   0.37097   0.50000   0.00000  Uiso   1.00
C168   C     0.99609   0.39615   0.50000   0.00000  Uiso   1.00
C169   C     0.99488   0.44765   0.50000   0.00000  Uiso   1.00
C170   C     0.04878   0.47383   0.50000   0.00000  Uiso   1.00
C171   C     0.10273   0.44774   0.50000   0.00000  Uiso   1.00
C172   C     0.10133   0.39626   0.50000   0.00000  Uiso   1.00
C173   C     0.94144   0.47495   0.50000   0.00000  Uiso   1.00
C174   C     0.04878   0.52614   0.50000   0.00000  Uiso   1.00
C175   C     0.99487   0.55232   0.50000   0.00000  Uiso   1.00
C176   C     0.94144   0.52502   0.50000   0.00000  Uiso   1.00
C177   C     0.99608   0.60381   0.50000   0.00000  Uiso   1.00
H178   H     0.95672   0.62650   0.50000   0.00000  Uiso   1.00
C179   C     0.04884   0.62899   0.50000   0.00000  Uiso   1.00
C180   C     0.10133   0.60371   0.50000   0.00000  Uiso   1.00
C181   C     0.10274   0.55223   0.50000   0.00000  Uiso   1.00
C182   C     0.15620   0.52503   0.50000   0.00000  Uiso   1.00
C183   C     0.15620   0.47494   0.50000   0.00000  Uiso   1.00
H184   H     0.19751   0.45474   0.50000   0.00000  Uiso   1.00
H185   H     0.19751   0.54523   0.50000   0.00000  Uiso   1.00
H186   H     0.90011   0.45480   0.50000   0.00000  Uiso   1.00
H187   H     0.95672   0.37347   0.50000   0.00000  Uiso   1.00
H188   H     0.14008   0.37283   0.50000   0.00000  Uiso   1.00
H189   H     0.90011   0.54517   0.50000   0.00000  Uiso   1.00
H190   H     0.14007   0.62715   0.50000   0.00000  Uiso   1.00
loop_
_geom_bond_atom_site_label_1
_geom_bond_atom_site_label_2
_geom_bond_distance
_geom_bond_site_symmetry_2
_ccdc_geom_bond_type
C1     C2      1.419   1_655 D
C1     C6      1.411   .     S
C1     C7      1.456   .     S
C2     C1      1.419   1_455 D
C2     C3      1.409   1_556 S
C2     C8      1.450   .     S
C3     C2      1.409   1_554 S
C3     C4      1.392   .     D
C3     H9      1.094   .     S
C4     C5      1.410   1_455 S
C4     O49     1.386   .     S
C5     C4      1.410   1_655 S
C5     C6      1.394   1_554 D
C5     O50     1.389   .     S
C6     C5      1.394   1_556 D
C6     H10     1.095   .     S
C7     N41     1.332   .     D
C7     N45     1.391   .     S
C8     N44     1.331   1_556 S
C8     N45     1.389   1_455 D
C11    C12     1.422   1_565 D
C11    C16     1.409   .     S
C11    C17     1.452   .     S
C12    C11     1.422   1_545 D
C12    C13     1.409   .     S
C12    C18     1.452   .     S
C13    C14     1.392   1_556 D
C13    H19     1.097   .     S
C14    C13     1.392   1_554 D
C14    C15     1.413   1_544 S
C14    O51     1.385   .     S
C15    C14     1.413   1_566 S
C15    C16     1.392   .     D
C15    O52     1.385   1_556 S
C16    H20     1.096   .     S
C17    N41     1.335   .     S
C17    N46     1.391   .     D
C18    N42     1.335   .     D
C18    N46     1.392   1_545 S
C21    C22     1.419   1_455 S
C21    C26     1.409   .     D
C21    C27     1.451   .     S
C22    C21     1.419   1_655 S
C22    C23     1.411   .     D
C22    C28     1.456   1_554 S
C23    C24     1.394   .     S
C23    H29     1.095   .     S
C24    C25     1.410   1_655 D
C24    O53     1.389   .     S
C25    C24     1.410   1_455 D
C25    C26     1.392   .     S
C25    O54     1.386   .     S
C26    H30     1.094   .     S
C27    N43     1.331   .     D
C27    N47     1.390   1_455 S
C28    C22     1.456   1_556 S
C28    N42     1.332   .     S
C28    N47     1.391   1_556 D
C31    C32     1.422   1_565 S
C31    C36     1.409   1_554 D
C31    C37     1.450   .     S
C32    C31     1.422   1_545 S
C32    C33     1.408   .     D
C32    C38     1.450   .     S
C33    C34     1.391   1_554 S
C33    H39     1.097   .     S
C34    C33     1.391   1_556 S
C34    C35     1.412   1_545 D
C34    O55     1.386   .     S
C35    C34     1.412   1_565 D
C35    C36     1.391   .     S
C35    O56     1.386   .     S
C36    C31     1.409   1_556 D
C36    H40     1.096   .     S
C37    N44     1.332   .     D
C37    N48     1.392   .     S
C38    N43     1.333   .     S
C38    N48     1.392   1_545 D
N44    C8      1.331   1_554 S
N45    C8      1.389   1_655 D
N45    Ni61    1.967   .     S
N46    C18     1.392   1_565 S
N46    Ni61    1.961   .     S
N47    C27     1.390   1_655 S
N47    C28     1.391   1_554 D
N47    Ni61    1.967   1_544 S
N48    C38     1.392   1_565 D
N48    Ni61    1.965   1_454 S
O49    B59     1.391   1_455 S
O50    B59     1.391   .     S
O51    B60     1.393   1_545 S
O52    C15     1.385   1_554 S
O52    B60     1.393   .     S
O53    B57     1.392   .     S
O54    B57     1.391   1_455 S
O55    B58     1.392   1_545 S
O56    B58     1.392   .     S
B57    O54     1.391   1_655 S
B57    C72     1.494   1_554 S
B58    O55     1.392   1_565 S
B58    C62     1.491   .     S
B59    O49     1.391   1_655 S
B59    C84     1.494   .     S
B60    O51     1.393   1_565 S
B60    C65     1.492   .     S
Ni61   N48     1.965   1_656 S
Ni61   N47     1.967   1_566 S
C62    C63     1.400   1_556 D
C62    C67     1.400   1_565 S
C63    C62     1.400   1_554 D
C63    C64     1.388   .     S
C63    H68     1.097   .     S
C64    C65     1.399   .     D
C64    H69     1.097   .     S
C65    C66     1.399   1_564 S
C66    C65     1.399   1_546 S
C66    C67     1.388   .     D
C66    H70     1.097   .     S
C67    C62     1.400   1_545 S
C67    H71     1.097   .     S
C72    B57     1.494   1_556 S
C72    C73     1.391   .     S
C72    C77     1.394   1_655 D
C73    C74     1.406   .     D
C73    H92     1.097   .     S
C74    C75     1.431   .     S
C74    C78     1.437   .     S
C75    C76     1.431   1_655 S
C75    C79     1.428   .     D
C76    C75     1.431   1_455 S
C76    C77     1.406   .     S
C76    C88     1.437   .     D
C77    C72     1.394   1_455 D
C77    H93     1.097   .     S
C78    C81     1.367   .     D
C78    H91     1.099   .     S
C79    C80     1.431   .     S
C79    C86     1.431   1_655 S
C80    C81     1.437   .     S
C80    C82     1.406   1_556 D
C81    H94     1.099   1_556 S
C82    C80     1.406   1_554 D
C82    H83     1.097   .     S
C82    C84     1.391   .     S
C84    C85     1.394   1_655 D
C85    C84     1.394   1_455 D
C85    C86     1.406   1_554 S
C85    H95     1.097   .     S
C86    C85     1.406   1_556 S
C86    C79     1.431   1_455 S
C86    C87     1.437   .     D
C87    C88     1.367   .     S
C87    H90     1.098   1_556 S
C88    H89     1.098   .     S
H90    C87     1.098   1_554 S
H94    C81     1.099   1_554 S
C96    C97     1.419   .     D
C96    C101    1.409   1_455 S
C96    C102    1.450   .     S
C97    C98     1.410   .     S
C97    C103    1.456   .     S
C98    C99     1.394   .     D
C98    H104    1.095   .     S
C99    C100    1.410   .     S
C99    O144    1.389   .     S
C100   C101    1.392   1_455 D
C100   O145    1.386   .     S
C101   C100    1.392   1_655 D
C101   C96     1.409   1_655 S
C101   H105    1.094   .     S
C102   N136    1.331   1_455 D
C102   N140    1.390   .     S
C103   N139    1.332   .     S
C103   N140    1.391   .     D
C106   C107    1.422   1_565 D
C106   C111    1.409   .     S
C106   C112    1.450   .     S
C107   C106    1.422   1_545 D
C107   C108    1.409   .     S
C107   C113    1.450   .     S
C108   C109    1.391   .     D
C108   H114    1.097   .     S
C109   C110    1.413   1_545 S
C109   O146    1.386   .     S
C110   C109    1.413   1_565 S
C110   C111    1.391   .     D
C110   O147    1.386   .     S
C111   H115    1.096   .     S
C112   N136    1.332   .     S
C112   N141    1.392   .     D
C113   N137    1.333   .     D
C113   N141    1.392   1_545 S
C116   C117    1.419   .     S
C116   C121    1.410   .     D
C116   C122    1.456   .     S
C117   C118    1.408   1_455 D
C117   C123    1.451   .     S
C118   C117    1.408   1_655 D
C118   C119    1.392   1_655 S
C118   H124    1.094   .     S
C119   C118    1.392   1_455 S
C119   C120    1.410   .     D
C119   O148    1.386   .     S
C120   C121    1.394   .     S
C120   O149    1.389   .     S
C121   H125    1.095   .     S
C122   N138    1.332   .     D
C122   N142    1.391   .     S
C123   N137    1.331   1_455 S
C123   N142    1.390   .     D
C126   C127    1.422   1_565 S
C126   C131    1.409   .     D
C126   C132    1.452   .     S
C127   C126    1.422   1_545 S
C127   C128    1.409   .     D
C127   C133    1.452   .     S
C128   C129    1.392   .     S
C128   H134    1.097   .     S
C129   C130    1.413   1_545 D
C129   O150    1.385   .     S
C130   C129    1.413   1_565 D
C130   C131    1.392   .     S
C130   O151    1.385   .     S
C131   H135    1.096   .     S
C132   N139    1.335   .     D
C132   N143    1.391   .     S
C133   N138    1.335   .     S
C133   N143    1.392   1_545 D
N136   C102    1.331   1_655 D
N137   C123    1.331   1_655 S
N140   Ni156   1.967   .     S
N141   C113    1.392   1_565 S
N141   Ni156   1.965   1_655 S
N142   Ni156   1.967   1_545 S
N143   C133    1.392   1_565 D
N143   Ni156   1.961   .     S
O144   B154    1.391   .     S
O145   B154    1.391   .     S
O146   B155    1.392   1_545 S
O147   B155    1.392   .     S
O148   B152    1.391   .     S
O149   B152    1.391   .     S
O150   B153    1.393   1_545 S
O151   B153    1.393   .     S
B152   C167    1.494   .     S
B153   O150    1.393   1_565 S
B153   C157    1.492   .     S
B154   C179    1.494   .     S
B155   O146    1.392   1_565 S
B155   C160    1.491   .     S
Ni156  N141    1.965   1_455 S
Ni156  N142    1.967   1_565 S
C157   C158    1.399   .     D
C157   C162    1.399   1_565 S
C158   C159    1.388   .     S
C158   H163    1.097   .     S
C159   C160    1.400   .     D
C159   H164    1.097   .     S
C160   C161    1.400   1_565 S
C161   C160    1.400   1_545 S
C161   C162    1.388   .     D
C161   H165    1.097   .     S
C162   C157    1.399   1_545 S
C162   H166    1.097   .     S
C167   C168    1.394   1_455 S
C167   C172    1.391   .     D
C168   C167    1.394   1_655 S
C168   C169    1.406   .     D
C168   H187    1.097   .     S
C169   C170    1.431   1_655 S
C169   C173    1.437   .     S
C170   C169    1.431   1_455 S
C170   C171    1.431   .     S
C170   C174    1.428   .     D
C171   C172    1.406   .     S
C171   C183    1.437   .     D
C172   H188    1.097   .     S
C173   C176    1.367   .     D
C173   H186    1.098   .     S
C174   C175    1.431   1_455 S
C174   C181    1.431   .     S
C175   C174    1.431   1_655 S
C175   C176    1.437   .     S
C175   C177    1.406   .     D
C176   H189    1.098   .     S
C177   H178    1.097   .     S
C177   C179    1.395   1_655 S
C179   C177    1.395   1_455 S
C179   C180    1.391   .     D
C180   C181    1.406   .     S
C180   H190    1.097   .     S
C181   C182    1.436   .     D
C182   C183    1.367   .     S
C182   H185    1.099   .     S
C183   H184    1.099   .     S
