data_301
_audit_creation_date              2023-09-08
_audit_creation_method            'Materials Studio'
_symmetry_space_group_name_H-M    'P1'
_symmetry_Int_Tables_number       1
_symmetry_cell_setting            triclinic
loop_
_symmetry_equiv_pos_as_xyz
  x,y,z
_cell_length_a                    30.1750
_cell_length_b                    52.2719
_cell_length_c                    3.6528
_cell_angle_alpha                 90.0000
_cell_angle_beta                  110.0926
_cell_angle_gamma                 90.0000
loop_
_atom_site_label
_atom_site_type_symbol
_atom_site_fract_x
_atom_site_fract_y
_atom_site_fract_z
_atom_site_U_iso_or_equiv
_atom_site_adp_type
_atom_site_occupancy
C1     C     0.52327   0.80934   0.47122   0.00000  Uiso   1.00
C2     C     0.54789   0.83312   0.48651   0.00000  Uiso   1.00
C3     C     0.59586   0.83215   0.50105   0.00000  Uiso   1.00
C4     C     0.61806   0.80890   0.49079   0.00000  Uiso   1.00
C5     C     0.59403   0.78609   0.46576   0.00000  Uiso   1.00
C6     C     0.54735   0.78602   0.45455   0.00000  Uiso   1.00
C7     C     0.02327   0.30934   0.47121   0.00000  Uiso   1.00
C8     C     0.04789   0.33312   0.48651   0.00000  Uiso   1.00
C9     C     0.09586   0.33215   0.50105   0.00000  Uiso   1.00
C10    C     0.11806   0.30890   0.49079   0.00000  Uiso   1.00
C11    C     0.09403   0.28609   0.46576   0.00000  Uiso   1.00
C12    C     0.04735   0.28602   0.45455   0.00000  Uiso   1.00
C13    C     0.52327   0.19066   0.47122   0.00000  Uiso   1.00
C14    C     0.54789   0.16688   0.48651   0.00000  Uiso   1.00
C15    C     0.59586   0.16785   0.50105   0.00000  Uiso   1.00
C16    C     0.61806   0.19110   0.49079   0.00000  Uiso   1.00
C17    C     0.59403   0.21391   0.46576   0.00000  Uiso   1.00
C18    C     0.54735   0.21398   0.45455   0.00000  Uiso   1.00
C19    C     0.02327   0.69066   0.47121   0.00000  Uiso   1.00
C20    C     0.04789   0.66688   0.48651   0.00000  Uiso   1.00
C21    C     0.09586   0.66785   0.50105   0.00000  Uiso   1.00
C22    C     0.11806   0.69110   0.49079   0.00000  Uiso   1.00
C23    C     0.09403   0.71391   0.46576   0.00000  Uiso   1.00
C24    C     0.04735   0.71398   0.45455   0.00000  Uiso   1.00
O25    O     0.62166   0.76601   0.45433   0.00000  Uiso   1.00
O26    O     0.12166   0.26601   0.45433   0.00000  Uiso   1.00
O27    O     0.62166   0.23399   0.45433   0.00000  Uiso   1.00
O28    O     0.12166   0.73399   0.45433   0.00000  Uiso   1.00
B29    B     0.66603   0.77734   0.47498   0.00000  Uiso   1.00
B30    B     0.16603   0.27734   0.47498   0.00000  Uiso   1.00
B31    B     0.66603   0.22266   0.47498   0.00000  Uiso   1.00
B32    B     0.16603   0.72266   0.47498   0.00000  Uiso   1.00
O33    O     0.66251   0.80476   0.49854   0.00000  Uiso   1.00
O34    O     0.16251   0.30476   0.49854   0.00000  Uiso   1.00
O35    O     0.66251   0.19524   0.49854   0.00000  Uiso   1.00
O36    O     0.16251   0.69524   0.49854   0.00000  Uiso   1.00
C37    C     0.47583   0.80946   0.47017   0.00000  Uiso   1.00
C38    C     0.45150   0.83335   0.45437   0.00000  Uiso   1.00
C39    C     0.45146   0.78626   0.48733   0.00000  Uiso   1.00
C40    C     0.40480   0.78654   0.47631   0.00000  Uiso   1.00
C41    C     0.38103   0.80944   0.45120   0.00000  Uiso   1.00
C42    C     0.40354   0.83260   0.44053   0.00000  Uiso   1.00
C43    C     0.97583   0.30946   0.47017   0.00000  Uiso   1.00
C44    C     0.95150   0.33335   0.45437   0.00000  Uiso   1.00
C45    C     0.95146   0.28626   0.48733   0.00000  Uiso   1.00
C46    C     0.90480   0.28654   0.47631   0.00000  Uiso   1.00
C47    C     0.88103   0.30944   0.45120   0.00000  Uiso   1.00
C48    C     0.90354   0.33260   0.44053   0.00000  Uiso   1.00
C49    C     0.47583   0.19054   0.47017   0.00000  Uiso   1.00
C50    C     0.45150   0.16665   0.45437   0.00000  Uiso   1.00
C51    C     0.45146   0.21374   0.48733   0.00000  Uiso   1.00
C52    C     0.40480   0.21346   0.47631   0.00000  Uiso   1.00
C53    C     0.38103   0.19056   0.45120   0.00000  Uiso   1.00
C54    C     0.40354   0.16740   0.44053   0.00000  Uiso   1.00
C55    C     0.97583   0.69054   0.47017   0.00000  Uiso   1.00
C56    C     0.95150   0.66665   0.45437   0.00000  Uiso   1.00
C57    C     0.95146   0.71374   0.48733   0.00000  Uiso   1.00
C58    C     0.90480   0.71346   0.47631   0.00000  Uiso   1.00
C59    C     0.88103   0.69056   0.45120   0.00000  Uiso   1.00
C60    C     0.90354   0.66740   0.44053   0.00000  Uiso   1.00
O61    O     0.33654   0.80546   0.44373   0.00000  Uiso   1.00
O62    O     0.83654   0.30546   0.44373   0.00000  Uiso   1.00
O63    O     0.33654   0.19454   0.44373   0.00000  Uiso   1.00
O64    O     0.83654   0.69454   0.44373   0.00000  Uiso   1.00
B65    B     0.33273   0.77806   0.46746   0.00000  Uiso   1.00
B66    B     0.83273   0.27806   0.46746   0.00000  Uiso   1.00
B67    B     0.33273   0.22194   0.46746   0.00000  Uiso   1.00
B68    B     0.83273   0.72194   0.46746   0.00000  Uiso   1.00
O69    O     0.37697   0.76658   0.48802   0.00000  Uiso   1.00
O70    O     0.87697   0.26658   0.48802   0.00000  Uiso   1.00
O71    O     0.37697   0.23342   0.48802   0.00000  Uiso   1.00
O72    O     0.87697   0.73342   0.48802   0.00000  Uiso   1.00
C73    C     0.52420   0.85687   0.48312   0.00000  Uiso   1.00
C74    C     0.47546   0.85700   0.45635   0.00000  Uiso   1.00
C75    C     0.45244   0.88117   0.43567   0.00000  Uiso   1.00
C76    C     0.47660   0.90412   0.45048   0.00000  Uiso   1.00
C77    C     0.52366   0.90397   0.48497   0.00000  Uiso   1.00
C78    C     0.54753   0.88092   0.50199   0.00000  Uiso   1.00
C79    C     0.02420   0.35687   0.48312   0.00000  Uiso   1.00
C80    C     0.02366   0.40397   0.48497   0.00000  Uiso   1.00
C81    C     0.04753   0.38092   0.50199   0.00000  Uiso   1.00
C82    C     0.52420   0.14313   0.48312   0.00000  Uiso   1.00
C83    C     0.47546   0.14300   0.45635   0.00000  Uiso   1.00
C84    C     0.45244   0.11883   0.43567   0.00000  Uiso   1.00
C85    C     0.47660   0.09588   0.45048   0.00000  Uiso   1.00
C86    C     0.52366   0.09603   0.48497   0.00000  Uiso   1.00
C87    C     0.54753   0.11908   0.50199   0.00000  Uiso   1.00
C88    C     0.02420   0.64313   0.48312   0.00000  Uiso   1.00
C89    C     0.02366   0.59603   0.48497   0.00000  Uiso   1.00
C90    C     0.04753   0.61908   0.50199   0.00000  Uiso   1.00
C91    C     0.97546   0.35700   0.45635   0.00000  Uiso   1.00
C92    C     0.95244   0.38117   0.43567   0.00000  Uiso   1.00
C93    C     0.97660   0.40412   0.45048   0.00000  Uiso   1.00
C94    C     0.97546   0.64300   0.45635   0.00000  Uiso   1.00
C95    C     0.95244   0.61883   0.43567   0.00000  Uiso   1.00
C96    C     0.97660   0.59588   0.45048   0.00000  Uiso   1.00
O97    O     0.54028   0.92801   0.49586   0.00000  Uiso   1.00
O98    O     0.04028   0.42801   0.49586   0.00000  Uiso   1.00
O99    O     0.54028   0.07199   0.49586   0.00000  Uiso   1.00
O100   O     0.04028   0.57199   0.49586   0.00000  Uiso   1.00
B101   B     0.50050   0.94420   0.46550   0.00000  Uiso   1.00
B102   B     0.00049   0.44420   0.46550   0.00000  Uiso   1.00
B103   B     0.50050   0.05580   0.46550   0.00000  Uiso   1.00
B104   B     0.00049   0.55580   0.46550   0.00000  Uiso   1.00
O105   O     0.46040   0.92830   0.43705   0.00000  Uiso   1.00
O106   O     0.96040   0.42830   0.43705   0.00000  Uiso   1.00
O107   O     0.46040   0.07170   0.43705   0.00000  Uiso   1.00
O108   O     0.96040   0.57170   0.43705   0.00000  Uiso   1.00
H109   H     0.61616   0.84786   0.51628   0.00000  Uiso   1.00
H110   H     0.53229   0.76845   0.43106   0.00000  Uiso   1.00
H111   H     0.46629   0.76862   0.51104   0.00000  Uiso   1.00
H112   H     0.38348   0.84841   0.42550   0.00000  Uiso   1.00
H113   H     0.41805   0.88313   0.41020   0.00000  Uiso   1.00
H114   H     0.58195   0.88273   0.52732   0.00000  Uiso   1.00
H115   H     0.11616   0.34786   0.51628   0.00000  Uiso   1.00
H116   H     0.03228   0.26845   0.43106   0.00000  Uiso   1.00
H117   H     0.08195   0.38273   0.52732   0.00000  Uiso   1.00
H118   H     0.61616   0.15214   0.51628   0.00000  Uiso   1.00
H119   H     0.53229   0.23155   0.43106   0.00000  Uiso   1.00
H120   H     0.46629   0.23138   0.51104   0.00000  Uiso   1.00
H121   H     0.38348   0.15159   0.42550   0.00000  Uiso   1.00
H122   H     0.41805   0.11687   0.41020   0.00000  Uiso   1.00
H123   H     0.58195   0.11727   0.52732   0.00000  Uiso   1.00
H124   H     0.11616   0.65214   0.51628   0.00000  Uiso   1.00
H125   H     0.03228   0.73155   0.43106   0.00000  Uiso   1.00
H126   H     0.08195   0.61727   0.52732   0.00000  Uiso   1.00
H127   H     0.96629   0.26862   0.51104   0.00000  Uiso   1.00
H128   H     0.88348   0.34841   0.42550   0.00000  Uiso   1.00
H129   H     0.91805   0.38313   0.41020   0.00000  Uiso   1.00
H130   H     0.96629   0.73138   0.51104   0.00000  Uiso   1.00
H131   H     0.88348   0.65159   0.42550   0.00000  Uiso   1.00
H132   H     0.91805   0.61687   0.41020   0.00000  Uiso   1.00
C133   C     0.79007   0.73609   0.47002   0.00000  Uiso   1.00
C134   C     0.29007   0.23609   0.47002   0.00000  Uiso   1.00
C135   C     0.79007   0.26391   0.47002   0.00000  Uiso   1.00
C136   C     0.29007   0.76391   0.47002   0.00000  Uiso   1.00
C137   C     0.74836   0.72279   0.44271   0.00000  Uiso   1.00
C138   C     0.24836   0.22279   0.44271   0.00000  Uiso   1.00
C139   C     0.74836   0.27721   0.44271   0.00000  Uiso   1.00
C140   C     0.24836   0.77721   0.44271   0.00000  Uiso   1.00
C141   C     0.75035   0.77643   0.49995   0.00000  Uiso   1.00
C142   C     0.25035   0.27643   0.49995   0.00000  Uiso   1.00
C143   C     0.75035   0.22357   0.49995   0.00000  Uiso   1.00
C144   C     0.25035   0.72357   0.49995   0.00000  Uiso   1.00
H145   H     0.74708   0.70326   0.42194   0.00000  Uiso   1.00
H146   H     0.24708   0.20326   0.42194   0.00000  Uiso   1.00
H147   H     0.74708   0.29674   0.42194   0.00000  Uiso   1.00
H148   H     0.24708   0.79674   0.42194   0.00000  Uiso   1.00
C149   C     0.79077   0.76301   0.49928   0.00000  Uiso   1.00
C150   C     0.29077   0.26301   0.49928   0.00000  Uiso   1.00
C151   C     0.79077   0.23699   0.49928   0.00000  Uiso   1.00
C152   C     0.29077   0.73699   0.49928   0.00000  Uiso   1.00
C153   C     0.70793   0.73621   0.44339   0.00000  Uiso   1.00
C154   C     0.20793   0.23621   0.44339   0.00000  Uiso   1.00
C155   C     0.70793   0.26379   0.44339   0.00000  Uiso   1.00
C156   C     0.20793   0.76379   0.44339   0.00000  Uiso   1.00
H157   H     0.82061   0.77306   0.51924   0.00000  Uiso   1.00
H158   H     0.32061   0.27306   0.51924   0.00000  Uiso   1.00
H159   H     0.82061   0.22694   0.51924   0.00000  Uiso   1.00
H160   H     0.32061   0.72694   0.51924   0.00000  Uiso   1.00
C161   C     0.70863   0.76313   0.47260   0.00000  Uiso   1.00
C162   C     0.20863   0.26313   0.47260   0.00000  Uiso   1.00
C163   C     0.70863   0.23687   0.47260   0.00000  Uiso   1.00
C164   C     0.20863   0.73687   0.47260   0.00000  Uiso   1.00
H165   H     0.67807   0.72618   0.42340   0.00000  Uiso   1.00
H166   H     0.17807   0.22618   0.42340   0.00000  Uiso   1.00
H167   H     0.67807   0.27382   0.42340   0.00000  Uiso   1.00
H168   H     0.17807   0.77382   0.42340   0.00000  Uiso   1.00
H169   H     0.75164   0.79596   0.52065   0.00000  Uiso   1.00
H170   H     0.25164   0.29596   0.52065   0.00000  Uiso   1.00
H171   H     0.75164   0.20404   0.52065   0.00000  Uiso   1.00
H172   H     0.25164   0.70404   0.52065   0.00000  Uiso   1.00
C173   C     0.50073   0.02734   0.46394   0.00000  Uiso   1.00
C174   C     0.00073   0.52734   0.46394   0.00000  Uiso   1.00
C175   C     0.50073   0.97266   0.46394   0.00000  Uiso   1.00
C176   C     0.00073   0.47266   0.46394   0.00000  Uiso   1.00
C177   C     0.54166   0.01335   0.48891   0.00000  Uiso   1.00
C178   C     0.04165   0.51335   0.48891   0.00000  Uiso   1.00
C179   C     0.54166   0.98665   0.48891   0.00000  Uiso   1.00
C180   C     0.04165   0.48665   0.48891   0.00000  Uiso   1.00
C181   C     0.45952   0.98650   0.43826   0.00000  Uiso   1.00
C182   C     0.95952   0.48650   0.43826   0.00000  Uiso   1.00
C183   C     0.45952   0.01350   0.43826   0.00000  Uiso   1.00
C184   C     0.95952   0.51350   0.43826   0.00000  Uiso   1.00
N185   N     0.58394   0.02277   0.51520   0.00000  Uiso   1.00
N186   N     0.08394   0.52277   0.51520   0.00000  Uiso   1.00
N187   N     0.58394   0.97723   0.51520   0.00000  Uiso   1.00
N188   N     0.08394   0.47723   0.51520   0.00000  Uiso   1.00
S189   S     0.62447   0.00000   0.54188   0.00000  Uiso   1.00
S190   S     0.12447   0.50000   0.54188   0.00000  Uiso   1.00
H191   H     0.42928   0.02297   0.42187   0.00000  Uiso   1.00
H192   H     0.92928   0.52297   0.42187   0.00000  Uiso   1.00
H193   H     0.42928   0.97703   0.42187   0.00000  Uiso   1.00
H194   H     0.92928   0.47703   0.42187   0.00000  Uiso   1.00
loop_
_geom_bond_atom_site_label_1
_geom_bond_atom_site_label_2
_geom_bond_distance
_geom_bond_site_symmetry_2
_ccdc_geom_bond_type
C1     C2      1.439   .     S
C1     C6      1.431   .     S
C1     C37     1.430   .     D
C2     C3      1.431   .     S
C2     C73     1.431   .     D
C3     C4      1.395   .     D
C3     H109    1.015   .     S
C4     C5      1.382   .     S
C4     O33     1.349   .     S
C5     C6      1.395   .     D
C5     O25     1.350   .     S
C6     H110    1.015   .     S
C7     C8      1.439   .     S
C7     C12     1.431   .     S
C7     C43     1.430   1_455 D
C8     C9      1.431   .     S
C8     C79     1.431   .     D
C9     C10     1.395   .     D
C9     H115    1.015   .     S
C10    C11     1.382   .     S
C10    O34     1.349   .     S
C11    C12     1.395   .     D
C11    O26     1.350   .     S
C12    H116    1.015   .     S
C13    C14     1.439   .     S
C13    C18     1.431   .     S
C13    C49     1.430   .     D
C14    C15     1.431   .     S
C14    C82     1.431   .     D
C15    C16     1.395   .     D
C15    H118    1.015   .     S
C16    C17     1.382   .     S
C16    O35     1.349   .     S
C17    C18     1.395   .     D
C17    O27     1.350   .     S
C18    H119    1.015   .     S
C19    C20     1.439   .     S
C19    C24     1.431   .     S
C19    C55     1.430   1_455 D
C20    C21     1.431   .     S
C20    C88     1.431   .     D
C21    C22     1.395   .     D
C21    H124    1.015   .     S
C22    C23     1.382   .     S
C22    O36     1.349   .     S
C23    C24     1.395   .     D
C23    O28     1.350   .     S
C24    H125    1.015   .     S
O25    B29     1.442   .     S
O26    B30     1.442   .     S
O27    B31     1.442   .     S
O28    B32     1.442   .     S
B29    O33     1.442   .     S
B29    C161    1.487   .     S
B30    O34     1.442   .     S
B30    C162    1.487   .     S
B31    O35     1.442   .     S
B31    C163    1.487   .     S
B32    O36     1.442   .     S
B32    C164    1.487   .     S
C37    C38     1.440   .     S
C37    C39     1.431   .     S
C38    C42     1.431   .     S
C38    C74     1.431   .     D
C39    C40     1.395   .     D
C39    H111    1.015   .     S
C40    C41     1.382   .     S
C40    O69     1.349   .     S
C41    C42     1.395   .     D
C41    O61     1.350   .     S
C42    H112    1.015   .     S
C43    C7      1.430   1_655 D
C43    C44     1.440   .     S
C43    C45     1.431   .     S
C44    C48     1.431   .     S
C44    C91     1.431   .     D
C45    C46     1.395   .     D
C45    H127    1.015   .     S
C46    C47     1.382   .     S
C46    O70     1.349   .     S
C47    C48     1.395   .     D
C47    O62     1.350   .     S
C48    H128    1.015   .     S
C49    C50     1.440   .     S
C49    C51     1.431   .     S
C50    C54     1.431   .     S
C50    C83     1.431   .     D
C51    C52     1.395   .     D
C51    H120    1.015   .     S
C52    C53     1.382   .     S
C52    O71     1.349   .     S
C53    C54     1.395   .     D
C53    O63     1.350   .     S
C54    H121    1.015   .     S
C55    C19     1.430   1_655 D
C55    C56     1.440   .     S
C55    C57     1.431   .     S
C56    C60     1.431   .     S
C56    C94     1.431   .     D
C57    C58     1.395   .     D
C57    H130    1.015   .     S
C58    C59     1.382   .     S
C58    O72     1.349   .     S
C59    C60     1.395   .     D
C59    O64     1.350   .     S
C60    H131    1.015   .     S
O61    B65     1.442   .     S
O62    B66     1.442   .     S
O63    B67     1.442   .     S
O64    B68     1.442   .     S
B65    O69     1.442   .     S
B65    C136    1.487   .     S
B66    O70     1.442   .     S
B66    C135    1.487   .     S
B67    O71     1.442   .     S
B67    C134    1.487   .     S
B68    O72     1.442   .     S
B68    C133    1.487   .     S
C73    C74     1.440   .     S
C73    C78     1.431   .     S
C74    C75     1.431   .     S
C75    C76     1.395   .     D
C75    H113    1.015   .     S
C76    C77     1.382   .     S
C76    O105    1.350   .     S
C77    C78     1.394   .     D
C77    O97     1.349   .     S
C78    H114    1.015   .     S
C79    C81     1.431   .     S
C79    C91     1.440   1_455 S
C80    C81     1.394   .     D
C80    C93     1.382   1_455 S
C80    O98     1.349   .     S
C81    H117    1.015   .     S
C82    C83     1.440   .     S
C82    C87     1.431   .     S
C83    C84     1.431   .     S
C84    C85     1.395   .     D
C84    H122    1.015   .     S
C85    C86     1.382   .     S
C85    O107    1.350   .     S
C86    C87     1.394   .     D
C86    O99     1.349   .     S
C87    H123    1.015   .     S
C88    C90     1.431   .     S
C88    C94     1.440   1_455 S
C89    C90     1.394   .     D
C89    C96     1.382   1_455 S
C89    O100    1.349   .     S
C90    H126    1.015   .     S
C91    C79     1.440   1_655 S
C91    C92     1.431   .     S
C92    C93     1.395   .     D
C92    H129    1.015   .     S
C93    C80     1.382   1_655 S
C93    O106    1.350   .     S
C94    C88     1.440   1_655 S
C94    C95     1.431   .     S
C95    C96     1.395   .     D
C95    H132    1.015   .     S
C96    C89     1.382   1_655 S
C96    O108    1.350   .     S
O97    B101    1.442   .     S
O98    B102    1.442   .     S
O99    B103    1.442   .     S
O100   B104    1.442   .     S
B101   O105    1.442   .     S
B101   C175    1.488   .     S
B102   O106    1.442   1_455 S
B102   C176    1.488   .     S
B103   O107    1.442   .     S
B103   C173    1.488   .     S
B104   O108    1.442   1_455 S
B104   C174    1.488   .     S
O106   B102    1.442   1_655 S
O108   B104    1.442   1_655 S
C133   C137    1.411   .     S
C133   C149    1.411   .     D
C134   C138    1.411   .     D
C134   C150    1.411   .     S
C135   C139    1.411   .     D
C135   C151    1.411   .     S
C136   C140    1.411   .     D
C136   C152    1.411   .     S
C137   H145    1.023   .     S
C137   C153    1.408   .     D
C138   H146    1.023   .     S
C138   C154    1.408   .     S
C139   H147    1.023   .     S
C139   C155    1.408   .     S
C140   H148    1.023   .     S
C140   C156    1.408   .     S
C141   C149    1.408   .     S
C141   C161    1.411   .     D
C141   H169    1.024   .     S
C142   C150    1.408   .     D
C142   C162    1.411   .     S
C142   H170    1.023   .     S
C143   C151    1.408   .     D
C143   C163    1.411   .     S
C143   H171    1.024   .     S
C144   C152    1.408   .     D
C144   C164    1.411   .     S
C144   H172    1.024   .     S
C149   H157    1.023   .     S
C150   H158    1.023   .     S
C151   H159    1.023   .     S
C152   H160    1.023   .     S
C153   C161    1.411   .     S
C153   H165    1.023   .     S
C154   C162    1.411   .     D
C154   H166    1.023   .     S
C155   C163    1.411   .     D
C155   H167    1.023   .     S
C156   C164    1.411   .     D
C156   H168    1.023   .     S
C173   C177    1.411   .     S
C173   C183    1.413   .     D
C174   C178    1.411   .     S
C174   C184    1.413   1_455 D
C175   C179    1.411   .     S
C175   C181    1.413   .     D
C176   C180    1.411   .     S
C176   C182    1.413   1_455 D
C177   C179    1.396   1_545 S
C177   N185    1.340   .     D
C178   C180    1.396   .     S
C178   N186    1.340   .     D
C179   C177    1.396   1_565 S
C179   N187    1.340   .     D
C180   N188    1.340   .     D
C181   C183    1.411   1_565 S
C181   H193    1.022   .     S
C182   C176    1.413   1_655 D
C182   C184    1.411   .     S
C182   H194    1.022   .     S
C183   C181    1.411   1_545 S
C183   H191    1.022   .     S
C184   C174    1.413   1_655 D
C184   H192    1.022   .     S
N185   S189    1.685   .     S
N186   S190    1.685   .     S
N187   S189    1.685   1_565 S
N188   S190    1.685   .     S
S189   N187    1.685   1_545 S
