data_302
_audit_creation_date              2023-09-08
_audit_creation_method            'Materials Studio'
_symmetry_space_group_name_H-M    'P1'
_symmetry_Int_Tables_number       1
_symmetry_cell_setting            triclinic
loop_
_symmetry_equiv_pos_as_xyz
  x,y,z
_cell_length_a                    56.4300
_cell_length_b                    3.5334
_cell_length_c                    37.4960
_cell_angle_alpha                 90.0000
_cell_angle_beta                  90.0000
_cell_angle_gamma                 90.0000
loop_
_atom_site_label
_atom_site_type_symbol
_atom_site_fract_x
_atom_site_fract_y
_atom_site_fract_z
_atom_site_U_iso_or_equiv
_atom_site_adp_type
_atom_site_occupancy
C1     C     0.63260   0.50001   0.98052   0.00000  Uiso   1.00
C2     C     0.13214   0.50001   0.48063   0.00000  Uiso   1.00
C3     C     0.36766   0.50001   0.01894   0.00000  Uiso   1.00
C4     C     0.86796   0.50001   0.51905   0.00000  Uiso   1.00
C5     C     0.36739   0.50001   0.98052   0.00000  Uiso   1.00
C6     C     0.86786   0.50001   0.48063   0.00000  Uiso   1.00
C7     C     0.63234   0.50001   0.01894   0.00000  Uiso   1.00
C8     C     0.13204   0.50001   0.51905   0.00000  Uiso   1.00
C9     C     0.61041   0.50001   0.96210   0.00000  Uiso   1.00
C10    C     0.10986   0.50001   0.46238   0.00000  Uiso   1.00
C11    C     0.39014   0.50001   0.03670   0.00000  Uiso   1.00
C12    C     0.89034   0.50001   0.53702   0.00000  Uiso   1.00
C13    C     0.38959   0.50001   0.96210   0.00000  Uiso   1.00
C14    C     0.89014   0.50001   0.46238   0.00000  Uiso   1.00
C15    C     0.60986   0.50001   0.03670   0.00000  Uiso   1.00
C16    C     0.10966   0.50001   0.53702   0.00000  Uiso   1.00
C17    C     0.58908   0.50001   0.98067   0.00000  Uiso   1.00
C18    C     0.08856   0.50001   0.48113   0.00000  Uiso   1.00
C19    C     0.41128   0.50001   0.01749   0.00000  Uiso   1.00
C20    C     0.91153   0.50001   0.51801   0.00000  Uiso   1.00
C21    C     0.41092   0.50001   0.98067   0.00000  Uiso   1.00
C22    C     0.91144   0.50001   0.48113   0.00000  Uiso   1.00
C23    C     0.58872   0.50001   0.01749   0.00000  Uiso   1.00
C24    C     0.08847   0.50001   0.51801   0.00000  Uiso   1.00
H25    H     0.60772   0.50001   0.06353   0.00000  Uiso   1.00
H26    H     0.10767   0.50001   0.56389   0.00000  Uiso   1.00
H27    H     0.39145   0.50001   0.93520   0.00000  Uiso   1.00
H28    H     0.89197   0.50001   0.43549   0.00000  Uiso   1.00
H29    H     0.39228   0.50001   0.06353   0.00000  Uiso   1.00
H30    H     0.89233   0.50001   0.56389   0.00000  Uiso   1.00
H31    H     0.60855   0.50001   0.93520   0.00000  Uiso   1.00
H32    H     0.10803   0.50001   0.43549   0.00000  Uiso   1.00
H33    H     0.64006   0.50001   0.09213   0.00000  Uiso   1.00
H34    H     0.14001   0.50001   0.59228   0.00000  Uiso   1.00
H35    H     0.35889   0.50001   0.90750   0.00000  Uiso   1.00
H36    H     0.85946   0.50001   0.40752   0.00000  Uiso   1.00
H37    H     0.35994   0.50001   0.09213   0.00000  Uiso   1.00
H38    H     0.85999   0.50001   0.59228   0.00000  Uiso   1.00
H39    H     0.64112   0.50001   0.90750   0.00000  Uiso   1.00
H40    H     0.14054   0.50001   0.40752   0.00000  Uiso   1.00
H41    H     0.71433   0.50001   0.02888   0.00000  Uiso   1.00
H42    H     0.21408   0.50001   0.52858   0.00000  Uiso   1.00
H43    H     0.28532   0.50001   0.97253   0.00000  Uiso   1.00
H44    H     0.78575   0.50001   0.47221   0.00000  Uiso   1.00
H45    H     0.28567   0.50001   0.02888   0.00000  Uiso   1.00
H46    H     0.78592   0.50001   0.52858   0.00000  Uiso   1.00
H47    H     0.71468   0.50001   0.97253   0.00000  Uiso   1.00
H48    H     0.21425   0.50001   0.47221   0.00000  Uiso   1.00
C49    C     0.47460   0.50001   0.99800   0.00000  Uiso   1.00
C50    C     0.97482   0.50001   0.49932   0.00000  Uiso   1.00
C51    C     0.52540   0.50001   0.99800   0.00000  Uiso   1.00
C52    C     0.02518   0.50001   0.49932   0.00000  Uiso   1.00
C53    C     0.48764   0.50001   0.96587   0.00000  Uiso   1.00
C54    C     0.98753   0.50001   0.46685   0.00000  Uiso   1.00
C55    C     0.51251   0.50001   0.03039   0.00000  Uiso   1.00
C56    C     0.01247   0.50001   0.53178   0.00000  Uiso   1.00
C57    C     0.51236   0.50001   0.96587   0.00000  Uiso   1.00
C58    C     0.01247   0.50001   0.46685   0.00000  Uiso   1.00
C59    C     0.48749   0.50001   0.03039   0.00000  Uiso   1.00
C60    C     0.98753   0.50001   0.53178   0.00000  Uiso   1.00
H61    H     0.97864   0.50001   0.44298   0.00000  Uiso   1.00
H62    H     0.52134   0.50001   0.05423   0.00000  Uiso   1.00
H63    H     0.02134   0.50001   0.55566   0.00000  Uiso   1.00
H64    H     0.02136   0.50001   0.44298   0.00000  Uiso   1.00
H65    H     0.47866   0.50001   0.05423   0.00000  Uiso   1.00
H66    H     0.97866   0.50001   0.55566   0.00000  Uiso   1.00
C67    C     0.78104   0.50001   0.33235   0.00000  Uiso   1.00
C68    C     0.28041   0.50001   0.83262   0.00000  Uiso   1.00
C69    C     0.21801   0.50001   0.66845   0.00000  Uiso   1.00
C70    C     0.71818   0.50001   0.16855   0.00000  Uiso   1.00
C71    C     0.21896   0.50001   0.33235   0.00000  Uiso   1.00
C72    C     0.71959   0.50001   0.83262   0.00000  Uiso   1.00
C73    C     0.78199   0.50001   0.66845   0.00000  Uiso   1.00
C74    C     0.28182   0.50001   0.16855   0.00000  Uiso   1.00
C75    C     0.75602   0.50001   0.33211   0.00000  Uiso   1.00
C76    C     0.25539   0.50001   0.83225   0.00000  Uiso   1.00
C77    C     0.24303   0.50001   0.66886   0.00000  Uiso   1.00
C78    C     0.74320   0.50001   0.16882   0.00000  Uiso   1.00
C79    C     0.24398   0.50001   0.33211   0.00000  Uiso   1.00
C80    C     0.74461   0.50001   0.83225   0.00000  Uiso   1.00
C81    C     0.75697   0.50001   0.66886   0.00000  Uiso   1.00
C82    C     0.25680   0.50001   0.16882   0.00000  Uiso   1.00
C83    C     0.78107   0.50001   0.26684   0.00000  Uiso   1.00
C84    C     0.28063   0.50001   0.76713   0.00000  Uiso   1.00
C85    C     0.21778   0.50001   0.73396   0.00000  Uiso   1.00
C86    C     0.71812   0.50001   0.23405   0.00000  Uiso   1.00
C87    C     0.21893   0.50001   0.26684   0.00000  Uiso   1.00
C88    C     0.71937   0.50001   0.76713   0.00000  Uiso   1.00
C89    C     0.78222   0.50001   0.73396   0.00000  Uiso   1.00
C90    C     0.28189   0.50001   0.23405   0.00000  Uiso   1.00
H91    H     0.74695   0.50001   0.35584   0.00000  Uiso   1.00
H92    H     0.24631   0.50001   0.85596   0.00000  Uiso   1.00
H93    H     0.25218   0.50001   0.64520   0.00000  Uiso   1.00
H94    H     0.75225   0.50001   0.14508   0.00000  Uiso   1.00
H95    H     0.25305   0.50001   0.35584   0.00000  Uiso   1.00
H96    H     0.75369   0.50001   0.85596   0.00000  Uiso   1.00
H97    H     0.74782   0.50001   0.64520   0.00000  Uiso   1.00
H98    H     0.24775   0.50001   0.14508   0.00000  Uiso   1.00
C99    C     0.79339   0.50001   0.29959   0.00000  Uiso   1.00
C100   C     0.29286   0.50001   0.79995   0.00000  Uiso   1.00
C101   C     0.20555   0.50001   0.70112   0.00000  Uiso   1.00
C102   C     0.70580   0.50001   0.20129   0.00000  Uiso   1.00
C103   C     0.20661   0.50001   0.29959   0.00000  Uiso   1.00
C104   C     0.70714   0.50001   0.79995   0.00000  Uiso   1.00
C105   C     0.79445   0.50001   0.70112   0.00000  Uiso   1.00
C106   C     0.29420   0.50001   0.20129   0.00000  Uiso   1.00
C107   C     0.74331   0.50001   0.29968   0.00000  Uiso   1.00
C108   C     0.24278   0.50001   0.79975   0.00000  Uiso   1.00
C109   C     0.25563   0.50001   0.70137   0.00000  Uiso   1.00
C110   C     0.75589   0.50001   0.20124   0.00000  Uiso   1.00
C111   C     0.25669   0.50001   0.29968   0.00000  Uiso   1.00
C112   C     0.75722   0.50001   0.79975   0.00000  Uiso   1.00
C113   C     0.74437   0.50001   0.70137   0.00000  Uiso   1.00
C114   C     0.24411   0.50001   0.20124   0.00000  Uiso   1.00
H115   H     0.81158   0.50001   0.29961   0.00000  Uiso   1.00
H116   H     0.31106   0.50001   0.80011   0.00000  Uiso   1.00
H117   H     0.18737   0.50001   0.70096   0.00000  Uiso   1.00
H118   H     0.68760   0.50001   0.20120   0.00000  Uiso   1.00
H119   H     0.18842   0.50001   0.29961   0.00000  Uiso   1.00
H120   H     0.68894   0.50001   0.80011   0.00000  Uiso   1.00
H121   H     0.81263   0.50001   0.70096   0.00000  Uiso   1.00
H122   H     0.31240   0.50001   0.20120   0.00000  Uiso   1.00
C123   C     0.75589   0.50001   0.26687   0.00000  Uiso   1.00
C124   C     0.25546   0.50001   0.76701   0.00000  Uiso   1.00
C125   C     0.24295   0.50001   0.73410   0.00000  Uiso   1.00
C126   C     0.74329   0.50001   0.23404   0.00000  Uiso   1.00
C127   C     0.24411   0.50001   0.26687   0.00000  Uiso   1.00
C128   C     0.74454   0.50001   0.76701   0.00000  Uiso   1.00
C129   C     0.75705   0.50001   0.73410   0.00000  Uiso   1.00
C130   C     0.25671   0.50001   0.23404   0.00000  Uiso   1.00
C131   C     0.70585   0.50001   0.26685   0.00000  Uiso   1.00
C132   C     0.20541   0.50001   0.76667   0.00000  Uiso   1.00
C133   C     0.29300   0.50001   0.73442   0.00000  Uiso   1.00
C134   C     0.79335   0.50001   0.23406   0.00000  Uiso   1.00
C135   C     0.29415   0.50001   0.26685   0.00000  Uiso   1.00
C136   C     0.79459   0.50001   0.76667   0.00000  Uiso   1.00
C137   C     0.70700   0.50001   0.73442   0.00000  Uiso   1.00
C138   C     0.20665   0.50001   0.23406   0.00000  Uiso   1.00
C139   C     0.78090   0.50001   0.20162   0.00000  Uiso   1.00
C140   C     0.28063   0.50001   0.70190   0.00000  Uiso   1.00
C141   C     0.21778   0.50001   0.79920   0.00000  Uiso   1.00
C142   C     0.71831   0.50001   0.29929   0.00000  Uiso   1.00
C143   C     0.21911   0.50001   0.20162   0.00000  Uiso   1.00
C144   C     0.71937   0.50001   0.70190   0.00000  Uiso   1.00
C145   C     0.78222   0.50001   0.79920   0.00000  Uiso   1.00
C146   C     0.28169   0.50001   0.29929   0.00000  Uiso   1.00
H147   H     0.68772   0.50001   0.26741   0.00000  Uiso   1.00
H148   H     0.18728   0.50001   0.76712   0.00000  Uiso   1.00
H149   H     0.31113   0.50001   0.73397   0.00000  Uiso   1.00
H150   H     0.81148   0.50001   0.23350   0.00000  Uiso   1.00
H151   H     0.31228   0.50001   0.26741   0.00000  Uiso   1.00
H152   H     0.81272   0.50001   0.76712   0.00000  Uiso   1.00
H153   H     0.68887   0.50001   0.73397   0.00000  Uiso   1.00
H154   H     0.18852   0.50001   0.23350   0.00000  Uiso   1.00
H155   H     0.79028   0.50001   0.17826   0.00000  Uiso   1.00
H156   H     0.29008   0.50001   0.67860   0.00000  Uiso   1.00
H157   H     0.20833   0.50001   0.82250   0.00000  Uiso   1.00
H158   H     0.70892   0.50001   0.32265   0.00000  Uiso   1.00
H159   H     0.20972   0.50001   0.17826   0.00000  Uiso   1.00
H160   H     0.70992   0.50001   0.67860   0.00000  Uiso   1.00
H161   H     0.79167   0.50001   0.82250   0.00000  Uiso   1.00
H162   H     0.29108   0.50001   0.32265   0.00000  Uiso   1.00
N163   N     0.47891   0.50001   0.93264   0.00000  Uiso   1.00
N164   N     0.52109   0.50001   0.93264   0.00000  Uiso   1.00
S165   S     0.50000   0.50001   0.90083   0.00000  Uiso   1.00
O166   O     0.56704   0.50001   0.96727   0.00000  Uiso   1.00
O167   O     0.06634   0.50001   0.46798   0.00000  Uiso   1.00
O168   O     0.43365   0.50001   0.03001   0.00000  Uiso   1.00
O169   O     0.93380   0.50001   0.53092   0.00000  Uiso   1.00
O170   O     0.43296   0.50001   0.96727   0.00000  Uiso   1.00
O171   O     0.93366   0.50001   0.46798   0.00000  Uiso   1.00
O172   O     0.56635   0.50001   0.03001   0.00000  Uiso   1.00
O173   O     0.06620   0.50001   0.53092   0.00000  Uiso   1.00
B174   B     0.55182   0.50001   0.99821   0.00000  Uiso   1.00
B175   B     0.05158   0.50001   0.49937   0.00000  Uiso   1.00
B176   B     0.44818   0.50001   0.99821   0.00000  Uiso   1.00
B177   B     0.94842   0.50001   0.49937   0.00000  Uiso   1.00
C178   C     0.65464   0.50001   0.96172   0.00000  Uiso   1.00
C179   C     0.67664   0.50001   0.98119   0.00000  Uiso   1.00
C180   C     0.65557   0.50001   0.92358   0.00000  Uiso   1.00
C181   C     0.67714   0.50001   0.90559   0.00000  Uiso   1.00
C182   C     0.69829   0.50001   0.92424   0.00000  Uiso   1.00
C183   C     0.69833   0.50001   0.96138   0.00000  Uiso   1.00
C184   C     0.15414   0.50001   0.46171   0.00000  Uiso   1.00
C185   C     0.17620   0.50001   0.48107   0.00000  Uiso   1.00
C186   C     0.15500   0.50001   0.42356   0.00000  Uiso   1.00
C187   C     0.17654   0.50001   0.40546   0.00000  Uiso   1.00
C188   C     0.19771   0.50001   0.42403   0.00000  Uiso   1.00
C189   C     0.19785   0.50001   0.46116   0.00000  Uiso   1.00
C190   C     0.34582   0.50001   0.03828   0.00000  Uiso   1.00
C191   C     0.32360   0.50001   0.01933   0.00000  Uiso   1.00
C192   C     0.34529   0.50001   0.07645   0.00000  Uiso   1.00
C193   C     0.32391   0.50001   0.09498   0.00000  Uiso   1.00
C194   C     0.30258   0.50001   0.07676   0.00000  Uiso   1.00
C195   C     0.30213   0.50001   0.03965   0.00000  Uiso   1.00
C196   C     0.84608   0.50001   0.53826   0.00000  Uiso   1.00
C197   C     0.82391   0.50001   0.51920   0.00000  Uiso   1.00
C198   C     0.84544   0.50001   0.57643   0.00000  Uiso   1.00
C199   C     0.82402   0.50001   0.59482   0.00000  Uiso   1.00
C200   C     0.80275   0.50001   0.57653   0.00000  Uiso   1.00
C201   C     0.80239   0.50001   0.53940   0.00000  Uiso   1.00
C202   C     0.34536   0.50001   0.96172   0.00000  Uiso   1.00
C203   C     0.32336   0.50001   0.98119   0.00000  Uiso   1.00
C204   C     0.34443   0.50001   0.92358   0.00000  Uiso   1.00
C205   C     0.32286   0.50001   0.90559   0.00000  Uiso   1.00
C206   C     0.30171   0.50001   0.92424   0.00000  Uiso   1.00
C207   C     0.30167   0.50001   0.96138   0.00000  Uiso   1.00
C208   C     0.84585   0.50001   0.46171   0.00000  Uiso   1.00
C209   C     0.82380   0.50001   0.48107   0.00000  Uiso   1.00
C210   C     0.84500   0.50001   0.42356   0.00000  Uiso   1.00
C211   C     0.82346   0.50001   0.40546   0.00000  Uiso   1.00
C212   C     0.80229   0.50001   0.42403   0.00000  Uiso   1.00
C213   C     0.80215   0.50001   0.46116   0.00000  Uiso   1.00
C214   C     0.65418   0.50001   0.03828   0.00000  Uiso   1.00
C215   C     0.67640   0.50001   0.01933   0.00000  Uiso   1.00
C216   C     0.65471   0.50001   0.07645   0.00000  Uiso   1.00
C217   C     0.67610   0.50001   0.09498   0.00000  Uiso   1.00
C218   C     0.69742   0.50001   0.07676   0.00000  Uiso   1.00
C219   C     0.69787   0.50001   0.03965   0.00000  Uiso   1.00
C220   C     0.15392   0.50001   0.53826   0.00000  Uiso   1.00
C221   C     0.17609   0.50001   0.51920   0.00000  Uiso   1.00
C222   C     0.15456   0.50001   0.57643   0.00000  Uiso   1.00
C223   C     0.17598   0.50001   0.59482   0.00000  Uiso   1.00
C224   C     0.19725   0.50001   0.57653   0.00000  Uiso   1.00
C225   C     0.19761   0.50001   0.53940   0.00000  Uiso   1.00
O226   O     0.71707   0.50001   0.90199   0.00000  Uiso   1.00
O227   O     0.21637   0.50001   0.40165   0.00000  Uiso   1.00
O228   O     0.28401   0.50001   0.09935   0.00000  Uiso   1.00
O229   O     0.78422   0.50001   0.59915   0.00000  Uiso   1.00
O230   O     0.28293   0.50001   0.90199   0.00000  Uiso   1.00
O231   O     0.78363   0.50001   0.40165   0.00000  Uiso   1.00
O232   O     0.71599   0.50001   0.09935   0.00000  Uiso   1.00
O233   O     0.21578   0.50001   0.59915   0.00000  Uiso   1.00
B234   B     0.70640   0.50001   0.86704   0.00000  Uiso   1.00
B235   B     0.20570   0.50001   0.36671   0.00000  Uiso   1.00
B236   B     0.29496   0.50001   0.13409   0.00000  Uiso   1.00
B237   B     0.79509   0.50001   0.63395   0.00000  Uiso   1.00
B238   B     0.29360   0.50001   0.86704   0.00000  Uiso   1.00
B239   B     0.79430   0.50001   0.36671   0.00000  Uiso   1.00
B240   B     0.70504   0.50001   0.13409   0.00000  Uiso   1.00
B241   B     0.20491   0.50001   0.63395   0.00000  Uiso   1.00
O242   O     0.68096   0.50001   0.87014   0.00000  Uiso   1.00
O243   O     0.18024   0.50001   0.36997   0.00000  Uiso   1.00
O244   O     0.32039   0.50001   0.13053   0.00000  Uiso   1.00
O245   O     0.82053   0.50001   0.63036   0.00000  Uiso   1.00
O246   O     0.31904   0.50001   0.87014   0.00000  Uiso   1.00
O247   O     0.81976   0.50001   0.36997   0.00000  Uiso   1.00
O248   O     0.67961   0.50001   0.13053   0.00000  Uiso   1.00
O249   O     0.17947   0.50001   0.63036   0.00000  Uiso   1.00
loop_
_geom_bond_atom_site_label_1
_geom_bond_atom_site_label_2
_geom_bond_distance
_geom_bond_site_symmetry_2
_ccdc_geom_bond_type
C1     C7      1.441   1_556 S
C1     C9      1.430   .     D
C1     C178    1.430   .     S
C2     C8      1.441   .     S
C2     C10     1.431   .     D
C2     C184    1.430   .     S
C3     C5      1.441   1_554 S
C3     C11     1.432   .     D
C3     C190    1.430   .     S
C4     C6      1.441   .     S
C4     C12     1.431   .     D
C4     C196    1.430   .     S
C5     C3      1.441   1_556 S
C5     C13     1.430   .     D
C5     C202    1.430   .     S
C6     C14     1.431   .     D
C6     C208    1.430   .     S
C7     C1      1.441   1_554 S
C7     C15     1.432   .     D
C7     C214    1.430   .     S
C8     C16     1.431   .     D
C8     C220    1.430   .     S
C9     C17     1.391   .     S
C9     H31     1.014   .     S
C10    C18     1.392   .     S
C10    H32     1.014   .     S
C11    C19     1.393   .     S
C11    H29     1.013   .     S
C12    C20     1.392   .     S
C12    H30     1.014   .     S
C13    C21     1.391   .     S
C13    H27     1.014   .     S
C14    C22     1.392   .     S
C14    H28     1.014   .     S
C15    C23     1.393   .     S
C15    H25     1.013   .     S
C16    C24     1.392   .     S
C16    H26     1.014   .     S
C17    C23     1.381   1_556 D
C17    O166    1.341   .     S
C18    C24     1.383   .     D
C18    O167    1.347   .     S
C19    C21     1.381   1_554 D
C19    O168    1.347   .     S
C20    C22     1.383   .     D
C20    O169    1.347   .     S
C21    C19     1.381   1_556 D
C21    O170    1.341   .     S
C22    O171    1.347   .     S
C23    C17     1.381   1_554 D
C23    O172    1.347   .     S
C24    O173    1.347   .     S
H33    C216    1.014   .     S
H34    C222    1.014   .     S
H35    C204    1.015   .     S
H36    C210    1.014   .     S
H37    C192    1.014   .     S
H38    C198    1.014   .     S
H39    C180    1.015   .     S
H40    C186    1.014   .     S
H41    C219    1.013   .     S
H42    C225    1.014   .     S
H43    C207    1.013   .     S
H44    C213    1.014   .     S
H45    C195    1.013   .     S
H46    C201    1.014   .     S
H47    C183    1.013   .     S
H48    C189    1.014   .     S
C49    C53     1.412   .     S
C49    C59     1.416   1_556 D
C49    B176    1.491   .     S
C50    C54     1.413   .     D
C50    C60     1.413   .     S
C50    B177    1.490   .     S
C51    C55     1.416   1_556 D
C51    C57     1.412   .     S
C51    B174    1.491   .     S
C52    C56     1.413   .     S
C52    C58     1.413   .     D
C52    B175    1.490   .     S
C53    C57     1.394   .     S
C53    N163    1.340   .     D
C54    C58     1.408   1_655 S
C54    H61     1.026   .     S
C55    C51     1.416   1_554 D
C55    C59     1.412   .     S
C55    H62     1.024   .     S
C56    C60     1.407   1_455 D
C56    H63     1.026   .     S
C57    N164    1.340   .     D
C58    C54     1.408   1_455 S
C58    H64     1.026   .     S
C59    C49     1.416   1_554 D
C59    H65     1.024   .     S
C60    C56     1.407   1_655 D
C60    H66     1.026   .     S
C67    C75     1.412   .     S
C67    C99     1.412   .     D
C67    B239    1.490   .     S
C68    C76     1.412   .     S
C68    C100    1.412   .     D
C68    B238    1.490   .     S
C69    C77     1.412   .     S
C69    C101    1.412   .     D
C69    B241    1.490   .     S
C70    C78     1.412   .     D
C70    C102    1.412   .     S
C70    B240    1.490   .     S
C71    C79     1.412   .     S
C71    C103    1.412   .     D
C71    B235    1.490   .     S
C72    C80     1.412   .     S
C72    C104    1.412   .     D
C72    B234    1.490   .     S
C73    C81     1.412   .     D
C73    C105    1.412   .     S
C73    B237    1.490   .     S
C74    C82     1.412   .     S
C74    C106    1.412   .     D
C74    B236    1.490   .     S
C75    H91     1.026   .     S
C75    C107    1.412   .     D
C76    H92     1.026   .     S
C76    C108    1.411   .     D
C77    H93     1.026   .     S
C77    C109    1.411   .     D
C78    H94     1.026   .     S
C78    C110    1.411   .     S
C79    H95     1.026   .     S
C79    C111    1.412   .     D
C80    H96     1.026   .     S
C80    C112    1.411   .     D
C81    H97     1.026   .     S
C81    C113    1.411   .     S
C82    H98     1.026   .     S
C82    C114    1.411   .     D
C83    C99     1.411   .     S
C83    C123    1.421   .     D
C83    C134    1.411   .     S
C84    C100    1.411   .     S
C84    C124    1.421   .     D
C84    C133    1.411   .     S
C85    C101    1.411   .     S
C85    C125    1.421   .     D
C85    C132    1.411   .     S
C86    C102    1.412   .     D
C86    C126    1.421   .     S
C86    C131    1.411   .     S
C87    C103    1.411   .     S
C87    C127    1.421   .     D
C87    C138    1.411   .     S
C88    C104    1.411   .     S
C88    C128    1.421   .     D
C88    C137    1.411   .     S
C89    C105    1.411   .     D
C89    C129    1.421   .     S
C89    C136    1.411   .     S
C90    C106    1.412   .     S
C90    C130    1.421   .     D
C90    C135    1.411   .     S
C99    H115    1.026   .     S
C100   H116    1.027   .     S
C101   H117    1.026   .     S
C102   H118    1.027   .     S
C103   H119    1.026   .     S
C104   H120    1.027   .     S
C105   H121    1.026   .     S
C106   H122    1.027   .     S
C107   C123    1.421   .     S
C107   C142    1.411   .     S
C108   C124    1.421   .     S
C108   C141    1.411   .     S
C109   C125    1.421   .     S
C109   C140    1.411   .     S
C110   C126    1.421   .     D
C110   C139    1.411   .     S
C111   C127    1.421   .     S
C111   C146    1.411   .     S
C112   C128    1.421   .     S
C112   C145    1.411   .     S
C113   C129    1.421   .     D
C113   C144    1.411   .     S
C114   C130    1.421   .     S
C114   C143    1.411   .     S
C123   C126    1.421   .     S
C124   C125    1.421   .     S
C127   C130    1.421   .     S
C128   C129    1.421   .     S
C131   C142    1.405   .     D
C131   H147    1.024   .     S
C132   C141    1.405   .     D
C132   H148    1.023   .     S
C133   C140    1.405   .     D
C133   H149    1.023   .     S
C134   C139    1.405   .     D
C134   H150    1.024   .     S
C135   C146    1.405   .     D
C135   H151    1.023   .     S
C136   C145    1.405   .     D
C136   H152    1.024   .     S
C137   C144    1.405   .     D
C137   H153    1.024   .     S
C138   C143    1.405   .     D
C138   H154    1.024   .     S
C139   H155    1.024   .     S
C140   H156    1.024   .     S
C141   H157    1.023   .     S
C142   H158    1.024   .     S
C143   H159    1.024   .     S
C144   H160    1.024   .     S
C145   H161    1.024   .     S
C146   H162    1.023   .     S
N163   S165    1.685   .     S
N164   S165    1.685   .     S
O166   B174    1.444   .     S
O167   B175    1.442   .     S
O168   B176    1.447   1_554 S
O169   B177    1.442   .     S
O170   B176    1.444   .     S
O171   B177    1.442   .     S
O172   B174    1.447   1_554 S
O173   B175    1.442   .     S
B174   O172    1.447   1_556 S
B176   O168    1.447   1_556 S
C178   C179    1.440   .     S
C178   C180    1.431   .     D
C179   C183    1.432   .     D
C179   C215    1.430   1_556 S
C180   C181    1.392   .     S
C181   C182    1.383   .     D
C181   O242    1.346   .     S
C182   C183    1.393   .     S
C182   O226    1.349   .     S
C184   C185    1.441   .     S
C184   C186    1.431   .     D
C185   C189    1.431   .     D
C185   C221    1.430   .     S
C186   C187    1.392   .     S
C187   C188    1.383   .     D
C187   O243    1.347   .     S
C188   C189    1.392   .     S
C188   O227    1.347   .     S
C190   C191    1.441   .     S
C190   C192    1.431   .     D
C191   C195    1.431   .     D
C191   C203    1.430   1_554 S
C192   C193    1.393   .     S
C193   C194    1.384   .     D
C193   O244    1.348   .     S
C194   C195    1.392   .     S
C194   O228    1.348   .     S
C196   C197    1.441   .     S
C196   C198    1.431   .     D
C197   C201    1.431   .     D
C197   C209    1.430   .     S
C198   C199    1.392   .     S
C199   C200    1.383   .     D
C199   O245    1.347   .     S
C200   C201    1.392   .     S
C200   O229    1.346   .     S
C202   C203    1.440   .     S
C202   C204    1.431   .     D
C203   C191    1.430   1_556 S
C203   C207    1.432   .     D
C204   C205    1.392   .     S
C205   C206    1.383   .     D
C205   O246    1.346   .     S
C206   C207    1.393   .     S
C206   O230    1.349   .     S
C208   C209    1.441   .     S
C208   C210    1.431   .     D
C209   C213    1.431   .     D
C210   C211    1.392   .     S
C211   C212    1.383   .     D
C211   O247    1.347   .     S
C212   C213    1.392   .     S
C212   O231    1.347   .     S
C214   C215    1.441   .     S
C214   C216    1.431   .     D
C215   C179    1.430   1_554 S
C215   C219    1.431   .     D
C216   C217    1.393   .     S
C217   C218    1.384   .     D
C217   O248    1.348   .     S
C218   C219    1.392   .     S
C218   O232    1.348   .     S
C220   C221    1.441   .     S
C220   C222    1.431   .     D
C221   C225    1.431   .     D
C222   C223    1.392   .     S
C223   C224    1.383   .     D
C223   O249    1.347   .     S
C224   C225    1.392   .     S
C224   O233    1.346   .     S
O226   B234    1.442   .     S
O227   B235    1.442   .     S
O228   B236    1.441   .     S
O229   B237    1.442   .     S
O230   B238    1.442   .     S
O231   B239    1.442   .     S
O232   B240    1.441   .     S
O233   B241    1.442   .     S
B234   O242    1.440   .     S
B235   O243    1.442   .     S
B236   O244    1.441   .     S
B237   O245    1.442   .     S
B238   O246    1.440   .     S
B239   O247    1.442   .     S
B240   O248    1.441   .     S
B241   O249    1.442   .     S
