data_303
_audit_creation_date              2023-09-08
_audit_creation_method            'Materials Studio'
_symmetry_space_group_name_H-M    'P1'
_symmetry_Int_Tables_number       1
_symmetry_cell_setting            triclinic
loop_
_symmetry_equiv_pos_as_xyz
  x,y,z
_cell_length_a                    33.5000
_cell_length_b                    34.0000
_cell_length_c                    6.8000
_cell_angle_alpha                 90.0000
_cell_angle_beta                  90.0000
_cell_angle_gamma                 66.0000
loop_
_atom_site_label
_atom_site_type_symbol
_atom_site_fract_x
_atom_site_fract_y
_atom_site_fract_z
_atom_site_U_iso_or_equiv
_atom_site_adp_type
_atom_site_occupancy
C1     C     0.05718   0.79477   0.99615   0.00000  Uiso   1.00
C2     C     0.05950   0.83575   0.99627   0.00000  Uiso   1.00
C3     C     0.10173   0.83866   0.99596   0.00000  Uiso   1.00
C4     C     0.14041   0.80062   0.99256   0.00000  Uiso   1.00
C5     C     0.02058   0.87409   0.99745   0.00000  Uiso   1.00
C6     C     0.10404   0.87991   0.99950   0.00000  Uiso   1.00
C7     C     0.06433   0.91903   0.00033   0.00000  Uiso   1.00
C8     C     0.02300   0.91622   0.99829   0.00000  Uiso   1.00
C9     C     0.06697   0.95984   0.00216   0.00000  Uiso   1.00
C10    C     0.14495   0.88303   0.00150   0.00000  Uiso   1.00
C11    C     0.18181   0.84534   0.99874   0.00000  Uiso   1.00
C12    C     0.17963   0.80491   0.99369   0.00000  Uiso   1.00
C13    C     0.01664   0.79335   0.99706   0.00000  Uiso   1.00
C14    C     0.97856   0.83087   0.99801   0.00000  Uiso   1.00
C15    C     0.97950   0.87132   0.99832   0.00000  Uiso   1.00
C16    C     0.98436   0.95429   0.99737   0.00000  Uiso   1.00
C17    C     0.02872   0.99611   0.00160   0.00000  Uiso   1.00
C18    C     0.98821   0.99343   0.99904   0.00000  Uiso   1.00
H19    H     0.14832   0.91384   0.00510   0.00000  Uiso   1.00
H20    H     0.09780   0.96362   0.00374   0.00000  Uiso   1.00
H21    H     0.95201   0.95383   0.99505   0.00000  Uiso   1.00
H22    H     0.14032   0.76836   0.98888   0.00000  Uiso   1.00
H23    H     0.08604   0.76461   0.99580   0.00000  Uiso   1.00
H24    H     0.94893   0.89974   0.99972   0.00000  Uiso   1.00
O25    O     0.22492   0.83979   0.99949   0.00000  Uiso   1.00
O26    O     0.22139   0.77333   0.99061   0.00000  Uiso   1.00
O27    O     0.00575   0.75795   0.99783   0.00000  Uiso   1.00
O28    O     0.94319   0.81957   0.99926   0.00000  Uiso   1.00
O29    O     0.95601   0.03472   0.99850   0.00000  Uiso   1.00
O30    O     0.02262   0.03905   0.00271   0.00000  Uiso   1.00
B31    B     0.24847   0.79549   0.99428   0.00000  Uiso   1.00
B32    B     0.96067   0.77481   0.99928   0.00000  Uiso   1.00
B33    B     0.97791   0.06198   0.00077   0.00000  Uiso   1.00
C34    C     0.95657   0.10989   0.00088   0.00000  Uiso   1.00
C35    C     0.91160   0.13117   0.99958   0.00000  Uiso   1.00
C36    C     0.89194   0.17631   0.99936   0.00000  Uiso   1.00
C37    C     0.91904   0.19993   0.00054   0.00000  Uiso   1.00
C38    C     0.96523   0.17783   0.00196   0.00000  Uiso   1.00
C39    C     0.98303   0.13269   0.00209   0.00000  Uiso   1.00
C40    C     0.84566   0.19946   0.99790   0.00000  Uiso   1.00
C41    C     0.89987   0.24579   0.00031   0.00000  Uiso   1.00
C42    C     0.85369   0.26792   0.99884   0.00000  Uiso   1.00
C43    C     0.82731   0.24337   0.99761   0.00000  Uiso   1.00
C44    C     0.83586   0.31306   0.99873   0.00000  Uiso   1.00
H45    H     0.80101   0.33322   0.99771   0.00000  Uiso   1.00
C46    C     0.86231   0.33587   0.00011   0.00000  Uiso   1.00
C47    C     0.90725   0.31454   0.00152   0.00000  Uiso   1.00
C48    C     0.92695   0.26941   0.00160   0.00000  Uiso   1.00
C49    C     0.97322   0.24630   0.00297   0.00000  Uiso   1.00
C50    C     0.99161   0.20238   0.00313   0.00000  Uiso   1.00
H51    H     0.02706   0.18522   0.00424   0.00000  Uiso   1.00
H52    H     0.99383   0.26463   0.00392   0.00000  Uiso   1.00
H53    H     0.82499   0.18119   0.99696   0.00000  Uiso   1.00
H54    H     0.89333   0.11061   0.99872   0.00000  Uiso   1.00
H55    H     0.01783   0.11234   0.00309   0.00000  Uiso   1.00
H56    H     0.79186   0.26057   0.99641   0.00000  Uiso   1.00
H57    H     0.92544   0.33517   0.00254   0.00000  Uiso   1.00
C58    C     0.52415   0.67337   0.99697   0.00000  Uiso   1.00
C59    C     0.50405   0.71796   0.01193   0.00000  Uiso   1.00
C60    C     0.45870   0.73907   0.01136   0.00000  Uiso   1.00
C61    C     0.43352   0.71369   0.99357   0.00000  Uiso   1.00
C62    C     0.45438   0.66785   0.97731   0.00000  Uiso   1.00
C63    C     0.49983   0.64851   0.97982   0.00000  Uiso   1.00
C64    C     0.43685   0.78499   0.02878   0.00000  Uiso   1.00
C65    C     0.38739   0.73423   0.99260   0.00000  Uiso   1.00
C66    C     0.36653   0.78004   0.00976   0.00000  Uiso   1.00
C67    C     0.39267   0.80464   0.02819   0.00000  Uiso   1.00
C68    C     0.32106   0.79938   0.00900   0.00000  Uiso   1.00
H69    H     0.30228   0.83415   0.02211   0.00000  Uiso   1.00
C70    C     0.29676   0.77448   0.99285   0.00000  Uiso   1.00
C71    C     0.31688   0.72994   0.97605   0.00000  Uiso   1.00
C72    C     0.36222   0.70884   0.97509   0.00000  Uiso   1.00
C73    C     0.38405   0.66291   0.95767   0.00000  Uiso   1.00
C74    C     0.42823   0.64324   0.95870   0.00000  Uiso   1.00
H75    H     0.44440   0.60808   0.94460   0.00000  Uiso   1.00
H76    H     0.36455   0.64362   0.94265   0.00000  Uiso   1.00
H77    H     0.45633   0.80429   0.04367   0.00000  Uiso   1.00
H78    H     0.52611   0.73450   0.02498   0.00000  Uiso   1.00
H79    H     0.51875   0.61374   0.96784   0.00000  Uiso   1.00
H80    H     0.37649   0.83978   0.04263   0.00000  Uiso   1.00
H81    H     0.29468   0.71354   0.96336   0.00000  Uiso   1.00
C82    C     0.76419   0.65092   0.00430   0.00000  Uiso   1.00
C83    C     0.76160   0.61006   0.00358   0.00000  Uiso   1.00
C84    C     0.71923   0.60753   0.00250   0.00000  Uiso   1.00
C85    C     0.68079   0.64582   0.00485   0.00000  Uiso   1.00
C86    C     0.80032   0.57153   0.00299   0.00000  Uiso   1.00
C87    C     0.71656   0.56646   0.99858   0.00000  Uiso   1.00
C88    C     0.75605   0.52712   0.99898   0.00000  Uiso   1.00
C89    C     0.79755   0.52953   0.00196   0.00000  Uiso   1.00
C90    C     0.75304   0.48645   0.99733   0.00000  Uiso   1.00
C91    C     0.67548   0.56373   0.99496   0.00000  Uiso   1.00
C92    C     0.63885   0.60162   0.99668   0.00000  Uiso   1.00
C93    C     0.64143   0.64187   0.00222   0.00000  Uiso   1.00
C94    C     0.80485   0.65200   0.00431   0.00000  Uiso   1.00
C95    C     0.84277   0.61431   0.00373   0.00000  Uiso   1.00
C96    C     0.84154   0.57399   0.00306   0.00000  Uiso   1.00
C97    C     0.83597   0.49118   0.00360   0.00000  Uiso   1.00
C98    C     0.79105   0.44992   0.99870   0.00000  Uiso   1.00
C99    C     0.83176   0.45219   0.00179   0.00000  Uiso   1.00
H100   H     0.67181   0.53307   0.99075   0.00000  Uiso   1.00
H101   H     0.72204   0.48301   0.99510   0.00000  Uiso   1.00
H102   H     0.86843   0.49136   0.00653   0.00000  Uiso   1.00
H103   H     0.68114   0.67797   0.00895   0.00000  Uiso   1.00
H104   H     0.73549   0.68121   0.00444   0.00000  Uiso   1.00
H105   H     0.87198   0.54541   0.00222   0.00000  Uiso   1.00
O106   O     0.59563   0.60755   0.99404   0.00000  Uiso   1.00
O107   O     0.59979   0.67374   0.00375   0.00000  Uiso   1.00
O108   O     0.81603   0.68725   0.00440   0.00000  Uiso   1.00
O109   O     0.87833   0.62535   0.00355   0.00000  Uiso   1.00
O110   O     0.86364   0.41075   0.00272   0.00000  Uiso   1.00
O111   O     0.79672   0.40713   0.99772   0.00000  Uiso   1.00
B112   B     0.57241   0.65189   0.99851   0.00000  Uiso   1.00
B113   B     0.86113   0.67010   0.00388   0.00000  Uiso   1.00
B114   B     0.84137   0.38381   0.00016   0.00000  Uiso   1.00
C115   C     0.88734   0.69676   0.00335   0.00000  Uiso   1.00
C116   C     0.86579   0.74154   0.00093   0.00000  Uiso   1.00
C117   C     0.88921   0.76732   0.99968   0.00000  Uiso   1.00
C118   C     0.93450   0.74810   0.00087   0.00000  Uiso   1.00
C119   C     0.95606   0.70333   0.00367   0.00000  Uiso   1.00
C120   C     0.93265   0.67755   0.00493   0.00000  Uiso   1.00
H121   H     0.83032   0.75382   0.99993   0.00000  Uiso   1.00
H122   H     0.87424   0.80256   0.99754   0.00000  Uiso   1.00
H123   H     0.99154   0.69104   0.00487   0.00000  Uiso   1.00
H124   H     0.94765   0.64231   0.00725   0.00000  Uiso   1.00
C125   C     0.04057   0.83178   0.49680   0.00000  Uiso   1.00
C126   C     0.04328   0.87258   0.49712   0.00000  Uiso   1.00
C127   C     0.08570   0.87501   0.49745   0.00000  Uiso   1.00
C128   C     0.12410   0.83668   0.49450   0.00000  Uiso   1.00
C129   C     0.00463   0.91118   0.49795   0.00000  Uiso   1.00
C130   C     0.08847   0.91604   0.50116   0.00000  Uiso   1.00
C131   C     0.04903   0.95544   0.50139   0.00000  Uiso   1.00
C132   C     0.00749   0.95313   0.49884   0.00000  Uiso   1.00
C133   C     0.05215   0.99607   0.50315   0.00000  Uiso   1.00
C134   C     0.12957   0.91870   0.50389   0.00000  Uiso   1.00
C135   C     0.16616   0.88078   0.50165   0.00000  Uiso   1.00
C136   C     0.16351   0.84055   0.49636   0.00000  Uiso   1.00
C137   C     0.99986   0.83081   0.49728   0.00000  Uiso   1.00
C138   C     0.96200   0.86857   0.49796   0.00000  Uiso   1.00
C139   C     0.96335   0.90884   0.49836   0.00000  Uiso   1.00
C140   C     0.96913   0.99153   0.49754   0.00000  Uiso   1.00
C141   C     0.01418   0.03264   0.50212   0.00000  Uiso   1.00
C142   C     0.97343   0.03047   0.49929   0.00000  Uiso   1.00
H143   H     0.13331   0.94933   0.50778   0.00000  Uiso   1.00
H144   H     0.08318   0.99943   0.50519   0.00000  Uiso   1.00
H145   H     0.93663   0.99143   0.49490   0.00000  Uiso   1.00
H146   H     0.12368   0.80456   0.49051   0.00000  Uiso   1.00
H147   H     0.06922   0.80144   0.49661   0.00000  Uiso   1.00
H148   H     0.93296   0.93747   0.49934   0.00000  Uiso   1.00
O149   O     0.20939   0.87479   0.50357   0.00000  Uiso   1.00
O150   O     0.20514   0.80865   0.49428   0.00000  Uiso   1.00
O151   O     0.98854   0.79565   0.49758   0.00000  Uiso   1.00
O152   O     0.92636   0.85767   0.49857   0.00000  Uiso   1.00
O153   O     0.94162   0.07194   0.49852   0.00000  Uiso   1.00
O154   O     0.00861   0.07541   0.50312   0.00000  Uiso   1.00
B155   B     0.23256   0.83045   0.49902   0.00000  Uiso   1.00
B156   B     0.94344   0.81292   0.49837   0.00000  Uiso   1.00
B157   B     0.96398   0.09881   0.50087   0.00000  Uiso   1.00
C158   C     0.94310   0.14675   0.50082   0.00000  Uiso   1.00
C159   C     0.89817   0.16808   0.49934   0.00000  Uiso   1.00
C160   C     0.87846   0.21321   0.49916   0.00000  Uiso   1.00
C161   C     0.90555   0.23683   0.50044   0.00000  Uiso   1.00
C162   C     0.95173   0.21469   0.50191   0.00000  Uiso   1.00
C163   C     0.96957   0.16956   0.50211   0.00000  Uiso   1.00
C164   C     0.83220   0.23633   0.49770   0.00000  Uiso   1.00
C165   C     0.88638   0.28269   0.50024   0.00000  Uiso   1.00
C166   C     0.84019   0.30479   0.49885   0.00000  Uiso   1.00
C167   C     0.81381   0.28024   0.49756   0.00000  Uiso   1.00
C168   C     0.82239   0.34993   0.49883   0.00000  Uiso   1.00
H169   H     0.78761   0.37031   0.49787   0.00000  Uiso   1.00
C170   C     0.84885   0.37273   0.50013   0.00000  Uiso   1.00
C171   C     0.89383   0.35145   0.50136   0.00000  Uiso   1.00
C172   C     0.91348   0.30631   0.50145   0.00000  Uiso   1.00
C173   C     0.95976   0.28316   0.50280   0.00000  Uiso   1.00
C174   C     0.97811   0.23925   0.50306   0.00000  Uiso   1.00
H175   H     0.01356   0.22204   0.50417   0.00000  Uiso   1.00
H176   H     0.98043   0.30142   0.50369   0.00000  Uiso   1.00
H177   H     0.81159   0.21799   0.49667   0.00000  Uiso   1.00
H178   H     0.88000   0.14743   0.49836   0.00000  Uiso   1.00
H179   H     0.00442   0.14942   0.50317   0.00000  Uiso   1.00
H180   H     0.77836   0.29740   0.49640   0.00000  Uiso   1.00
H181   H     0.91212   0.37198   0.50226   0.00000  Uiso   1.00
C182   C     0.50822   0.70786   0.50434   0.00000  Uiso   1.00
C183   C     0.48810   0.75240   0.52115   0.00000  Uiso   1.00
C184   C     0.44276   0.77351   0.52210   0.00000  Uiso   1.00
C185   C     0.41758   0.74812   0.50457   0.00000  Uiso   1.00
C186   C     0.43845   0.70231   0.48741   0.00000  Uiso   1.00
C187   C     0.48392   0.68296   0.48817   0.00000  Uiso   1.00
C188   C     0.42092   0.81944   0.53958   0.00000  Uiso   1.00
C189   C     0.37145   0.76866   0.50360   0.00000  Uiso   1.00
C190   C     0.35059   0.81450   0.51987   0.00000  Uiso   1.00
C191   C     0.37674   0.83911   0.53854   0.00000  Uiso   1.00
C192   C     0.30514   0.83383   0.51737   0.00000  Uiso   1.00
H193   H     0.28622   0.86860   0.52940   0.00000  Uiso   1.00
C194   C     0.28082   0.80897   0.50025   0.00000  Uiso   1.00
C195   C     0.30093   0.76438   0.48528   0.00000  Uiso   1.00
C196   C     0.34628   0.74328   0.48583   0.00000  Uiso   1.00
C197   C     0.36813   0.69736   0.46845   0.00000  Uiso   1.00
C198   C     0.41230   0.67771   0.46904   0.00000  Uiso   1.00
H199   H     0.42849   0.64256   0.45465   0.00000  Uiso   1.00
H200   H     0.34864   0.67805   0.45361   0.00000  Uiso   1.00
H201   H     0.44042   0.83873   0.55466   0.00000  Uiso   1.00
H202   H     0.51030   0.76879   0.53389   0.00000  Uiso   1.00
H203   H     0.50269   0.64819   0.47510   0.00000  Uiso   1.00
H204   H     0.36058   0.87426   0.55270   0.00000  Uiso   1.00
H205   H     0.27888   0.74782   0.47228   0.00000  Uiso   1.00
C206   C     0.74757   0.68793   0.50500   0.00000  Uiso   1.00
C207   C     0.74539   0.64689   0.50441   0.00000  Uiso   1.00
C208   C     0.70321   0.64388   0.50386   0.00000  Uiso   1.00
C209   C     0.66449   0.68188   0.50663   0.00000  Uiso   1.00
C210   C     0.78437   0.60862   0.50348   0.00000  Uiso   1.00
C211   C     0.70098   0.60259   0.50009   0.00000  Uiso   1.00
C212   C     0.74076   0.56353   0.49988   0.00000  Uiso   1.00
C213   C     0.78204   0.56644   0.50241   0.00000  Uiso   1.00
C214   C     0.73822   0.52268   0.49815   0.00000  Uiso   1.00
C215   C     0.66011   0.59940   0.49720   0.00000  Uiso   1.00
C216   C     0.62320   0.63705   0.49948   0.00000  Uiso   1.00
C217   C     0.62532   0.67751   0.50476   0.00000  Uiso   1.00
C218   C     0.78806   0.68947   0.50463   0.00000  Uiso   1.00
C219   C     0.82621   0.65201   0.50379   0.00000  Uiso   1.00
C220   C     0.82539   0.61151   0.50316   0.00000  Uiso   1.00
C221   C     0.82073   0.52843   0.50368   0.00000  Uiso   1.00
C222   C     0.77652   0.48646   0.49909   0.00000  Uiso   1.00
C223   C     0.81698   0.48924   0.50195   0.00000  Uiso   1.00
H224   H     0.65680   0.56856   0.49331   0.00000  Uiso   1.00
H225   H     0.70743   0.51883   0.49637   0.00000  Uiso   1.00
H226   H     0.85305   0.52896   0.50630   0.00000  Uiso   1.00
H227   H     0.66451   0.71417   0.51040   0.00000  Uiso   1.00
H228   H     0.71866   0.71804   0.50529   0.00000  Uiso   1.00
H229   H     0.85601   0.58315   0.50190   0.00000  Uiso   1.00
O230   O     0.58010   0.64256   0.49804   0.00000  Uiso   1.00
O231   O     0.58354   0.70905   0.50730   0.00000  Uiso   1.00
O232   O     0.79881   0.72495   0.50426   0.00000  Uiso   1.00
O233   O     0.86149   0.66345   0.50298   0.00000  Uiso   1.00
O234   O     0.84925   0.44798   0.50271   0.00000  Uiso   1.00
O235   O     0.78272   0.44349   0.49805   0.00000  Uiso   1.00
B236   B     0.55650   0.68685   0.50317   0.00000  Uiso   1.00
B237   B     0.84389   0.70821   0.50308   0.00000  Uiso   1.00
B238   B     0.82743   0.42064   0.50027   0.00000  Uiso   1.00
C239   C     0.86994   0.73504   0.50169   0.00000  Uiso   1.00
C240   C     0.84837   0.77982   0.49889   0.00000  Uiso   1.00
C241   C     0.87179   0.80559   0.49761   0.00000  Uiso   1.00
C242   C     0.91711   0.78637   0.49916   0.00000  Uiso   1.00
C243   C     0.93865   0.74160   0.50162   0.00000  Uiso   1.00
C244   C     0.91523   0.71582   0.50290   0.00000  Uiso   1.00
H245   H     0.81289   0.79217   0.49766   0.00000  Uiso   1.00
H246   H     0.85677   0.84084   0.49524   0.00000  Uiso   1.00
H247   H     0.97412   0.72936   0.50257   0.00000  Uiso   1.00
H248   H     0.93015   0.68059   0.50503   0.00000  Uiso   1.00
loop_
_geom_bond_atom_site_label_1
_geom_bond_atom_site_label_2
_geom_bond_distance
_geom_bond_site_symmetry_2
_ccdc_geom_bond_type
C1     C2      1.427   .     S
C1     C13     1.378   .     D
C1     H23     1.086   .     S
C2     C3      1.458   .     D
C2     C5      1.420   .     S
C3     C4      1.410   .     S
C3     C6      1.436   .     S
C4     C12     1.380   .     D
C4     H22     1.098   .     S
C5     C8      1.467   .     D
C5     C15     1.417   1_455 S
C6     C7      1.449   1_556 D
C6     C10     1.417   1_556 S
C7     C6      1.449   1_554 D
C7     C8      1.426   1_554 S
C7     C9      1.426   .     S
C8     C7      1.426   1_556 S
C8     C16     1.410   1_455 S
C9     C17     1.370   .     D
C9     H20     1.091   .     S
C10    C6      1.417   1_554 S
C10    C11     1.371   1_554 D
C10    H19     1.099   .     S
C11    C10     1.371   1_556 D
C11    C12     1.406   .     S
C11    O25     1.378   .     S
C12    O26     1.374   .     S
C13    C14     1.390   1_455 S
C13    O27     1.392   .     S
C14    C13     1.390   1_655 S
C14    C15     1.388   .     D
C14    O28     1.386   .     S
C15    C5      1.417   1_655 S
C15    H24     1.085   .     S
C16    C8      1.410   1_655 S
C16    C18     1.388   .     D
C16    H21     1.090   .     S
C17    C18     1.397   1_454 S
C17    O30     1.389   1_565 S
C18    C17     1.397   1_656 S
C18    O29     1.379   1_565 S
O25    B31     1.388   .     S
O26    B31     1.395   .     S
O27    B32     1.380   1_455 S
O28    B32     1.391   .     S
O29    C18     1.379   1_545 S
O29    B33     1.397   1_556 S
O30    C17     1.389   1_545 S
O30    B33     1.379   1_455 S
B31    C70     1.479   .     S
B32    O27     1.380   1_655 S
B32    C118    1.497   1_556 S
B33    O30     1.379   1_655 S
B33    O29     1.397   1_554 S
B33    C34     1.489   .     S
C34    C35     1.381   1_554 S
C34    C39     1.395   .     D
C35    C34     1.381   1_556 S
C35    C36     1.402   .     D
C35    H54     1.101   .     S
C36    C37     1.436   1_556 S
C36    C40     1.425   .     S
C37    C36     1.436   1_554 S
C37    C38     1.419   .     D
C37    C41     1.424   .     S
C38    C39     1.402   .     S
C38    C50     1.441   .     S
C39    H55     1.087   1_655 S
C40    C43     1.364   .     D
C40    H53     1.102   .     S
C41    C42     1.419   1_554 D
C41    C48     1.435   .     S
C42    C41     1.419   1_556 D
C42    C43     1.441   .     S
C42    C44     1.402   .     S
C43    H56     1.090   .     S
C44    H45     1.087   .     S
C44    C46     1.395   1_556 D
C46    C44     1.395   1_554 D
C46    C47     1.380   .     S
C46    B114    1.490   .     S
C47    C48     1.402   .     D
C47    H57     1.100   .     S
C48    C49     1.425   .     S
C49    C50     1.364   .     D
C49    H52     1.102   .     S
C50    H51     1.090   1_655 S
H51    C50     1.090   1_455 S
H55    C39     1.087   1_455 S
C58    C59     1.390   1_556 S
C58    C63     1.397   .     D
C58    B112    1.479   .     S
C59    C58     1.390   1_554 S
C59    C60     1.391   .     D
C59    H78     1.099   .     S
C60    C61     1.436   1_554 S
C60    C64     1.434   .     S
C61    C60     1.436   1_556 S
C61    C62     1.430   .     D
C61    C65     1.413   .     S
C62    C63     1.392   .     S
C62    C74     1.442   .     S
C63    H79     1.094   .     S
C64    C67     1.354   .     D
C64    H77     1.102   .     S
C65    C66     1.429   1_556 D
C65    C72     1.436   .     S
C66    C65     1.429   1_554 D
C66    C67     1.441   .     S
C66    C68     1.392   .     S
C67    H80     1.097   .     S
C68    H69     1.094   .     S
C68    C70     1.397   1_554 D
C70    C68     1.397   1_556 D
C70    C71     1.389   .     S
C71    C72     1.391   .     D
C71    H81     1.099   .     S
C72    C73     1.435   .     S
C73    C74     1.354   .     D
C73    H76     1.103   .     S
C74    H75     1.098   .     S
C82    C83     1.427   .     S
C82    C94     1.377   .     D
C82    H104    1.086   .     S
C83    C84     1.457   .     D
C83    C86     1.420   .     S
C84    C85     1.411   .     S
C84    C87     1.435   1_554 S
C85    C93     1.379   .     D
C85    H103    1.098   .     S
C86    C89     1.468   .     D
C86    C96     1.417   .     S
C87    C84     1.435   1_556 S
C87    C88     1.449   .     D
C87    C91     1.417   .     S
C88    C89     1.426   1_556 S
C88    C90     1.427   .     S
C89    C88     1.426   1_554 S
C89    C97     1.411   .     S
C90    C98     1.370   .     D
C90    H101    1.091   .     S
C91    C92     1.371   .     D
C91    H100    1.099   .     S
C92    C93     1.406   1_556 S
C92    O106    1.378   .     S
C93    C92     1.406   1_554 S
C93    O107    1.375   .     S
C94    C95     1.390   .     S
C94    O108    1.393   .     S
C95    C96     1.388   .     D
C95    O109    1.387   .     S
C96    H105    1.085   .     S
C97    C99     1.389   .     D
C97    H102    1.090   .     S
C98    C99     1.397   1_556 S
C98    O111    1.389   .     S
C99    C98     1.397   1_554 S
C99    O110    1.379   .     S
O106   B112    1.387   .     S
O107   B112    1.396   1_554 S
O108   B113    1.381   .     S
O109   B113    1.391   .     S
O110   B114    1.397   .     S
O111   B114    1.379   1_556 S
B112   O107    1.396   1_556 S
B113   C115    1.497   .     S
B114   O111    1.379   1_554 S
C115   C116    1.395   .     D
C115   C120    1.387   .     S
C116   C117    1.394   1_554 S
C116   H121    1.088   1_554 S
C117   C116    1.394   1_556 S
C117   C118    1.387   1_556 D
C117   H122    1.095   .     S
C118   B32     1.497   1_554 S
C118   C117    1.387   1_554 D
C118   C119    1.395   .     S
C119   C120    1.394   .     D
C119   H123    1.088   .     S
C120   H124    1.095   .     S
H121   C116    1.088   1_556 S
C125   C126    1.427   .     S
C125   C137    1.378   1_455 D
C125   H147    1.086   .     S
C126   C127    1.457   .     D
C126   C129    1.420   .     S
C127   C128    1.411   .     S
C127   C130    1.435   .     S
C128   C136    1.379   .     D
C128   H146    1.098   .     S
C129   C132    1.468   .     D
C129   C139    1.417   1_455 S
C130   C131    1.449   .     D
C130   C134    1.416   .     S
C131   C132    1.425   .     S
C131   C133    1.427   .     S
C132   C140    1.411   1_455 S
C133   C141    1.370   1_565 D
C133   H144    1.091   .     S
C134   C135    1.371   .     D
C134   H143    1.099   .     S
C135   C136    1.407   .     S
C135   O149    1.378   .     S
C136   O150    1.375   .     S
C137   C125    1.378   1_655 D
C137   C138    1.390   .     S
C137   O151    1.393   .     S
C138   C139    1.388   .     D
C138   O152    1.387   .     S
C139   C129    1.417   1_655 S
C139   H148    1.085   .     S
C140   C132    1.411   1_655 S
C140   C142    1.389   1_565 D
C140   H145    1.090   .     S
C141   C133    1.370   1_545 D
C141   C142    1.397   1_455 S
C141   O154    1.389   .     S
C142   C141    1.397   1_655 S
C142   C140    1.389   1_545 D
C142   O153    1.379   .     S
O149   B155    1.387   .     S
O150   B155    1.396   .     S
O151   B156    1.381   .     S
O152   B156    1.391   .     S
O153   B157    1.397   .     S
O154   B157    1.379   1_455 S
B155   C194    1.479   .     S
B156   C242    1.497   .     S
B157   O154    1.379   1_655 S
B157   C158    1.489   .     S
C158   C159    1.380   .     S
C158   C163    1.395   .     D
C159   C160    1.402   .     D
C159   H178    1.101   .     S
C160   C161    1.436   .     S
C160   C164    1.424   .     S
C161   C162    1.419   .     D
C161   C165    1.424   .     S
C162   C163    1.402   .     S
C162   C174    1.442   .     S
C163   H179    1.087   1_655 S
C164   C167    1.364   .     D
C164   H177    1.103   .     S
C165   C166    1.419   .     S
C165   C172    1.436   .     D
C166   C167    1.441   .     S
C166   C168    1.402   .     D
C167   H180    1.090   .     S
C168   H169    1.087   .     S
C168   C170    1.395   .     S
C170   C171    1.381   .     D
C170   B238    1.489   .     S
C171   C172    1.402   .     S
C171   H181    1.100   .     S
C172   C173    1.425   .     S
C173   C174    1.364   .     D
C173   H176    1.102   .     S
C174   H175    1.090   1_655 S
H175   C174    1.090   1_455 S
H179   C163    1.087   1_455 S
C182   C183    1.389   .     S
C182   C187    1.397   .     D
C182   B236    1.479   .     S
C183   C184    1.391   .     D
C183   H202    1.099   .     S
C184   C185    1.436   .     S
C184   C188    1.435   .     S
C185   C186    1.429   .     S
C185   C189    1.413   .     D
C186   C187    1.392   .     S
C186   C198    1.442   .     D
C187   H203    1.094   .     S
C188   C191    1.354   .     D
C188   H201    1.103   .     S
C189   C190    1.430   .     S
C189   C196    1.436   .     S
C190   C191    1.442   .     S
C190   C192    1.392   .     D
C191   H204    1.097   .     S
C192   H193    1.094   .     S
C192   C194    1.397   .     S
C194   C195    1.390   .     D
C195   C196    1.391   .     S
C195   H205    1.099   .     S
C196   C197    1.434   .     D
C197   C198    1.353   .     S
C197   H200    1.103   .     S
C198   H199    1.098   .     S
C206   C207    1.427   .     S
C206   C218    1.379   .     D
C206   H228    1.086   .     S
C207   C208    1.458   .     D
C207   C210    1.420   .     S
C208   C209    1.410   .     S
C208   C211    1.436   .     S
C209   C217    1.379   .     D
C209   H227    1.098   .     S
C210   C213    1.468   .     D
C210   C220    1.417   .     S
C211   C212    1.449   .     D
C211   C215    1.417   .     S
C212   C213    1.426   .     S
C212   C214    1.426   .     S
C213   C221    1.410   .     S
C214   C222    1.370   .     D
C214   H225    1.091   .     S
C215   C216    1.371   .     D
C215   H224    1.099   .     S
C216   C217    1.406   .     S
C216   O230    1.378   .     S
C217   O231    1.374   .     S
C218   C219    1.390   .     S
C218   O232    1.392   .     S
C219   C220    1.388   .     D
C219   O233    1.386   .     S
C220   H229    1.085   .     S
C221   C223    1.388   .     D
C221   H226    1.090   .     S
C222   C223    1.397   .     S
C222   O235    1.390   .     S
C223   O234    1.379   .     S
O230   B236    1.388   .     S
O231   B236    1.395   .     S
O232   B237    1.380   .     S
O233   B237    1.391   .     S
O234   B238    1.397   .     S
O235   B238    1.379   .     S
B237   C239    1.497   .     S
C239   C240    1.395   .     S
C239   C244    1.387   .     D
C240   C241    1.394   .     D
C240   H245    1.088   .     S
C241   C242    1.387   .     S
C241   H246    1.095   .     S
C242   C243    1.394   .     D
C243   C244    1.394   .     S
C243   H247    1.088   .     S
C244   H248    1.094   .     S
