data_304
_audit_creation_date              2023-09-08
_audit_creation_method            'Materials Studio'
_symmetry_space_group_name_H-M    'P1'
_symmetry_Int_Tables_number       1
_symmetry_cell_setting            triclinic
loop_
_symmetry_equiv_pos_as_xyz
  x,y,z
_cell_length_a                    30.1826
_cell_length_b                    52.2779
_cell_length_c                    3.6834
_cell_angle_alpha                 90.9446
_cell_angle_beta                  111.6256
_cell_angle_gamma                 90.0121
loop_
_atom_site_label
_atom_site_type_symbol
_atom_site_fract_x
_atom_site_fract_y
_atom_site_fract_z
_atom_site_U_iso_or_equiv
_atom_site_adp_type
_atom_site_occupancy
C1     C     0.52374   0.80951   0.47743   0.00000  Uiso   1.00
C2     C     0.54854   0.83327   0.49338   0.00000  Uiso   1.00
C3     C     0.59661   0.83225   0.50917   0.00000  Uiso   1.00
C4     C     0.61861   0.80895   0.49744   0.00000  Uiso   1.00
C5     C     0.59426   0.78617   0.47059   0.00000  Uiso   1.00
C6     C     0.54758   0.78614   0.45950   0.00000  Uiso   1.00
C7     C     0.02308   0.30924   0.47791   0.00000  Uiso   1.00
C8     C     0.04796   0.33301   0.49635   0.00000  Uiso   1.00
C9     C     0.09605   0.33201   0.51326   0.00000  Uiso   1.00
C10    C     0.11802   0.30873   0.50013   0.00000  Uiso   1.00
C11    C     0.09367   0.28593   0.47077   0.00000  Uiso   1.00
C12    C     0.04692   0.28589   0.45860   0.00000  Uiso   1.00
C13    C     0.52247   0.19082   0.46542   0.00000  Uiso   1.00
C14    C     0.54712   0.16708   0.47923   0.00000  Uiso   1.00
C15    C     0.59513   0.16811   0.49391   0.00000  Uiso   1.00
C16    C     0.61731   0.19137   0.48559   0.00000  Uiso   1.00
C17    C     0.59324   0.21414   0.46217   0.00000  Uiso   1.00
C18    C     0.54652   0.21416   0.45080   0.00000  Uiso   1.00
C19    C     0.02362   0.69056   0.46680   0.00000  Uiso   1.00
C20    C     0.04838   0.66683   0.48219   0.00000  Uiso   1.00
C21    C     0.09643   0.66788   0.49792   0.00000  Uiso   1.00
C22    C     0.11856   0.69115   0.48889   0.00000  Uiso   1.00
C23    C     0.09436   0.71390   0.46360   0.00000  Uiso   1.00
C24    C     0.04759   0.71390   0.45115   0.00000  Uiso   1.00
O25    O     0.62159   0.76603   0.45712   0.00000  Uiso   1.00
O26    O     0.12110   0.26583   0.45644   0.00000  Uiso   1.00
O27    O     0.62088   0.23422   0.45241   0.00000  Uiso   1.00
O28    O     0.12193   0.73399   0.45317   0.00000  Uiso   1.00
B29    B     0.66615   0.77723   0.47813   0.00000  Uiso   1.00
B30    B     0.16567   0.27716   0.47987   0.00000  Uiso   1.00
B31    B     0.66529   0.22292   0.47242   0.00000  Uiso   1.00
B32    B     0.16645   0.72274   0.47498   0.00000  Uiso   1.00
O33    O     0.66302   0.80467   0.50452   0.00000  Uiso   1.00
O34    O     0.16248   0.30458   0.50827   0.00000  Uiso   1.00
O35    O     0.66179   0.19553   0.49393   0.00000  Uiso   1.00
O36    O     0.16307   0.69535   0.49804   0.00000  Uiso   1.00
C37    C     0.47631   0.80966   0.47640   0.00000  Uiso   1.00
C38    C     0.45197   0.83354   0.45982   0.00000  Uiso   1.00
C39    C     0.45198   0.78650   0.49418   0.00000  Uiso   1.00
C40    C     0.40527   0.78680   0.48237   0.00000  Uiso   1.00
C41    C     0.38142   0.80967   0.45617   0.00000  Uiso   1.00
C42    C     0.40395   0.83280   0.44546   0.00000  Uiso   1.00
C43    C     0.97562   0.30941   0.47607   0.00000  Uiso   1.00
C44    C     0.95139   0.33331   0.46157   0.00000  Uiso   1.00
C45    C     0.95115   0.28625   0.49126   0.00000  Uiso   1.00
C46    C     0.90445   0.28657   0.47991   0.00000  Uiso   1.00
C47    C     0.88076   0.30948   0.45635   0.00000  Uiso   1.00
C48    C     0.90339   0.33260   0.44758   0.00000  Uiso   1.00
C49    C     0.47501   0.19064   0.46381   0.00000  Uiso   1.00
C50    C     0.45057   0.16672   0.44498   0.00000  Uiso   1.00
C51    C     0.45077   0.21383   0.48355   0.00000  Uiso   1.00
C52    C     0.40404   0.21349   0.47173   0.00000  Uiso   1.00
C53    C     0.38009   0.19055   0.44256   0.00000  Uiso   1.00
C54    C     0.40249   0.16741   0.42912   0.00000  Uiso   1.00
C55    C     0.97614   0.69037   0.46457   0.00000  Uiso   1.00
C56    C     0.95177   0.66643   0.44621   0.00000  Uiso   1.00
C57    C     0.95181   0.71355   0.48353   0.00000  Uiso   1.00
C58    C     0.90507   0.71319   0.47146   0.00000  Uiso   1.00
C59    C     0.88120   0.69022   0.44226   0.00000  Uiso   1.00
C60    C     0.90365   0.66710   0.42930   0.00000  Uiso   1.00
O61    O     0.33687   0.80569   0.44788   0.00000  Uiso   1.00
O62    O     0.83622   0.30554   0.44836   0.00000  Uiso   1.00
O63    O     0.33556   0.19447   0.43484   0.00000  Uiso   1.00
O64    O     0.83668   0.69411   0.43440   0.00000  Uiso   1.00
B65    B     0.33313   0.77832   0.47227   0.00000  Uiso   1.00
B66    B     0.83230   0.27817   0.47013   0.00000  Uiso   1.00
B67    B     0.33196   0.22188   0.46323   0.00000  Uiso   1.00
B68    B     0.83289   0.72150   0.46283   0.00000  Uiso   1.00
O69    O     0.37747   0.76686   0.49418   0.00000  Uiso   1.00
O70    O     0.87653   0.26665   0.49013   0.00000  Uiso   1.00
O71    O     0.37633   0.23343   0.48629   0.00000  Uiso   1.00
O72    O     0.87723   0.73309   0.48580   0.00000  Uiso   1.00
C73    C     0.52486   0.85704   0.48877   0.00000  Uiso   1.00
C74    C     0.47600   0.85716   0.46114   0.00000  Uiso   1.00
C75    C     0.45290   0.88131   0.43854   0.00000  Uiso   1.00
C76    C     0.47711   0.90426   0.45210   0.00000  Uiso   1.00
C77    C     0.52430   0.90414   0.48729   0.00000  Uiso   1.00
C78    C     0.54826   0.88109   0.50639   0.00000  Uiso   1.00
C79    C     0.02436   0.35678   0.49313   0.00000  Uiso   1.00
C80    C     0.02401   0.40387   0.49461   0.00000  Uiso   1.00
C81    C     0.04789   0.38082   0.51291   0.00000  Uiso   1.00
C82    C     0.52343   0.14330   0.47449   0.00000  Uiso   1.00
C83    C     0.47456   0.14310   0.44652   0.00000  Uiso   1.00
C84    C     0.45151   0.11888   0.42511   0.00000  Uiso   1.00
C85    C     0.47580   0.09597   0.44042   0.00000  Uiso   1.00
C86    C     0.52300   0.09622   0.47600   0.00000  Uiso   1.00
C87    C     0.54689   0.11931   0.49356   0.00000  Uiso   1.00
C88    C     0.02476   0.64303   0.47817   0.00000  Uiso   1.00
C89    C     0.02446   0.59593   0.48221   0.00000  Uiso   1.00
C90    C     0.04829   0.61904   0.49879   0.00000  Uiso   1.00
C91    C     0.97548   0.35693   0.46474   0.00000  Uiso   1.00
C92    C     0.95246   0.38110   0.44306   0.00000  Uiso   1.00
C93    C     0.97678   0.40404   0.45831   0.00000  Uiso   1.00
C94    C     0.97587   0.64282   0.44937   0.00000  Uiso   1.00
C95    C     0.95287   0.61860   0.42889   0.00000  Uiso   1.00
C96    C     0.97724   0.59570   0.44594   0.00000  Uiso   1.00
O97    O     0.54090   0.92821   0.49637   0.00000  Uiso   1.00
O98    O     0.04079   0.42789   0.50532   0.00000  Uiso   1.00
O99    O     0.53978   0.07222   0.48760   0.00000  Uiso   1.00
O100   O     0.04125   0.57191   0.49540   0.00000  Uiso   1.00
B101   B     0.50094   0.94436   0.46404   0.00000  Uiso   1.00
B102   B     0.00090   0.44409   0.47267   0.00000  Uiso   1.00
B103   B     0.49995   0.05594   0.45684   0.00000  Uiso   1.00
B104   B     0.00138   0.55566   0.46489   0.00000  Uiso   1.00
O105   O     0.46080   0.92841   0.43644   0.00000  Uiso   1.00
O106   O     0.96060   0.42822   0.44346   0.00000  Uiso   1.00
O107   O     0.45965   0.07175   0.42712   0.00000  Uiso   1.00
O108   O     0.96108   0.57151   0.43370   0.00000  Uiso   1.00
H109   H     0.61708   0.84796   0.52601   0.00000  Uiso   1.00
H110   H     0.53232   0.76856   0.43479   0.00000  Uiso   1.00
H111   H     0.46689   0.76889   0.51902   0.00000  Uiso   1.00
H112   H     0.38387   0.84861   0.42993   0.00000  Uiso   1.00
H113   H     0.41841   0.88327   0.41236   0.00000  Uiso   1.00
H114   H     0.58276   0.88290   0.53179   0.00000  Uiso   1.00
H115   H     0.11660   0.34771   0.53198   0.00000  Uiso   1.00
H116   H     0.03159   0.26831   0.43219   0.00000  Uiso   1.00
H117   H     0.08242   0.38262   0.53942   0.00000  Uiso   1.00
H118   H     0.61547   0.15242   0.50780   0.00000  Uiso   1.00
H119   H     0.53138   0.23169   0.42844   0.00000  Uiso   1.00
H120   H     0.46575   0.23149   0.51001   0.00000  Uiso   1.00
H121   H     0.38229   0.15157   0.41080   0.00000  Uiso   1.00
H122   H     0.41703   0.11685   0.39913   0.00000  Uiso   1.00
H123   H     0.58142   0.11756   0.51983   0.00000  Uiso   1.00
H124   H     0.11682   0.65221   0.51309   0.00000  Uiso   1.00
H125   H     0.03237   0.73142   0.42737   0.00000  Uiso   1.00
H126   H     0.08284   0.61730   0.52551   0.00000  Uiso   1.00
H127   H     0.96596   0.26862   0.51402   0.00000  Uiso   1.00
H128   H     0.88339   0.34842   0.43395   0.00000  Uiso   1.00
H129   H     0.91796   0.38308   0.41629   0.00000  Uiso   1.00
H130   H     0.96677   0.73122   0.50986   0.00000  Uiso   1.00
H131   H     0.88345   0.65125   0.41068   0.00000  Uiso   1.00
H132   H     0.91838   0.61656   0.40250   0.00000  Uiso   1.00
C133   C     0.79025   0.73556   0.46779   0.00000  Uiso   1.00
C134   C     0.28939   0.23599   0.46805   0.00000  Uiso   1.00
C135   C     0.78957   0.26407   0.47148   0.00000  Uiso   1.00
C136   C     0.29049   0.76415   0.47407   0.00000  Uiso   1.00
C137   C     0.74804   0.72261   0.43848   0.00000  Uiso   1.00
C138   C     0.24746   0.22264   0.43671   0.00000  Uiso   1.00
C139   C     0.74781   0.27738   0.44401   0.00000  Uiso   1.00
C140   C     0.24851   0.77735   0.44324   0.00000  Uiso   1.00
C141   C     0.75065   0.77604   0.50375   0.00000  Uiso   1.00
C142   C     0.25010   0.27630   0.50677   0.00000  Uiso   1.00
C143   C     0.74971   0.22380   0.49880   0.00000  Uiso   1.00
C144   C     0.25105   0.72381   0.50535   0.00000  Uiso   1.00
H145   H     0.24595   0.20311   0.41129   0.00000  Uiso   1.00
H146   H     0.74657   0.29689   0.42401   0.00000  Uiso   1.00
H147   H     0.24704   0.79684   0.42059   0.00000  Uiso   1.00
C148   C     0.79104   0.76255   0.50117   0.00000  Uiso   1.00
C149   C     0.29043   0.26292   0.50381   0.00000  Uiso   1.00
C150   C     0.79023   0.23718   0.49959   0.00000  Uiso   1.00
C151   C     0.29147   0.73728   0.50602   0.00000  Uiso   1.00
C152   C     0.70804   0.73595   0.43932   0.00000  Uiso   1.00
C153   C     0.20712   0.23604   0.43967   0.00000  Uiso   1.00
C154   C     0.70729   0.26400   0.44328   0.00000  Uiso   1.00
C155   C     0.20808   0.76388   0.44265   0.00000  Uiso   1.00
H156   H     0.82096   0.77258   0.52221   0.00000  Uiso   1.00
H157   H     0.32045   0.27299   0.52678   0.00000  Uiso   1.00
H158   H     0.82009   0.22712   0.51960   0.00000  Uiso   1.00
H159   H     0.32153   0.72730   0.52903   0.00000  Uiso   1.00
C160   C     0.70849   0.76287   0.47339   0.00000  Uiso   1.00
C161   C     0.20815   0.26297   0.47528   0.00000  Uiso   1.00
C162   C     0.70795   0.23711   0.47136   0.00000  Uiso   1.00
C163   C     0.20905   0.73700   0.47422   0.00000  Uiso   1.00
H164   H     0.17708   0.22599   0.41664   0.00000  Uiso   1.00
H165   H     0.67740   0.27404   0.42304   0.00000  Uiso   1.00
H166   H     0.17799   0.77382   0.41976   0.00000  Uiso   1.00
H167   H     0.75225   0.79554   0.52769   0.00000  Uiso   1.00
H168   H     0.25163   0.29584   0.53203   0.00000  Uiso   1.00
H169   H     0.75097   0.20429   0.51853   0.00000  Uiso   1.00
H170   H     0.25256   0.70432   0.52806   0.00000  Uiso   1.00
C171   C     0.50039   0.02748   0.45652   0.00000  Uiso   1.00
C172   C     0.00158   0.52720   0.46569   0.00000  Uiso   1.00
C173   C     0.50094   0.97282   0.45995   0.00000  Uiso   1.00
C174   C     0.00128   0.47254   0.46938   0.00000  Uiso   1.00
C175   C     0.54156   0.01364   0.48288   0.00000  Uiso   1.00
C176   C     0.04258   0.51315   0.49362   0.00000  Uiso   1.00
C177   C     0.54181   0.98694   0.48442   0.00000  Uiso   1.00
C178   C     0.04243   0.48645   0.49527   0.00000  Uiso   1.00
C179   C     0.45950   0.98652   0.43270   0.00000  Uiso   1.00
C180   C     0.96001   0.48644   0.44097   0.00000  Uiso   1.00
C181   C     0.45922   0.01352   0.43097   0.00000  Uiso   1.00
C182   C     0.96016   0.51343   0.43906   0.00000  Uiso   1.00
N183   N     0.58388   0.02319   0.50942   0.00000  Uiso   1.00
N184   N     0.08507   0.52251   0.52140   0.00000  Uiso   1.00
N185   N     0.58429   0.97765   0.51196   0.00000  Uiso   1.00
N186   N     0.08482   0.47697   0.52399   0.00000  Uiso   1.00
S187   S     0.62471   0.00054   0.53810   0.00000  Uiso   1.00
S188   S     0.12562   0.49968   0.55140   0.00000  Uiso   1.00
N189   N     0.74014   0.69729   0.40632   0.00000  Uiso   1.00
S190   S     0.68486   0.68898   0.37336   0.00000  Uiso   1.00
N191   N     0.67182   0.72005   0.40567   0.00000  Uiso   1.00
H192   H     0.42881   0.02287   0.41376   0.00000  Uiso   1.00
H193   H     0.92986   0.52297   0.42053   0.00000  Uiso   1.00
H194   H     0.42931   0.97694   0.41671   0.00000  Uiso   1.00
H195   H     0.92959   0.47706   0.42393   0.00000  Uiso   1.00
loop_
_geom_bond_atom_site_label_1
_geom_bond_atom_site_label_2
_geom_bond_distance
_geom_bond_site_symmetry_2
_ccdc_geom_bond_type
C1     C2      1.439   .     S
C1     C6      1.431   .     S
C1     C37     1.430   .     D
C2     C3      1.431   .     S
C2     C73     1.431   .     D
C3     C4      1.395   .     D
C3     H109    1.015   .     S
C4     C5      1.382   .     S
C4     O33     1.350   .     S
C5     C6      1.394   .     D
C5     O25     1.349   .     S
C6     H110    1.015   .     S
C7     C8      1.439   .     S
C7     C12     1.431   .     S
C7     C43     1.430   1_455 D
C8     C9      1.431   .     S
C8     C79     1.431   .     D
C9     C10     1.394   .     D
C9     H115    1.015   .     S
C10    C11     1.382   .     S
C10    O34     1.349   .     S
C11    C12     1.395   .     D
C11    O26     1.350   .     S
C12    H116    1.015   .     S
C13    C14     1.439   .     S
C13    C18     1.431   .     S
C13    C49     1.430   .     D
C14    C15     1.431   .     S
C14    C82     1.430   .     D
C15    C16     1.394   .     D
C15    H118    1.015   .     S
C16    C17     1.382   .     S
C16    O35     1.349   .     S
C17    C18     1.395   .     D
C17    O27     1.350   .     S
C18    H119    1.015   .     S
C19    C20     1.440   .     D
C19    C24     1.431   .     S
C19    C55     1.430   1_455 S
C20    C21     1.431   .     S
C20    C88     1.431   .     S
C21    C22     1.395   .     D
C21    H124    1.015   .     S
C22    C23     1.382   .     S
C22    O36     1.349   .     S
C23    C24     1.395   .     D
C23    O28     1.350   .     S
C24    H125    1.015   .     S
O25    B29     1.442   .     S
O26    B30     1.442   .     S
O27    B31     1.442   .     S
O28    B32     1.442   .     S
B29    O33     1.442   .     S
B29    C160    1.488   .     S
B30    O34     1.442   .     S
B30    C161    1.487   .     S
B31    O35     1.442   .     S
B31    C162    1.487   .     S
B32    O36     1.442   .     S
B32    C163    1.487   .     S
C37    C38     1.440   .     S
C37    C39     1.431   .     S
C38    C42     1.431   .     S
C38    C74     1.431   .     D
C39    C40     1.395   .     D
C39    H111    1.015   .     S
C40    C41     1.382   .     S
C40    O69     1.349   .     S
C41    C42     1.395   .     D
C41    O61     1.350   .     S
C42    H112    1.015   .     S
C43    C7      1.430   1_655 D
C43    C44     1.440   .     S
C43    C45     1.431   .     S
C44    C48     1.431   .     S
C44    C91     1.431   .     D
C45    C46     1.395   .     D
C45    H127    1.015   .     S
C46    C47     1.382   .     S
C46    O70     1.349   .     S
C47    C48     1.395   .     D
C47    O62     1.350   .     S
C48    H128    1.015   .     S
C49    C50     1.440   .     S
C49    C51     1.431   .     S
C50    C54     1.431   .     S
C50    C83     1.431   .     D
C51    C52     1.395   .     D
C51    H120    1.015   .     S
C52    C53     1.382   .     S
C52    O71     1.349   .     S
C53    C54     1.395   .     D
C53    O63     1.350   .     S
C54    H121    1.015   .     S
C55    C19     1.430   1_655 S
C55    C56     1.440   .     D
C55    C57     1.431   .     S
C56    C60     1.431   .     S
C56    C94     1.431   .     S
C57    C58     1.395   .     D
C57    H130    1.015   .     S
C58    C59     1.382   .     S
C58    O72     1.350   .     S
C59    C60     1.395   .     D
C59    O64     1.349   .     S
C60    H131    1.015   .     S
O61    B65     1.442   .     S
O62    B66     1.442   .     S
O63    B67     1.442   .     S
O64    B68     1.442   .     S
B65    O69     1.442   .     S
B65    C136    1.487   .     S
B66    O70     1.442   .     S
B66    C135    1.487   .     S
B67    O71     1.442   .     S
B67    C134    1.487   .     S
B68    O72     1.442   .     S
B68    C133    1.488   .     S
C73    C74     1.440   .     S
C73    C78     1.431   .     S
C74    C75     1.431   .     S
C75    C76     1.395   .     D
C75    H113    1.015   .     S
C76    C77     1.382   .     S
C76    O105    1.350   .     S
C77    C78     1.395   .     D
C77    O97     1.349   .     S
C78    H114    1.015   .     S
C79    C81     1.431   .     S
C79    C91     1.440   1_455 S
C80    C81     1.394   .     D
C80    C93     1.382   1_455 S
C80    O98     1.348   .     S
C81    H117    1.015   .     S
C82    C83     1.440   .     S
C82    C87     1.431   .     S
C83    C84     1.432   .     S
C84    C85     1.395   .     D
C84    H122    1.015   .     S
C85    C86     1.382   .     S
C85    O107    1.350   .     S
C86    C87     1.394   .     D
C86    O99     1.349   .     S
C87    H123    1.015   .     S
C88    C90     1.431   .     D
C88    C94     1.440   1_455 S
C89    C90     1.395   .     S
C89    C96     1.382   1_455 D
C89    O100    1.349   .     S
C90    H126    1.015   .     S
C91    C79     1.440   1_655 S
C91    C92     1.431   .     S
C92    C93     1.395   .     D
C92    H129    1.015   .     S
C93    C80     1.382   1_655 S
C93    O106    1.350   .     S
C94    C88     1.440   1_655 S
C94    C95     1.431   .     D
C95    C96     1.395   .     S
C95    H132    1.015   .     S
C96    C89     1.382   1_655 D
C96    O108    1.350   .     S
O97    B101    1.442   .     S
O98    B102    1.442   .     S
O99    B103    1.442   .     S
O100   B104    1.442   .     S
B101   O105    1.442   .     S
B101   C173    1.488   .     S
B102   O106    1.442   1_455 S
B102   C174    1.487   .     S
B103   O107    1.442   .     S
B103   C171    1.488   .     S
B104   O108    1.442   1_455 S
B104   C172    1.488   .     S
O106   B102    1.442   1_655 S
O108   B104    1.442   1_655 S
C133   C137    1.411   .     S
C133   C148    1.413   .     D
C134   C138    1.411   .     D
C134   C149    1.411   .     S
C135   C139    1.411   .     D
C135   C150    1.411   .     S
C136   C140    1.411   .     D
C136   C151    1.411   .     S
C137   C152    1.395   .     S
C137   N189    1.340   .     D
C138   H145    1.023   .     S
C138   C153    1.408   .     S
C139   H146    1.024   .     S
C139   C154    1.408   .     S
C140   H147    1.023   .     S
C140   C155    1.408   .     S
C141   C148    1.411   .     S
C141   C160    1.414   .     D
C141   H167    1.022   .     S
C142   C149    1.408   .     D
C142   C161    1.411   .     S
C142   H168    1.024   .     S
C143   C150    1.408   .     D
C143   C162    1.411   .     S
C143   H169    1.024   .     S
C144   C151    1.408   .     D
C144   C163    1.411   .     S
C144   H170    1.023   .     S
C148   H156    1.022   .     S
C149   H157    1.023   .     S
C150   H158    1.023   .     S
C151   H159    1.024   .     S
C152   C160    1.411   .     S
C152   N191    1.341   .     D
C153   C161    1.411   .     D
C153   H164    1.023   .     S
C154   C162    1.411   .     D
C154   H165    1.023   .     S
C155   C163    1.411   .     D
C155   H166    1.023   .     S
C171   C175    1.411   .     S
C171   C181    1.413   .     D
C172   C176    1.411   .     S
C172   C182    1.413   1_455 D
C173   C177    1.411   .     S
C173   C179    1.414   .     D
C174   C178    1.411   .     S
C174   C180    1.413   1_455 D
C175   C177    1.396   1_545 S
C175   N183    1.340   .     D
C176   C178    1.396   .     S
C176   N184    1.340   .     D
C177   C175    1.396   1_565 S
C177   N185    1.340   .     D
C178   N186    1.340   .     D
C179   C181    1.411   1_565 S
C179   H194    1.022   .     S
C180   C174    1.413   1_655 D
C180   C182    1.411   .     S
C180   H195    1.022   .     S
C181   C179    1.411   1_545 S
C181   H192    1.021   .     S
C182   C172    1.413   1_655 D
C182   H193    1.022   .     S
N183   S187    1.685   .     S
N184   S188    1.685   .     S
N185   S187    1.685   1_565 S
N186   S188    1.685   .     S
S187   N185    1.685   1_545 S
N189   S190    1.684   .     S
S190   N191    1.684   .     S
