data_305
_audit_creation_date              2023-09-08
_audit_creation_method            'Materials Studio'
_symmetry_space_group_name_H-M    'P1'
_symmetry_Int_Tables_number       1
_symmetry_cell_setting            triclinic
loop_
_symmetry_equiv_pos_as_xyz
  x,y,z
_cell_length_a                    33.1000
_cell_length_b                    34.0000
_cell_length_c                    6.8000
_cell_angle_alpha                 90.0000
_cell_angle_beta                  90.0000
_cell_angle_gamma                 53.0000
loop_
_atom_site_label
_atom_site_type_symbol
_atom_site_fract_x
_atom_site_fract_y
_atom_site_fract_z
_atom_site_U_iso_or_equiv
_atom_site_adp_type
_atom_site_occupancy
C1     C     0.09256   0.77818   0.00895   0.00000  Uiso   1.00
C2     C     0.08972   0.82172   0.00550   0.00000  Uiso   1.00
C3     C     0.13590   0.81761   0.00621   0.00000  Uiso   1.00
C4     C     0.18358   0.77013   0.00799   0.00000  Uiso   1.00
C5     C     0.04176   0.86951   0.00014   0.00000  Uiso   1.00
C6     C     0.13304   0.86143   0.00363   0.00000  Uiso   1.00
C7     C     0.08405   0.91021   0.00187   0.00000  Uiso   1.00
C8     C     0.03886   0.91427   0.99940   0.00000  Uiso   1.00
C9     C     0.08153   0.95355   0.00268   0.00000  Uiso   1.00
C10    C     0.17775   0.85773   0.00237   0.00000  Uiso   1.00
C11    C     0.22339   0.81095   0.00387   0.00000  Uiso   1.00
C12    C     0.22628   0.76799   0.00672   0.00000  Uiso   1.00
C13    C     0.04804   0.78365   0.00571   0.00000  Uiso   1.00
C14    C     0.00108   0.83046   0.99892   0.00000  Uiso   1.00
C15    C     0.99681   0.87361   0.99626   0.00000  Uiso   1.00
C16    C     0.99117   0.96172   0.99731   0.00000  Uiso   1.00
C17    C     0.03451   0.99902   0.00067   0.00000  Uiso   1.00
C18    C     0.99021   0.00306   0.99789   0.00000  Uiso   1.00
H19    H     0.17740   0.89018   0.99948   0.00000  Uiso   1.00
H20    H     0.11504   0.95228   0.00536   0.00000  Uiso   1.00
H21    H     0.95558   0.96670   0.99566   0.00000  Uiso   1.00
H22    H     0.18770   0.73557   0.00980   0.00000  Uiso   1.00
H23    H     0.12835   0.74089   0.01423   0.00000  Uiso   1.00
H24    H     0.95934   0.90932   0.99098   0.00000  Uiso   1.00
O25    O     0.27171   0.79753   0.00223   0.00000  Uiso   1.00
O26    O     0.27653   0.72693   0.00691   0.00000  Uiso   1.00
O27    O     0.04065   0.74762   0.00776   0.00000  Uiso   1.00
O28    O     0.96353   0.82452   0.99621   0.00000  Uiso   1.00
O29    O     0.94921   0.05285   0.99673   0.00000  Uiso   1.00
O30    O     0.02202   0.04616   0.00138   0.00000  Uiso   1.00
B31    B     0.30354   0.74596   0.00394   0.00000  Uiso   1.00
B32    B     0.98867   0.77355   0.00177   0.00000  Uiso   1.00
B33    B     0.96964   0.07843   0.99897   0.00000  Uiso   1.00
C34    C     0.93955   0.13352   0.99883   0.00000  Uiso   1.00
C35    C     0.96448   0.15491   0.00330   0.00000  Uiso   1.00
C36    C     0.93700   0.20615   0.00348   0.00000  Uiso   1.00
C37    C     0.88443   0.23598   0.99908   0.00000  Uiso   1.00
C38    C     0.85951   0.21458   0.99437   0.00000  Uiso   1.00
C39    C     0.88696   0.16337   0.99422   0.00000  Uiso   1.00
H40    H     0.00569   0.12883   0.00680   0.00000  Uiso   1.00
H41    H     0.95397   0.22546   0.00719   0.00000  Uiso   1.00
H42    H     0.81830   0.24073   0.99079   0.00000  Uiso   1.00
H43    H     0.87007   0.14398   0.99048   0.00000  Uiso   1.00
C44    C     0.35961   0.71499   0.00239   0.00000  Uiso   1.00
C45    C     0.38761   0.66343   0.00318   0.00000  Uiso   1.00
C46    C     0.43984   0.63386   0.00151   0.00000  Uiso   1.00
C47    C     0.46404   0.65601   0.99904   0.00000  Uiso   1.00
C48    C     0.43605   0.70760   0.99829   0.00000  Uiso   1.00
C49    C     0.38381   0.73717   0.99995   0.00000  Uiso   1.00
H50    H     0.36552   0.64932   0.00512   0.00000  Uiso   1.00
H51    H     0.46433   0.59324   0.00203   0.00000  Uiso   1.00
H52    H     0.45794   0.72192   0.99631   0.00000  Uiso   1.00
H53    H     0.35948   0.77778   0.99944   0.00000  Uiso   1.00
C54    C     0.73119   0.59133   0.99262   0.00000  Uiso   1.00
C55    C     0.73413   0.54778   0.99574   0.00000  Uiso   1.00
C56    C     0.68792   0.55201   0.99532   0.00000  Uiso   1.00
C57    C     0.64040   0.59961   0.99447   0.00000  Uiso   1.00
C58    C     0.78208   0.49999   0.00018   0.00000  Uiso   1.00
C59    C     0.69063   0.50828   0.99696   0.00000  Uiso   1.00
C60    C     0.73963   0.45941   0.99795   0.00000  Uiso   1.00
C61    C     0.78488   0.45529   0.00031   0.00000  Uiso   1.00
C62    C     0.74220   0.41603   0.99669   0.00000  Uiso   1.00
C63    C     0.64573   0.51230   0.99796   0.00000  Uiso   1.00
C64    C     0.60017   0.55921   0.99711   0.00000  Uiso   1.00
C65    C     0.59757   0.60201   0.99537   0.00000  Uiso   1.00
C66    C     0.77571   0.58582   0.99550   0.00000  Uiso   1.00
C67    C     0.82268   0.53907   0.00180   0.00000  Uiso   1.00
C68    C     0.82703   0.49586   0.00384   0.00000  Uiso   1.00
C69    C     0.83255   0.40781   0.00186   0.00000  Uiso   1.00
C70    C     0.78923   0.37049   0.99830   0.00000  Uiso   1.00
C71    C     0.83353   0.36646   0.00096   0.00000  Uiso   1.00
H72    H     0.64591   0.47993   0.99980   0.00000  Uiso   1.00
H73    H     0.70864   0.41736   0.99416   0.00000  Uiso   1.00
H74    H     0.86816   0.40279   0.00340   0.00000  Uiso   1.00
H75    H     0.63644   0.63408   0.99365   0.00000  Uiso   1.00
H76    H     0.69543   0.62863   0.98794   0.00000  Uiso   1.00
H77    H     0.86451   0.46015   0.00860   0.00000  Uiso   1.00
O78    O     0.55170   0.57298   0.99837   0.00000  Uiso   1.00
O79    O     0.54745   0.64326   0.99555   0.00000  Uiso   1.00
O80    O     0.78293   0.62197   0.99390   0.00000  Uiso   1.00
O81    O     0.86016   0.54516   0.00471   0.00000  Uiso   1.00
O82    O     0.87452   0.31671   0.00176   0.00000  Uiso   1.00
O83    O     0.80175   0.32336   0.99729   0.00000  Uiso   1.00
B84    B     0.52014   0.62455   0.99751   0.00000  Uiso   1.00
B85    B     0.83487   0.59616   0.99985   0.00000  Uiso   1.00
B86    B     0.85412   0.29109   0.99944   0.00000  Uiso   1.00
C87    C     0.85952   0.62095   0.00114   0.00000  Uiso   1.00
C88    C     0.91158   0.59425   0.01427   0.00000  Uiso   1.00
C89    C     0.93321   0.61912   0.01540   0.00000  Uiso   1.00
C90    C     0.90092   0.67210   0.00187   0.00000  Uiso   1.00
C91    C     0.84751   0.69917   0.98815   0.00000  Uiso   1.00
C92    C     0.82802   0.67236   0.98882   0.00000  Uiso   1.00
C93    C     0.98669   0.59302   0.03001   0.00000  Uiso   1.00
C94    C     0.92211   0.69807   0.00189   0.00000  Uiso   1.00
C95    C     0.97551   0.67100   0.01634   0.00000  Uiso   1.00
C96    C     0.00699   0.61789   0.03068   0.00000  Uiso   1.00
C97    C     0.99499   0.69780   0.01562   0.00000  Uiso   1.00
H98    H     0.03498   0.68175   0.02603   0.00000  Uiso   1.00
C99    C     0.96362   0.74915   0.00139   0.00000  Uiso   1.00
C100   C     0.91157   0.77586   0.98731   0.00000  Uiso   1.00
C101   C     0.88989   0.75102   0.98729   0.00000  Uiso   1.00
C102   C     0.83642   0.77710   0.97289   0.00000  Uiso   1.00
C103   C     0.81606   0.75228   0.97371   0.00000  Uiso   1.00
H104   H     0.77509   0.77282   0.96230   0.00000  Uiso   1.00
H105   H     0.81185   0.81772   0.96088   0.00000  Uiso   1.00
H106   H     0.01130   0.55238   0.04145   0.00000  Uiso   1.00
H107   H     0.93381   0.55381   0.02433   0.00000  Uiso   1.00
H108   H     0.78799   0.68852   0.97903   0.00000  Uiso   1.00
H109   H     0.04795   0.59740   0.04261   0.00000  Uiso   1.00
H110   H     0.88926   0.81629   0.97597   0.00000  Uiso   1.00
C111   C     0.09926   0.81125   0.50736   0.00000  Uiso   1.00
C112   C     0.09625   0.85484   0.50424   0.00000  Uiso   1.00
C113   C     0.14243   0.85066   0.50467   0.00000  Uiso   1.00
C114   C     0.18999   0.80310   0.50556   0.00000  Uiso   1.00
C115   C     0.04827   0.90260   0.49977   0.00000  Uiso   1.00
C116   C     0.13965   0.89443   0.50300   0.00000  Uiso   1.00
C117   C     0.09062   0.94327   0.50205   0.00000  Uiso   1.00
C118   C     0.04539   0.94734   0.49966   0.00000  Uiso   1.00
C119   C     0.08801   0.98667   0.50337   0.00000  Uiso   1.00
C120   C     0.18450   0.89050   0.50195   0.00000  Uiso   1.00
C121   C     0.23009   0.84362   0.50283   0.00000  Uiso   1.00
C122   C     0.23277   0.80078   0.50464   0.00000  Uiso   1.00
C123   C     0.05478   0.81669   0.50447   0.00000  Uiso   1.00
C124   C     0.00777   0.86341   0.49814   0.00000  Uiso   1.00
C125   C     0.00335   0.90666   0.49608   0.00000  Uiso   1.00
C126   C     0.99770   0.99481   0.49811   0.00000  Uiso   1.00
C127   C     0.04097   0.03218   0.50177   0.00000  Uiso   1.00
C128   C     0.99669   0.03618   0.49904   0.00000  Uiso   1.00
H129   H     0.18426   0.92290   0.50003   0.00000  Uiso   1.00
H130   H     0.12155   0.98537   0.50597   0.00000  Uiso   1.00
H131   H     0.96212   0.99980   0.49653   0.00000  Uiso   1.00
H132   H     0.19401   0.76859   0.50643   0.00000  Uiso   1.00
H133   H     0.13504   0.77397   0.51207   0.00000  Uiso   1.00
H134   H     0.96585   0.94235   0.49130   0.00000  Uiso   1.00
O135   O     0.27852   0.82995   0.50154   0.00000  Uiso   1.00
O136   O     0.28292   0.75957   0.50450   0.00000  Uiso   1.00
O137   O     0.04763   0.78049   0.50608   0.00000  Uiso   1.00
O138   O     0.97034   0.85724   0.49522   0.00000  Uiso   1.00
O139   O     0.95568   0.08593   0.49826   0.00000  Uiso   1.00
O140   O     0.02843   0.07932   0.50282   0.00000  Uiso   1.00
B141   B     0.31015   0.77838   0.50248   0.00000  Uiso   1.00
B142   B     0.99570   0.80623   0.50011   0.00000  Uiso   1.00
B143   B     0.97606   0.11157   0.50064   0.00000  Uiso   1.00
C144   C     0.94577   0.16668   0.50100   0.00000  Uiso   1.00
C145   C     0.97070   0.18808   0.50570   0.00000  Uiso   1.00
C146   C     0.94324   0.23929   0.50585   0.00000  Uiso   1.00
C147   C     0.89066   0.26914   0.50123   0.00000  Uiso   1.00
C148   C     0.86572   0.24775   0.49677   0.00000  Uiso   1.00
C149   C     0.89320   0.19651   0.49660   0.00000  Uiso   1.00
H150   H     0.01191   0.16194   0.50928   0.00000  Uiso   1.00
H151   H     0.96015   0.25867   0.50957   0.00000  Uiso   1.00
H152   H     0.82451   0.27384   0.49326   0.00000  Uiso   1.00
H153   H     0.87624   0.17719   0.49289   0.00000  Uiso   1.00
C154   C     0.36625   0.74700   0.50097   0.00000  Uiso   1.00
C155   C     0.39425   0.69541   0.50173   0.00000  Uiso   1.00
C156   C     0.44648   0.66584   0.50007   0.00000  Uiso   1.00
C157   C     0.47068   0.68802   0.49764   0.00000  Uiso   1.00
C158   C     0.44268   0.73958   0.49685   0.00000  Uiso   1.00
C159   C     0.39045   0.76915   0.49851   0.00000  Uiso   1.00
H160   H     0.37233   0.68112   0.50370   0.00000  Uiso   1.00
H161   H     0.47084   0.62523   0.50058   0.00000  Uiso   1.00
H162   H     0.46473   0.75374   0.49492   0.00000  Uiso   1.00
H163   H     0.36598   0.80977   0.49799   0.00000  Uiso   1.00
C164   C     0.73790   0.62439   0.49104   0.00000  Uiso   1.00
C165   C     0.74066   0.58089   0.49449   0.00000  Uiso   1.00
C166   C     0.69445   0.58506   0.49380   0.00000  Uiso   1.00
C167   C     0.64681   0.63258   0.49208   0.00000  Uiso   1.00
C168   C     0.78859   0.53307   0.49980   0.00000  Uiso   1.00
C169   C     0.69724   0.54128   0.49634   0.00000  Uiso   1.00
C170   C     0.74620   0.49247   0.49811   0.00000  Uiso   1.00
C171   C     0.79142   0.48836   0.50054   0.00000  Uiso   1.00
C172   C     0.74868   0.44915   0.49735   0.00000  Uiso   1.00
C173   C     0.65248   0.54506   0.49756   0.00000  Uiso   1.00
C174   C     0.60688   0.59188   0.49610   0.00000  Uiso   1.00
C175   C     0.60407   0.63479   0.49333   0.00000  Uiso   1.00
C176   C     0.78245   0.61886   0.49426   0.00000  Uiso   1.00
C177   C     0.82937   0.57202   0.50102   0.00000  Uiso   1.00
C178   C     0.83358   0.52890   0.50366   0.00000  Uiso   1.00
C179   C     0.83909   0.44089   0.50261   0.00000  Uiso   1.00
C180   C     0.79569   0.40366   0.49936   0.00000  Uiso   1.00
C181   C     0.84001   0.39959   0.50207   0.00000  Uiso   1.00
H182   H     0.65277   0.51265   0.50038   0.00000  Uiso   1.00
H183   H     0.71515   0.45045   0.49474   0.00000  Uiso   1.00
H184   H     0.87469   0.43588   0.50421   0.00000  Uiso   1.00
H185   H     0.64275   0.66710   0.49032   0.00000  Uiso   1.00
H186   H     0.70213   0.66171   0.48578   0.00000  Uiso   1.00
H187   H     0.87103   0.49318   0.50892   0.00000  Uiso   1.00
O188   O     0.55851   0.60539   0.49773   0.00000  Uiso   1.00
O189   O     0.55385   0.67591   0.49318   0.00000  Uiso   1.00
O190   O     0.78992   0.65483   0.49222   0.00000  Uiso   1.00
O191   O     0.86698   0.57788   0.50373   0.00000  Uiso   1.00
O192   O     0.88099   0.34979   0.50324   0.00000  Uiso   1.00
O193   O     0.80817   0.35652   0.49869   0.00000  Uiso   1.00
B194   B     0.52675   0.65697   0.49609   0.00000  Uiso   1.00
B195   B     0.84190   0.62884   0.49820   0.00000  Uiso   1.00
B196   B     0.86054   0.32423   0.50107   0.00000  Uiso   1.00
C197   C     0.86704   0.65316   0.49860   0.00000  Uiso   1.00
C198   C     0.91909   0.62644   0.51268   0.00000  Uiso   1.00
C199   C     0.94076   0.65129   0.51270   0.00000  Uiso   1.00
C200   C     0.90854   0.70423   0.49810   0.00000  Uiso   1.00
C201   C     0.85514   0.73131   0.48365   0.00000  Uiso   1.00
C202   C     0.83567   0.70450   0.48438   0.00000  Uiso   1.00
C203   C     0.99423   0.62521   0.52711   0.00000  Uiso   1.00
C204   C     0.92973   0.73021   0.49812   0.00000  Uiso   1.00
C205   C     0.98314   0.70314   0.51185   0.00000  Uiso   1.00
C206   C     0.01459   0.65004   0.52629   0.00000  Uiso   1.00
C207   C     0.00263   0.72995   0.51118   0.00000  Uiso   1.00
H208   H     0.04267   0.71374   0.52099   0.00000  Uiso   1.00
C209   C     0.97113   0.78137   0.49885   0.00000  Uiso   1.00
C210   C     0.91907   0.80806   0.48571   0.00000  Uiso   1.00
C211   C     0.89743   0.78319   0.48459   0.00000  Uiso   1.00
C212   C     0.84395   0.80929   0.46997   0.00000  Uiso   1.00
C213   C     0.82365   0.78442   0.46931   0.00000  Uiso   1.00
H214   H     0.78270   0.80491   0.45738   0.00000  Uiso   1.00
H215   H     0.81935   0.84993   0.45853   0.00000  Uiso   1.00
H216   H     0.01880   0.58459   0.53912   0.00000  Uiso   1.00
H217   H     0.94141   0.58601   0.52402   0.00000  Uiso   1.00
H218   H     0.79569   0.72049   0.47399   0.00000  Uiso   1.00
H219   H     0.05556   0.62949   0.53771   0.00000  Uiso   1.00
H220   H     0.89684   0.84849   0.47565   0.00000  Uiso   1.00
loop_
_geom_bond_atom_site_label_1
_geom_bond_atom_site_label_2
_geom_bond_distance
_geom_bond_site_symmetry_2
_ccdc_geom_bond_type
C1     C2      1.426   .     S
C1     C13     1.370   .     D
C1     H23     1.097   .     S
C2     C3      1.449   .     D
C2     C5      1.434   .     S
C3     C4      1.425   .     S
C3     C6      1.435   .     S
C4     C12     1.371   .     D
C4     H22     1.098   .     S
C5     C8      1.466   1_554 D
C5     C15     1.409   1_454 S
C6     C7      1.464   .     D
C6     C10     1.408   .     S
C7     C8      1.417   1_554 S
C7     C9      1.425   .     S
C8     C5      1.466   1_556 D
C8     C7      1.417   1_556 S
C8     C16     1.425   1_455 S
C9     C17     1.384   .     D
C9     H20     1.084   .     S
C10    C11     1.386   .     D
C10    H19     1.097   1_554 S
C11    C12     1.405   .     S
C11    O25     1.374   .     S
C12    O26     1.386   .     S
C13    C14     1.405   1_554 S
C13    O27     1.386   .     S
C14    C13     1.405   1_556 S
C14    C15     1.387   1_455 D
C14    O28     1.374   1_455 S
C15    C14     1.387   1_655 D
C15    C5      1.409   1_656 S
C15    H24     1.096   .     S
C16    C8      1.425   1_655 S
C16    C18     1.387   1_565 D
C16    H21     1.085   .     S
C17    C18     1.388   1_464 S
C17    O30     1.394   1_565 S
C18    C17     1.388   1_646 S
C18    C16     1.387   1_545 D
C18    O29     1.394   .     S
H19    C10     1.097   1_556 S
O25    B31     1.400   .     S
O26    B31     1.384   .     S
O27    B32     1.383   1_455 S
O28    C14     1.374   1_655 S
O28    B32     1.400   1_556 S
O29    B33     1.386   .     S
O30    C17     1.394   1_545 S
O30    B33     1.386   1_454 S
B31    C44     1.484   .     S
B32    O27     1.383   1_655 S
B32    O28     1.400   1_554 S
B32    C99     1.484   .     S
B33    O30     1.386   1_656 S
B33    C34     1.502   .     S
C34    C35     1.390   1_556 D
C34    C39     1.391   .     S
C35    C34     1.390   1_554 D
C35    C36     1.398   .     S
C35    H40     1.092   1_655 S
C36    C37     1.390   1_554 D
C36    H41     1.091   .     S
C37    C36     1.390   1_556 D
C37    C38     1.390   .     S
C37    B86     1.502   .     S
C38    C39     1.397   .     D
C38    H42     1.092   .     S
C39    H43     1.092   .     S
H40    C35     1.092   1_455 S
C44    C45     1.406   .     D
C44    C49     1.392   1_554 S
C45    C46     1.381   .     S
C45    H50     1.090   .     S
C46    C47     1.391   1_554 D
C46    H51     1.103   .     S
C47    C46     1.391   1_556 D
C47    C48     1.407   .     S
C47    B84     1.484   .     S
C48    C49     1.381   .     D
C48    H52     1.089   .     S
C49    C44     1.392   1_556 S
C49    H53     1.103   .     S
C54    C55     1.424   .     S
C54    C66     1.369   .     D
C54    H76     1.097   .     S
C55    C56     1.448   .     D
C55    C58     1.434   1_556 S
C56    C57     1.425   .     S
C56    C59     1.435   .     S
C57    C65     1.370   .     D
C57    H75     1.098   .     S
C58    C55     1.434   1_554 S
C58    C61     1.466   .     D
C58    C68     1.408   .     S
C59    C60     1.466   .     D
C59    C63     1.408   .     S
C60    C61     1.418   1_556 S
C60    C62     1.425   .     S
C61    C60     1.418   1_554 S
C61    C69     1.425   .     S
C62    C70     1.386   .     D
C62    H73     1.084   .     S
C63    C64     1.387   .     D
C63    H72     1.097   .     S
C64    C65     1.405   .     S
C64    O78     1.374   .     S
C65    O79     1.385   .     S
C66    C67     1.404   1_556 S
C66    O80     1.386   .     S
C67    C66     1.404   1_554 S
C67    C68     1.387   .     D
C67    O81     1.375   .     S
C68    H77     1.096   .     S
C69    C71     1.387   .     D
C69    H74     1.085   .     S
C70    C71     1.388   1_556 S
C70    O83     1.393   .     S
C71    C70     1.388   1_554 S
C71    O82     1.393   .     S
O78    B84     1.400   .     S
O79    B84     1.384   .     S
O80    B85     1.383   .     S
O81    B85     1.401   1_554 S
O82    B86     1.387   1_554 S
O83    B86     1.386   .     S
B85    O81     1.401   1_556 S
B85    C87     1.485   1_556 S
B86    O82     1.387   1_556 S
C87    B85     1.485   1_554 S
C87    C88     1.385   .     S
C87    C92     1.399   1_554 D
C88    C89     1.399   .     D
C88    H107    1.104   .     S
C89    C90     1.442   .     S
C89    C93     1.428   .     S
C90    C91     1.422   1_554 D
C90    C94     1.420   .     S
C91    C90     1.422   1_556 D
C91    C92     1.398   .     S
C91    C103    1.446   .     S
C92    C87     1.399   1_556 D
C92    H108    1.089   .     S
C93    C96     1.360   1_655 D
C93    H106    1.106   1_655 S
C94    C95     1.422   .     D
C94    C101    1.441   1_554 S
C95    C96     1.446   1_655 S
C95    C97     1.398   .     S
C96    C93     1.360   1_455 D
C96    C95     1.446   1_455 S
C96    H109    1.092   .     S
C97    H98     1.089   1_655 S
C97    C99     1.398   .     D
H98    C97     1.089   1_455 S
C99    C100    1.385   1_554 S
C100   C99     1.385   1_556 S
C100   C101    1.399   .     D
C100   H110    1.104   .     S
C101   C94     1.441   1_556 S
C101   C102    1.428   .     S
C102   C103    1.360   .     D
C102   H105    1.106   .     S
C103   H104    1.092   .     S
H106   C93     1.106   1_455 S
C111   C112    1.424   .     S
C111   C123    1.369   .     D
C111   H133    1.097   .     S
C112   C113    1.447   .     D
C112   C115    1.434   .     S
C113   C114    1.424   .     S
C113   C116    1.435   .     S
C114   C122    1.370   .     D
C114   H132    1.098   .     S
C115   C118    1.466   .     D
C115   C125    1.408   .     S
C116   C117    1.465   .     D
C116   C120    1.408   .     S
C117   C118    1.418   .     S
C117   C119    1.425   .     S
C118   C126    1.425   1_455 S
C119   C127    1.385   1_565 D
C119   H130    1.084   .     S
C120   C121    1.387   .     D
C120   H129    1.097   .     S
C121   C122    1.405   .     S
C121   O135    1.374   .     S
C122   O136    1.385   .     S
C123   C124    1.404   .     S
C123   O137    1.386   .     S
C124   C125    1.387   .     D
C124   O138    1.376   1_455 S
C125   H134    1.096   1_455 S
C126   C118    1.425   1_655 S
C126   C128    1.387   1_565 D
C126   H131    1.084   .     S
C127   C119    1.385   1_545 D
C127   C128    1.388   1_455 S
C127   O140    1.393   .     S
C128   C126    1.387   1_545 D
C128   C127    1.388   1_655 S
C128   O139    1.393   .     S
H134   C125    1.096   1_655 S
O135   B141    1.400   .     S
O136   B141    1.384   .     S
O137   B142    1.383   1_455 S
O138   C124    1.376   1_655 S
O138   B142    1.400   .     S
O139   B143    1.387   .     S
O140   B143    1.385   1_455 S
B141   C154    1.484   .     S
B142   O137    1.383   1_655 S
B142   C209    1.484   .     S
B143   O140    1.385   1_655 S
B143   C144    1.502   .     S
C144   C145    1.391   .     S
C144   C149    1.390   .     D
C145   C146    1.397   .     D
C145   H150    1.092   1_655 S
C146   C147    1.391   .     S
C146   H151    1.092   .     S
C147   C148    1.391   .     D
C147   B196    1.502   .     S
C148   C149    1.398   .     S
C148   H152    1.092   .     S
C149   H153    1.091   .     S
H150   C145    1.092   1_455 S
C154   C155    1.407   .     D
C154   C159    1.391   .     S
C155   C156    1.381   .     S
C155   H160    1.089   .     S
C156   C157    1.392   .     D
C156   H161    1.103   .     S
C157   C158    1.406   .     S
C157   B194    1.484   .     S
C158   C159    1.381   .     D
C158   H162    1.090   .     S
C159   H163    1.103   .     S
C164   C165    1.426   .     S
C164   C176    1.370   .     D
C164   H186    1.098   .     S
C165   C166    1.449   .     D
C165   C168    1.434   .     S
C166   C167    1.425   .     S
C166   C169    1.435   .     S
C167   C175    1.371   .     D
C167   H185    1.098   .     S
C168   C171    1.466   .     D
C168   C178    1.409   .     S
C169   C170    1.464   .     D
C169   C173    1.408   .     S
C170   C171    1.417   .     S
C170   C172    1.425   .     S
C171   C179    1.425   .     S
C172   C180    1.385   .     D
C172   H183    1.084   .     S
C173   C174    1.386   .     D
C173   H182    1.096   .     S
C174   C175    1.405   .     S
C174   O188    1.375   .     S
C175   O189    1.386   .     S
C176   C177    1.405   .     S
C176   O190    1.386   .     S
C177   C178    1.387   .     D
C177   O191    1.374   .     S
C178   H187    1.096   .     S
C179   C181    1.386   .     D
C179   H184    1.084   .     S
C180   C181    1.388   .     S
C180   O193    1.394   .     S
C181   O192    1.394   .     S
O188   B194    1.401   .     S
O189   B194    1.384   .     S
O190   B195    1.383   .     S
O191   B195    1.400   .     S
O192   B196    1.386   .     S
O193   B196    1.386   .     S
B195   C197    1.485   .     S
C197   C198    1.385   .     S
C197   C202    1.397   .     D
C198   C199    1.399   .     D
C198   H217    1.104   .     S
C199   C200    1.441   .     S
C199   C203    1.428   .     S
C200   C201    1.422   .     D
C200   C204    1.421   .     S
C201   C202    1.398   .     S
C201   C213    1.446   .     S
C202   H218    1.089   .     S
C203   C206    1.361   1_655 D
C203   H216    1.106   1_655 S
C204   C205    1.422   .     D
C204   C211    1.442   .     S
C205   C206    1.446   1_655 S
C205   C207    1.398   1_655 S
C206   C203    1.361   1_455 D
C206   C205    1.446   1_455 S
C206   H219    1.092   .     S
C207   C205    1.398   1_455 S
C207   H208    1.089   .     S
C207   C209    1.399   1_455 D
C209   C207    1.399   1_655 D
C209   C210    1.385   .     S
C210   C211    1.399   .     D
C210   H220    1.104   .     S
C211   C212    1.428   .     S
C212   C213    1.360   .     D
C212   H215    1.106   .     S
C213   H214    1.092   .     S
H216   C203    1.106   1_455 S
