data_306
_audit_creation_date              2023-09-08
_audit_creation_method            'Materials Studio'
_symmetry_space_group_name_H-M    'P1'
_symmetry_Int_Tables_number       1
_symmetry_cell_setting            triclinic
loop_
_symmetry_equiv_pos_as_xyz
  x,y,z
_cell_length_a                    33.5000
_cell_length_b                    34.1000
_cell_length_c                    6.8000
_cell_angle_alpha                 90.0000
_cell_angle_beta                  90.0000
_cell_angle_gamma                 67.0000
loop_
_atom_site_label
_atom_site_type_symbol
_atom_site_fract_x
_atom_site_fract_y
_atom_site_fract_z
_atom_site_U_iso_or_equiv
_atom_site_adp_type
_atom_site_occupancy
C1     C     0.02965   0.80655   0.99910   0.00000  Uiso   1.00
C2     C     0.03186   0.84738   0.99893   0.00000  Uiso   1.00
C3     C     0.07417   0.85055   0.99955   0.00000  Uiso   1.00
C4     C     0.11277   0.81279   0.99758   0.00000  Uiso   1.00
C5     C     0.99284   0.88522   0.99861   0.00000  Uiso   1.00
C6     C     0.07674   0.89149   0.00239   0.00000  Uiso   1.00
C7     C     0.03685   0.93015   0.00239   0.00000  Uiso   1.00
C8     C     0.99539   0.92709   0.99925   0.00000  Uiso   1.00
C9     C     0.03937   0.97084   0.00459   0.00000  Uiso   1.00
C10    C     0.11795   0.89453   0.00437   0.00000  Uiso   1.00
C11    C     0.15485   0.85708   0.00287   0.00000  Uiso   1.00
C12    C     0.15224   0.81698   0.99924   0.00000  Uiso   1.00
C13    C     0.98907   0.80475   0.99872   0.00000  Uiso   1.00
C14    C     0.95079   0.84181   0.99830   0.00000  Uiso   1.00
C15    C     0.95168   0.88209   0.99830   0.00000  Uiso   1.00
C16    C     0.95659   0.96469   0.99714   0.00000  Uiso   1.00
C17    C     0.00094   0.00668   0.00294   0.00000  Uiso   1.00
C18    C     0.96032   0.00372   0.99896   0.00000  Uiso   1.00
H19    H     0.12146   0.92516   0.00689   0.00000  Uiso   1.00
H20    H     0.07027   0.97483   0.00746   0.00000  Uiso   1.00
H21    H     0.92421   0.96389   0.99379   0.00000  Uiso   1.00
H22    H     0.11245   0.78080   0.99454   0.00000  Uiso   1.00
H23    H     0.05863   0.77677   0.99987   0.00000  Uiso   1.00
H24    H     0.92095   0.91012   0.99840   0.00000  Uiso   1.00
O25    O     0.19826   0.85129   0.00395   0.00000  Uiso   1.00
O26    O     0.19381   0.78536   0.99785   0.00000  Uiso   1.00
O27    O     0.97843   0.76936   0.99912   0.00000  Uiso   1.00
O28    O     0.91537   0.83028   0.99841   0.00000  Uiso   1.00
O29    O     0.92791   0.04452   0.99749   0.00000  Uiso   1.00
O30    O     0.99485   0.04928   0.00410   0.00000  Uiso   1.00
B31    B     0.22136   0.80718   0.00083   0.00000  Uiso   1.00
B32    B     0.93316   0.78577   0.99896   0.00000  Uiso   1.00
B33    B     0.94993   0.07180   0.00067   0.00000  Uiso   1.00
C34    C     0.92911   0.11944   0.00040   0.00000  Uiso   1.00
C35    C     0.88387   0.14160   0.99853   0.00000  Uiso   1.00
C36    C     0.86493   0.18644   0.99836   0.00000  Uiso   1.00
C37    C     0.89256   0.20955   0.00012   0.00000  Uiso   1.00
C38    C     0.93869   0.18708   0.00197   0.00000  Uiso   1.00
C39    C     0.95600   0.14228   0.00206   0.00000  Uiso   1.00
C40    C     0.81860   0.20996   0.99648   0.00000  Uiso   1.00
C41    C     0.87414   0.25504   0.00003   0.00000  Uiso   1.00
C42    C     0.82803   0.27752   0.99811   0.00000  Uiso   1.00
C43    C     0.80094   0.25355   0.99635   0.00000  Uiso   1.00
C44    C     0.81073   0.32232   0.99800   0.00000  Uiso   1.00
H45    H     0.77544   0.34086   0.99653   0.00000  Uiso   1.00
C46    C     0.83763   0.34514   0.99980   0.00000  Uiso   1.00
C47    C     0.88283   0.32297   0.00176   0.00000  Uiso   1.00
C48    C     0.90177   0.27813   0.00187   0.00000  Uiso   1.00
C49    C     0.94809   0.25465   0.00372   0.00000  Uiso   1.00
C50    C     0.96578   0.21106   0.00372   0.00000  Uiso   1.00
H51    H     0.00129   0.19371   0.00516   0.00000  Uiso   1.00
H52    H     0.96938   0.27239   0.00515   0.00000  Uiso   1.00
H53    H     0.79726   0.19228   0.99508   0.00000  Uiso   1.00
H54    H     0.86345   0.12298   0.99724   0.00000  Uiso   1.00
H55    H     0.99128   0.12374   0.00345   0.00000  Uiso   1.00
H56    H     0.76543   0.27094   0.99485   0.00000  Uiso   1.00
H57    H     0.90324   0.34160   0.00315   0.00000  Uiso   1.00
C58    C     0.34077   0.73319   0.99701   0.00000  Uiso   1.00
C59    C     0.34942   0.77129   0.00189   0.00000  Uiso   1.00
C60    C     0.39175   0.76994   0.00368   0.00000  Uiso   1.00
C61    C     0.42621   0.72961   0.00046   0.00000  Uiso   1.00
C62    C     0.41765   0.69146   0.99522   0.00000  Uiso   1.00
C63    C     0.37532   0.69285   0.99352   0.00000  Uiso   1.00
C64    C     0.29509   0.74289   0.99637   0.00000  Uiso   1.00
C65    C     0.26975   0.78610   0.00043   0.00000  Uiso   1.00
H66    H     0.39792   0.79930   0.00754   0.00000  Uiso   1.00
H67    H     0.36915   0.66349   0.98949   0.00000  Uiso   1.00
H68    H     0.28095   0.71880   0.99288   0.00000  Uiso   1.00
C69    C     0.47188   0.72003   0.00163   0.00000  Uiso   1.00
C70    C     0.49737   0.67692   0.99731   0.00000  Uiso   1.00
H71    H     0.48584   0.74427   0.00572   0.00000  Uiso   1.00
S72    S     0.46605   0.64629   0.99173   0.00000  Uiso   1.00
S73    S     0.30130   0.81627   0.00534   0.00000  Uiso   1.00
C74    C     0.73720   0.65820   0.00085   0.00000  Uiso   1.00
C75    C     0.73509   0.61732   0.00076   0.00000  Uiso   1.00
C76    C     0.69281   0.61413   0.99952   0.00000  Uiso   1.00
C77    C     0.65410   0.65182   0.00108   0.00000  Uiso   1.00
C78    C     0.77416   0.57950   0.00127   0.00000  Uiso   1.00
C79    C     0.69045   0.57312   0.99657   0.00000  Uiso   1.00
C80    C     0.73032   0.53449   0.99712   0.00000  Uiso   1.00
C81    C     0.77175   0.53756   0.00050   0.00000  Uiso   1.00
C82    C     0.72773   0.49382   0.99522   0.00000  Uiso   1.00
C83    C     0.64938   0.56985   0.99400   0.00000  Uiso   1.00
C84    C     0.61243   0.60717   0.99521   0.00000  Uiso   1.00
C85    C     0.61476   0.64740   0.99901   0.00000  Uiso   1.00
C86    C     0.77774   0.66003   0.00152   0.00000  Uiso   1.00
C87    C     0.81608   0.62302   0.00204   0.00000  Uiso   1.00
C88    C     0.81528   0.58271   0.00192   0.00000  Uiso   1.00
C89    C     0.81052   0.49986   0.00270   0.00000  Uiso   1.00
C90    C     0.76609   0.45794   0.99713   0.00000  Uiso   1.00
C91    C     0.80676   0.46083   0.00093   0.00000  Uiso   1.00
H92    H     0.64594   0.53920   0.99128   0.00000  Uiso   1.00
H93    H     0.69679   0.48990   0.99240   0.00000  Uiso   1.00
H94    H     0.84292   0.50064   0.00597   0.00000  Uiso   1.00
H95    H     0.65431   0.68387   0.00423   0.00000  Uiso   1.00
H96    H     0.70819   0.68796   0.99996   0.00000  Uiso   1.00
H97    H     0.84602   0.55470   0.00194   0.00000  Uiso   1.00
O98    O     0.56923   0.61247   0.99383   0.00000  Uiso   1.00
O99    O     0.57295   0.67875   0.00028   0.00000  Uiso   1.00
O100   O     0.78833   0.69549   0.00122   0.00000  Uiso   1.00
O101   O     0.85145   0.63462   0.00210   0.00000  Uiso   1.00
O102   O     0.83906   0.42000   0.00245   0.00000  Uiso   1.00
O103   O     0.77203   0.41541   0.99619   0.00000  Uiso   1.00
B104   B     0.54579   0.65646   0.99716   0.00000  Uiso   1.00
B105   B     0.83362   0.67911   0.00149   0.00000  Uiso   1.00
B106   B     0.81694   0.39278   0.99950   0.00000  Uiso   1.00
C107   C     0.85938   0.70637   0.00092   0.00000  Uiso   1.00
C108   C     0.83813   0.75105   0.00035   0.00000  Uiso   1.00
C109   C     0.86167   0.77681   0.99967   0.00000  Uiso   1.00
C110   C     0.90729   0.75860   0.99953   0.00000  Uiso   1.00
C111   C     0.92854   0.71393   0.00009   0.00000  Uiso   1.00
C112   C     0.90501   0.68818   0.00077   0.00000  Uiso   1.00
H113   H     0.80244   0.76506   0.00047   0.00000  Uiso   1.00
H114   H     0.84507   0.81175   0.99923   0.00000  Uiso   1.00
H115   H     0.96423   0.69995   0.99997   0.00000  Uiso   1.00
H116   H     0.92160   0.65324   0.00119   0.00000  Uiso   1.00
C117   C     0.01684   0.83901   0.49918   0.00000  Uiso   1.00
C118   C     0.01889   0.87991   0.49926   0.00000  Uiso   1.00
C119   C     0.06114   0.88316   0.50046   0.00000  Uiso   1.00
C120   C     0.09988   0.84550   0.49890   0.00000  Uiso   1.00
C121   C     0.97979   0.91770   0.49878   0.00000  Uiso   1.00
C122   C     0.06344   0.92420   0.50338   0.00000  Uiso   1.00
C123   C     0.02354   0.96279   0.50284   0.00000  Uiso   1.00
C124   C     0.98214   0.95967   0.49951   0.00000  Uiso   1.00
C125   C     0.02607   0.00350   0.50472   0.00000  Uiso   1.00
C126   C     0.10449   0.92752   0.50591   0.00000  Uiso   1.00
C127   C     0.14147   0.89024   0.50470   0.00000  Uiso   1.00
C128   C     0.13920   0.84998   0.50093   0.00000  Uiso   1.00
C129   C     0.97633   0.83711   0.49854   0.00000  Uiso   1.00
C130   C     0.93796   0.87410   0.49805   0.00000  Uiso   1.00
C131   C     0.93869   0.91443   0.49818   0.00000  Uiso   1.00
C132   C     0.94333   0.99733   0.49734   0.00000  Uiso   1.00
C133   C     0.98768   0.03934   0.50284   0.00000  Uiso   1.00
C134   C     0.94703   0.03639   0.49909   0.00000  Uiso   1.00
H135   H     0.10788   0.95820   0.50862   0.00000  Uiso   1.00
H136   H     0.05698   0.00746   0.50750   0.00000  Uiso   1.00
H137   H     0.91095   0.99651   0.49410   0.00000  Uiso   1.00
H138   H     0.09973   0.81344   0.49578   0.00000  Uiso   1.00
H139   H     0.04588   0.80927   0.50004   0.00000  Uiso   1.00
H140   H     0.90793   0.94241   0.49819   0.00000  Uiso   1.00
O141   O     0.18465   0.88499   0.50605   0.00000  Uiso   1.00
O142   O     0.18103   0.81867   0.49965   0.00000  Uiso   1.00
O143   O     0.96580   0.80162   0.49884   0.00000  Uiso   1.00
O144   O     0.90262   0.86244   0.49802   0.00000  Uiso   1.00
O145   O     0.91469   0.07720   0.49760   0.00000  Uiso   1.00
O146   O     0.98168   0.08189   0.50379   0.00000  Uiso   1.00
B147   B     0.20814   0.84101   0.50273   0.00000  Uiso   1.00
B148   B     0.92050   0.81795   0.49860   0.00000  Uiso   1.00
B149   B     0.93676   0.10446   0.50053   0.00000  Uiso   1.00
C150   C     0.91604   0.15210   0.50027   0.00000  Uiso   1.00
C151   C     0.87083   0.17427   0.49832   0.00000  Uiso   1.00
C152   C     0.85190   0.21911   0.49824   0.00000  Uiso   1.00
C153   C     0.87952   0.24221   0.50008   0.00000  Uiso   1.00
C154   C     0.92564   0.21973   0.50200   0.00000  Uiso   1.00
C155   C     0.94293   0.17493   0.50209   0.00000  Uiso   1.00
C156   C     0.80558   0.24259   0.49641   0.00000  Uiso   1.00
C157   C     0.86110   0.28770   0.49999   0.00000  Uiso   1.00
C158   C     0.81498   0.31017   0.49813   0.00000  Uiso   1.00
C159   C     0.78788   0.28619   0.49640   0.00000  Uiso   1.00
C160   C     0.79766   0.35496   0.49800   0.00000  Uiso   1.00
H161   H     0.76238   0.37350   0.49659   0.00000  Uiso   1.00
C162   C     0.82456   0.37781   0.49964   0.00000  Uiso   1.00
C163   C     0.86979   0.35564   0.50153   0.00000  Uiso   1.00
C164   C     0.88874   0.31080   0.50174   0.00000  Uiso   1.00
C165   C     0.93507   0.28729   0.50363   0.00000  Uiso   1.00
C166   C     0.95273   0.24369   0.50378   0.00000  Uiso   1.00
H167   H     0.98823   0.22630   0.50529   0.00000  Uiso   1.00
H168   H     0.95641   0.30497   0.50505   0.00000  Uiso   1.00
H169   H     0.78429   0.22486   0.49499   0.00000  Uiso   1.00
H170   H     0.85042   0.15564   0.49693   0.00000  Uiso   1.00
H171   H     0.97822   0.15639   0.50355   0.00000  Uiso   1.00
H172   H     0.75238   0.30353   0.49497   0.00000  Uiso   1.00
H173   H     0.89021   0.37426   0.50281   0.00000  Uiso   1.00
C174   C     0.32773   0.76789   0.49940   0.00000  Uiso   1.00
C175   C     0.33629   0.80603   0.50463   0.00000  Uiso   1.00
C176   C     0.37862   0.80465   0.50633   0.00000  Uiso   1.00
C177   C     0.41316   0.76431   0.50284   0.00000  Uiso   1.00
C178   C     0.40452   0.72621   0.49796   0.00000  Uiso   1.00
C179   C     0.36219   0.72756   0.49617   0.00000  Uiso   1.00
C180   C     0.28206   0.77747   0.49823   0.00000  Uiso   1.00
C181   C     0.25656   0.82058   0.50256   0.00000  Uiso   1.00
H182   H     0.38479   0.83400   0.51036   0.00000  Uiso   1.00
H183   H     0.35602   0.69820   0.49231   0.00000  Uiso   1.00
H184   H     0.26810   0.75322   0.49416   0.00000  Uiso   1.00
C185   C     0.45885   0.75461   0.50349   0.00000  Uiso   1.00
C186   C     0.48418   0.71139   0.49944   0.00000  Uiso   1.00
H187   H     0.47299   0.77869   0.50700   0.00000  Uiso   1.00
S188   S     0.45264   0.68123   0.49451   0.00000  Uiso   1.00
S189   S     0.28789   0.85120   0.50813   0.00000  Uiso   1.00
C190   C     0.72439   0.69066   0.50092   0.00000  Uiso   1.00
C191   C     0.72212   0.64986   0.50109   0.00000  Uiso   1.00
C192   C     0.67978   0.64675   0.50044   0.00000  Uiso   1.00
C193   C     0.64121   0.68453   0.50241   0.00000  Uiso   1.00
C194   C     0.76111   0.61198   0.50143   0.00000  Uiso   1.00
C195   C     0.67715   0.60583   0.49757   0.00000  Uiso   1.00
C196   C     0.71701   0.56713   0.49758   0.00000  Uiso   1.00
C197   C     0.75849   0.57014   0.50077   0.00000  Uiso   1.00
C198   C     0.71443   0.52647   0.49535   0.00000  Uiso   1.00
C199   C     0.63591   0.60285   0.49555   0.00000  Uiso   1.00
C200   C     0.59905   0.64033   0.49705   0.00000  Uiso   1.00
C201   C     0.60172   0.68040   0.50070   0.00000  Uiso   1.00
C202   C     0.76500   0.69240   0.50132   0.00000  Uiso   1.00
C203   C     0.80325   0.65530   0.50179   0.00000  Uiso   1.00
C204   C     0.80230   0.61505   0.50179   0.00000  Uiso   1.00
C205   C     0.79726   0.53251   0.50290   0.00000  Uiso   1.00
C206   C     0.75283   0.49060   0.49702   0.00000  Uiso   1.00
C207   C     0.79348   0.49350   0.50105   0.00000  Uiso   1.00
H208   H     0.63236   0.57224   0.49301   0.00000  Uiso   1.00
H209   H     0.68351   0.52253   0.49244   0.00000  Uiso   1.00
H210   H     0.82967   0.53325   0.50629   0.00000  Uiso   1.00
H211   H     0.64158   0.71651   0.50548   0.00000  Uiso   1.00
H212   H     0.69544   0.72046   0.50012   0.00000  Uiso   1.00
H213   H     0.83300   0.58699   0.50172   0.00000  Uiso   1.00
O214   O     0.55562   0.64617   0.49593   0.00000  Uiso   1.00
O215   O     0.56017   0.71206   0.50208   0.00000  Uiso   1.00
O216   O     0.77569   0.72776   0.50092   0.00000  Uiso   1.00
O217   O     0.83870   0.66678   0.50169   0.00000  Uiso   1.00
O218   O     0.82584   0.45268   0.50254   0.00000  Uiso   1.00
O219   O     0.75886   0.44801   0.49585   0.00000  Uiso   1.00
B220   B     0.53258   0.69029   0.49906   0.00000  Uiso   1.00
B221   B     0.82097   0.71129   0.50112   0.00000  Uiso   1.00
B222   B     0.80377   0.42544   0.49933   0.00000  Uiso   1.00
C223   C     0.84687   0.73843   0.50055   0.00000  Uiso   1.00
C224   C     0.82562   0.78310   0.49999   0.00000  Uiso   1.00
C225   C     0.84914   0.80886   0.49932   0.00000  Uiso   1.00
C226   C     0.89477   0.79066   0.49917   0.00000  Uiso   1.00
C227   C     0.91602   0.74598   0.49973   0.00000  Uiso   1.00
C228   C     0.89249   0.72023   0.50041   0.00000  Uiso   1.00
H229   H     0.78992   0.79708   0.50011   0.00000  Uiso   1.00
H230   H     0.83255   0.84380   0.49889   0.00000  Uiso   1.00
H231   H     0.95172   0.73197   0.49962   0.00000  Uiso   1.00
H232   H     0.90908   0.68529   0.50085   0.00000  Uiso   1.00
loop_
_geom_bond_atom_site_label_1
_geom_bond_atom_site_label_2
_geom_bond_distance
_geom_bond_site_symmetry_2
_ccdc_geom_bond_type
C1     C2      1.423   .     S
C1     C13     1.385   1_455 D
C1     H23     1.097   .     S
C2     C3      1.463   .     D
C2     C5      1.434   1_455 S
C3     C4      1.424   .     S
C3     C6      1.432   1_556 S
C4     C12     1.384   .     D
C4     H22     1.095   .     S
C5     C2      1.434   1_655 S
C5     C8      1.463   .     D
C5     C15     1.424   .     S
C6     C3      1.432   1_554 S
C6     C7      1.465   .     D
C6     C10     1.424   .     S
C7     C8      1.433   1_454 S
C7     C9      1.423   .     S
C8     C7      1.433   1_656 S
C8     C16     1.425   .     S
C9     C17     1.386   1_565 D
C9     H20     1.096   .     S
C10    C11     1.388   .     D
C10    H19     1.096   .     S
C11    C12     1.404   1_554 S
C11    O25     1.389   .     S
C12    C11     1.404   1_556 S
C12    O26     1.389   .     S
C13    C1      1.385   1_655 D
C13    C14     1.405   .     S
C13    O27     1.385   .     S
C14    C15     1.385   .     D
C14    O28     1.388   .     S
C15    H24     1.097   .     S
C16    C18     1.385   1_565 D
C16    H21     1.096   .     S
C17    C9      1.386   1_545 D
C17    C18     1.404   1_454 S
C17    O30     1.386   1_455 S
C18    C17     1.404   1_656 S
C18    C16     1.385   1_545 D
C18    O29     1.391   .     S
O25    B31     1.397   .     S
O26    B31     1.394   1_556 S
O27    B32     1.396   .     S
O28    B32     1.397   .     S
O29    B33     1.395   1_556 S
O30    C17     1.386   1_655 S
O30    B33     1.397   .     S
B31    O26     1.394   1_554 S
B31    C65     1.495   .     S
B32    C110    1.496   .     S
B33    O29     1.395   1_554 S
B33    C34     1.497   .     S
C34    C35     1.405   1_554 S
C34    C39     1.402   .     D
C35    C34     1.405   1_556 S
C35    C36     1.408   .     D
C35    H54     1.100   .     S
C36    C37     1.431   1_556 S
C36    C40     1.442   .     S
C37    C36     1.431   1_554 S
C37    C38     1.432   .     D
C37    C41     1.428   .     S
C38    C39     1.406   .     S
C38    C50     1.440   .     S
C39    H55     1.101   .     S
C40    C43     1.368   .     D
C40    H53     1.101   .     S
C41    C42     1.431   1_554 S
C41    C48     1.431   .     D
C42    C41     1.431   1_556 S
C42    C43     1.439   .     S
C42    C44     1.406   .     D
C43    H56     1.103   .     S
C44    H45     1.102   .     S
C44    C46     1.402   .     S
C46    C47     1.404   1_556 D
C46    B106    1.497   .     S
C47    C46     1.404   1_554 D
C47    C48     1.408   .     S
C47    H57     1.100   .     S
C48    C49     1.442   .     S
C49    C50     1.368   .     D
C49    H52     1.101   .     S
C50    H51     1.102   1_655 S
H51    C50     1.102   1_455 S
C58    C59     1.438   1_556 D
C58    C63     1.410   .     S
C58    C64     1.434   .     S
C59    C58     1.438   1_554 D
C59    C60     1.401   .     S
C59    S73     1.738   .     S
C60    C61     1.408   .     D
C60    H66     1.099   .     S
C61    C62     1.438   1_554 S
C61    C69     1.434   .     S
C62    C61     1.438   1_556 S
C62    C63     1.400   .     D
C62    S72     1.747   .     S
C63    H67     1.099   .     S
C64    C65     1.384   1_556 D
C64    H68     1.097   .     S
C65    C64     1.384   1_554 D
C65    S73     1.740   .     S
C69    C70     1.382   1_554 D
C69    H71     1.098   .     S
C70    C69     1.382   1_556 D
C70    S72     1.746   .     S
C70    B104    1.494   .     S
C74    C75     1.423   .     S
C74    C86     1.384   .     D
C74    H96     1.097   1_554 S
C75    C76     1.462   1_554 D
C75    C78     1.434   .     S
C76    C75     1.462   1_556 D
C76    C77     1.425   1_556 S
C76    C79     1.431   .     S
C77    C76     1.425   1_554 S
C77    C85     1.384   1_554 D
C77    H95     1.096   .     S
C78    C81     1.464   .     D
C78    C88     1.424   .     S
C79    C80     1.464   .     D
C79    C83     1.423   .     S
C80    C81     1.432   1_556 S
C80    C82     1.423   .     S
C81    C80     1.432   1_554 S
C81    C89     1.427   .     S
C82    C90     1.386   .     D
C82    H93     1.096   .     S
C83    C84     1.386   .     D
C83    H92     1.095   .     S
C84    C85     1.404   .     S
C84    O98     1.387   .     S
C85    C77     1.384   1_556 D
C85    O99     1.391   1_556 S
C86    C87     1.406   .     S
C86    O100    1.387   .     S
C87    C88     1.385   .     D
C87    O101    1.388   .     S
C88    H97     1.097   .     S
C89    C91     1.385   .     D
C89    H94     1.096   .     S
C90    C91     1.404   1_556 S
C90    O103    1.385   .     S
C91    C90     1.404   1_554 S
C91    O102    1.390   .     S
H96    C74     1.097   1_556 S
O98    B104    1.395   .     S
O99    C85     1.391   1_554 S
O99    B104    1.395   1_554 S
O100   B105    1.397   .     S
O101   B105    1.397   .     S
O102   B106    1.396   1_554 S
O103   B106    1.397   .     S
B104   O99     1.395   1_556 S
B105   C107    1.495   .     S
B106   O102    1.396   1_556 S
C107   C108    1.407   .     S
C107   C112    1.407   .     D
C108   C109    1.391   1_554 D
C108   H113    1.101   .     S
C109   C108    1.391   1_556 D
C109   C110    1.407   .     S
C109   H114    1.100   .     S
C110   C111    1.407   1_556 D
C111   C110    1.407   1_554 D
C111   C112    1.390   .     S
C111   H115    1.101   1_554 S
C112   H116    1.100   .     S
H115   C111    1.101   1_556 S
C117   C118    1.423   .     S
C117   C129    1.384   1_455 D
C117   H139    1.097   .     S
C118   C119    1.462   .     D
C118   C121    1.434   1_455 S
C119   C120    1.425   .     S
C119   C122    1.431   .     S
C120   C128    1.384   .     D
C120   H138    1.095   .     S
C121   C118    1.434   1_655 S
C121   C124    1.464   .     D
C121   C131    1.424   .     S
C122   C123    1.464   .     D
C122   C126    1.423   .     S
C123   C124    1.432   1_455 S
C123   C125    1.424   1_565 S
C124   C123    1.432   1_655 S
C124   C132    1.427   .     S
C125   C123    1.424   1_545 S
C125   C133    1.385   1_455 D
C125   H136    1.095   .     S
C126   C127    1.386   .     D
C126   H135    1.096   .     S
C127   C128    1.405   .     S
C127   O141    1.386   .     S
C128   O142    1.391   .     S
C129   C117    1.384   1_655 D
C129   C130    1.406   .     S
C129   O143    1.387   .     S
C130   C131    1.385   .     D
C130   O144    1.388   .     S
C131   H140    1.097   .     S
C132   C134    1.385   1_565 D
C132   H137    1.096   .     S
C133   C125    1.385   1_655 D
C133   C134    1.404   .     S
C133   O146    1.385   .     S
C134   C132    1.385   1_545 D
C134   O145    1.390   .     S
O141   B147    1.395   .     S
O142   B147    1.395   .     S
O143   B148    1.397   .     S
O144   B148    1.397   .     S
O145   B149    1.396   .     S
O146   B149    1.397   .     S
B147   C181    1.494   .     S
B148   C226    1.495   .     S
B149   C150    1.497   .     S
C150   C151    1.404   .     S
C150   C155    1.402   .     D
C151   C152    1.408   .     D
C151   H170    1.100   .     S
C152   C153    1.431   .     S
C152   C156    1.442   .     S
C153   C154    1.432   .     S
C153   C157    1.428   .     D
C154   C155    1.406   .     S
C154   C166    1.439   .     D
C155   H171    1.102   .     S
C156   C159    1.369   .     D
C156   H169    1.101   .     S
C157   C158    1.432   .     S
C157   C164    1.431   .     S
C158   C159    1.440   .     S
C158   C160    1.406   .     D
C159   H172    1.102   .     S
C160   H161    1.101   .     S
C160   C162    1.403   .     S
C162   C163    1.404   .     D
C162   B222    1.496   .     S
C163   C164    1.408   .     S
C163   H173    1.100   .     S
C164   C165    1.442   .     D
C165   C166    1.369   .     S
C165   H168    1.101   .     S
C166   H167    1.102   .     S
C174   C175    1.438   .     D
C174   C179    1.408   .     S
C174   C180    1.434   .     S
C175   C176    1.400   .     S
C175   S189    1.747   .     S
C176   C177    1.410   .     D
C176   H182    1.099   .     S
C177   C178    1.438   .     S
C177   C185    1.434   .     S
C178   C179    1.401   .     D
C178   S188    1.738   .     S
C179   H183    1.099   .     S
C180   C181    1.382   .     D
C180   H184    1.098   .     S
C181   S189    1.746   .     S
C185   C186    1.384   .     D
C185   H187    1.097   .     S
C186   S188    1.739   .     S
C186   B220    1.495   .     S
C190   C191    1.423   .     S
C190   C202    1.385   .     D
C190   H212    1.097   .     S
C191   C192    1.463   .     D
C191   C194    1.434   .     S
C192   C193    1.424   .     S
C192   C195    1.432   .     S
C193   C201    1.384   .     D
C193   H211    1.096   .     S
C194   C197    1.463   .     D
C194   C204    1.424   .     S
C195   C196    1.465   .     D
C195   C199    1.424   .     S
C196   C197    1.433   .     S
C196   C198    1.423   .     S
C197   C205    1.425   .     S
C198   C206    1.386   .     D
C198   H209    1.095   .     S
C199   C200    1.387   .     D
C199   H208    1.096   .     S
C200   C201    1.404   .     S
C200   O214    1.389   .     S
C201   O215    1.389   .     S
C202   C203    1.406   .     S
C202   O216    1.385   .     S
C203   C204    1.385   .     D
C203   O217    1.388   .     S
C204   H213    1.097   .     S
C205   C207    1.385   .     D
C205   H210    1.096   .     S
C206   C207    1.404   .     S
C206   O219    1.386   .     S
C207   O218    1.391   .     S
O214   B220    1.397   .     S
O215   B220    1.394   .     S
O216   B221    1.397   .     S
O217   B221    1.397   .     S
O218   B222    1.395   .     S
O219   B222    1.397   .     S
B221   C223    1.496   .     S
C223   C224    1.407   .     D
C223   C228    1.407   .     S
C224   C225    1.390   .     S
C224   H229    1.101   .     S
C225   C226    1.407   .     D
C225   H230    1.100   .     S
C226   C227    1.407   .     S
C227   C228    1.390   .     D
C227   H231    1.101   .     S
C228   H232    1.100   .     S
