data_307
_audit_creation_date              2023-09-08
_audit_creation_method            'Materials Studio'
_symmetry_space_group_name_H-M    'P1'
_symmetry_Int_Tables_number       1
_symmetry_cell_setting            triclinic
loop_
_symmetry_equiv_pos_as_xyz
  x,y,z
_cell_length_a                    33.7160
_cell_length_b                    53.9692
_cell_length_c                    3.4000
_cell_angle_alpha                 90.0000
_cell_angle_beta                  90.0000
_cell_angle_gamma                 89.3825
loop_
_atom_site_label
_atom_site_type_symbol
_atom_site_fract_x
_atom_site_fract_y
_atom_site_fract_z
_atom_site_U_iso_or_equiv
_atom_site_adp_type
_atom_site_occupancy
C1     C     0.47871   0.52308   0.48778   0.00000  Uiso   1.00
C2     C     0.52136   0.52277   0.48682   0.00000  Uiso   1.00
C3     C     0.54161   0.54583   0.50995   0.00000  Uiso   1.00
C4     C     0.52027   0.56786   0.53217   0.00000  Uiso   1.00
C5     C     0.47990   0.56813   0.53605   0.00000  Uiso   1.00
C6     C     0.45852   0.54640   0.51636   0.00000  Uiso   1.00
O7     O     0.46384   0.59180   0.56537   0.00000  Uiso   1.00
B8     B     0.50014   0.60641   0.57885   0.00000  Uiso   1.00
O9     O     0.53640   0.59131   0.55839   0.00000  Uiso   1.00
C10    C     0.45753   0.50040   0.46291   0.00000  Uiso   1.00
C11    C     0.47880   0.47717   0.45433   0.00000  Uiso   1.00
C12    C     0.41523   0.50009   0.44365   0.00000  Uiso   1.00
C13    C     0.39549   0.47775   0.42371   0.00000  Uiso   1.00
C14    C     0.41561   0.45575   0.41857   0.00000  Uiso   1.00
C15    C     0.45665   0.45481   0.43149   0.00000  Uiso   1.00
O16    O     0.39088   0.43547   0.39364   0.00000  Uiso   1.00
B17    B     0.35216   0.44798   0.38435   0.00000  Uiso   1.00
O18    O     0.35472   0.47500   0.40286   0.00000  Uiso   1.00
C19    C     0.54246   0.49975   0.46876   0.00000  Uiso   1.00
C20    C     0.52110   0.47684   0.46293   0.00000  Uiso   1.00
C21    C     0.54318   0.45411   0.46377   0.00000  Uiso   1.00
C22    C     0.58425   0.45441   0.45914   0.00000  Uiso   1.00
C23    C     0.60446   0.47610   0.45389   0.00000  Uiso   1.00
C24    C     0.58479   0.49876   0.45832   0.00000  Uiso   1.00
O25    O     0.64526   0.47270   0.44671   0.00000  Uiso   1.00
B26    B     0.64772   0.44561   0.44856   0.00000  Uiso   1.00
O27    O     0.60892   0.43371   0.45656   0.00000  Uiso   1.00
H28    H     0.57332   0.54760   0.51614   0.00000  Uiso   1.00
H29    H     0.42682   0.54859   0.52922   0.00000  Uiso   1.00
H30    H     0.39668   0.51640   0.43828   0.00000  Uiso   1.00
H31    H     0.46968   0.43657   0.41863   0.00000  Uiso   1.00
H32    H     0.53009   0.43605   0.46984   0.00000  Uiso   1.00
H33    H     0.60345   0.51478   0.45142   0.00000  Uiso   1.00
C34    C     0.47909   0.80069   0.80052   0.00000  Uiso   1.00
C35    C     0.52173   0.80042   0.79326   0.00000  Uiso   1.00
C36    C     0.54192   0.77708   0.76625   0.00000  Uiso   1.00
C37    C     0.52054   0.75535   0.74813   0.00000  Uiso   1.00
C38    C     0.48017   0.75562   0.75203   0.00000  Uiso   1.00
C39    C     0.45883   0.77764   0.77583   0.00000  Uiso   1.00
O40    O     0.46404   0.73217   0.72580   0.00000  Uiso   1.00
B41    B     0.50030   0.71707   0.70534   0.00000  Uiso   1.00
O42    O     0.53660   0.73167   0.71882   0.00000  Uiso   1.00
C43    C     0.45798   0.82366   0.82945   0.00000  Uiso   1.00
C44    C     0.47927   0.84659   0.83394   0.00000  Uiso   1.00
C45    C     0.41572   0.82455   0.85685   0.00000  Uiso   1.00
C46    C     0.39603   0.84715   0.88058   0.00000  Uiso   1.00
C47    C     0.41616   0.86887   0.88185   0.00000  Uiso   1.00
C48    C     0.45718   0.86926   0.86103   0.00000  Uiso   1.00
O49    O     0.39150   0.88950   0.91154   0.00000  Uiso   1.00
B50    B     0.35280   0.87752   0.92828   0.00000  Uiso   1.00
O51    O     0.35531   0.85045   0.90927   0.00000  Uiso   1.00
C52    C     0.54288   0.82315   0.80725   0.00000  Uiso   1.00
C53    C     0.52154   0.84635   0.81719   0.00000  Uiso   1.00
C54    C     0.54362   0.86877   0.81210   0.00000  Uiso   1.00
C55    C     0.58469   0.86792   0.80883   0.00000  Uiso   1.00
C56    C     0.60490   0.84595   0.81019   0.00000  Uiso   1.00
C57    C     0.58522   0.82356   0.80955   0.00000  Uiso   1.00
O58    O     0.64570   0.84880   0.80952   0.00000  Uiso   1.00
B59    B     0.64817   0.87585   0.80719   0.00000  Uiso   1.00
O60    O     0.60938   0.88828   0.80666   0.00000  Uiso   1.00
H61    H     0.57362   0.77488   0.75395   0.00000  Uiso   1.00
H62    H     0.42712   0.77589   0.76907   0.00000  Uiso   1.00
H63    H     0.39718   0.80848   0.86579   0.00000  Uiso   1.00
H64    H     0.47023   0.88732   0.87139   0.00000  Uiso   1.00
H65    H     0.53053   0.88702   0.80855   0.00000  Uiso   1.00
H66    H     0.60388   0.80729   0.81286   0.00000  Uiso   1.00
C67    C     0.02516   0.29685   0.40804   0.00000  Uiso   1.00
C68    C     0.98254   0.29716   0.42258   0.00000  Uiso   1.00
C69    C     0.96239   0.27412   0.45697   0.00000  Uiso   1.00
C70    C     0.98381   0.25211   0.47514   0.00000  Uiso   1.00
C71    C     0.02416   0.25183   0.46434   0.00000  Uiso   1.00
C72    C     0.04546   0.27355   0.43319   0.00000  Uiso   1.00
O73    O     0.04034   0.22818   0.49180   0.00000  Uiso   1.00
B74    B     0.00411   0.21359   0.52098   0.00000  Uiso   1.00
O75    O     0.96780   0.22867   0.51119   0.00000  Uiso   1.00
C76    C     0.04622   0.31951   0.37163   0.00000  Uiso   1.00
C77    C     0.02493   0.34273   0.36687   0.00000  Uiso   1.00
C78    C     0.08843   0.31981   0.33691   0.00000  Uiso   1.00
C79    C     0.10808   0.34213   0.30601   0.00000  Uiso   1.00
C80    C     0.08794   0.36412   0.30447   0.00000  Uiso   1.00
C81    C     0.04697   0.36508   0.33219   0.00000  Uiso   1.00
O82    O     0.11255   0.38439   0.26711   0.00000  Uiso   1.00
B83    B     0.15121   0.37187   0.24584   0.00000  Uiso   1.00
O84    O     0.14874   0.34485   0.26985   0.00000  Uiso   1.00
C85    C     0.96137   0.32017   0.40833   0.00000  Uiso   1.00
C86    C     0.98269   0.34307   0.39083   0.00000  Uiso   1.00
C87    C     0.96062   0.36580   0.39587   0.00000  Uiso   1.00
C88    C     0.91957   0.36551   0.40626   0.00000  Uiso   1.00
C89    C     0.89936   0.34381   0.41206   0.00000  Uiso   1.00
C90    C     0.91903   0.32116   0.41315   0.00000  Uiso   1.00
O91    O     0.85856   0.34722   0.41917   0.00000  Uiso   1.00
B92    B     0.85610   0.37431   0.41733   0.00000  Uiso   1.00
O93    O     0.89489   0.38621   0.40917   0.00000  Uiso   1.00
H94    H     0.93073   0.27236   0.47502   0.00000  Uiso   1.00
H95    H     0.07718   0.27137   0.43486   0.00000  Uiso   1.00
H96    H     0.10695   0.30349   0.32754   0.00000  Uiso   1.00
H97    H     0.03390   0.38331   0.32099   0.00000  Uiso   1.00
H98    H     0.97372   0.38387   0.39410   0.00000  Uiso   1.00
H99    H     0.90037   0.30514   0.41577   0.00000  Uiso   1.00
C100   C     0.02569   0.01946   0.77504   0.00000  Uiso   1.00
C101   C     0.98305   0.01973   0.76871   0.00000  Uiso   1.00
C102   C     0.96285   0.04305   0.73820   0.00000  Uiso   1.00
C103   C     0.98424   0.06477   0.71591   0.00000  Uiso   1.00
C104   C     0.02460   0.06449   0.71894   0.00000  Uiso   1.00
C105   C     0.04594   0.04249   0.74599   0.00000  Uiso   1.00
O106   O     0.04073   0.08793   0.68837   0.00000  Uiso   1.00
B107   B     0.00446   0.10301   0.66617   0.00000  Uiso   1.00
O108   O     0.96817   0.08842   0.68295   0.00000  Uiso   1.00
C109   C     0.04681   0.99651   0.80739   0.00000  Uiso   1.00
C110   C     0.02552   0.97358   0.81625   0.00000  Uiso   1.00
C111   C     0.08907   0.99564   0.83398   0.00000  Uiso   1.00
C112   C     0.10877   0.97306   0.86110   0.00000  Uiso   1.00
C113   C     0.08863   0.95134   0.86651   0.00000  Uiso   1.00
C114   C     0.04762   0.95094   0.84668   0.00000  Uiso   1.00
O115   O     0.11330   0.93073   0.89913   0.00000  Uiso   1.00
B116   B     0.15200   0.94272   0.91295   0.00000  Uiso   1.00
O117   O     0.14949   0.96977   0.88942   0.00000  Uiso   1.00
C118   C     0.96190   0.99701   0.78703   0.00000  Uiso   1.00
C119   C     0.98324   0.97382   0.80042   0.00000  Uiso   1.00
C120   C     0.96116   0.95139   0.79964   0.00000  Uiso   1.00
C121   C     0.92009   0.95225   0.79715   0.00000  Uiso   1.00
C122   C     0.89988   0.97421   0.79524   0.00000  Uiso   1.00
C123   C     0.91956   0.99661   0.79036   0.00000  Uiso   1.00
O124   O     0.85908   0.97137   0.79598   0.00000  Uiso   1.00
B125   B     0.85661   0.94431   0.79830   0.00000  Uiso   1.00
O126   O     0.89540   0.93188   0.79899   0.00000  Uiso   1.00
H127   H     0.93116   0.04524   0.72625   0.00000  Uiso   1.00
H128   H     0.07766   0.04424   0.73821   0.00000  Uiso   1.00
H129   H     0.10762   0.01171   0.83978   0.00000  Uiso   1.00
H130   H     0.03456   0.93288   0.86039   0.00000  Uiso   1.00
H131   H     0.97425   0.93315   0.79888   0.00000  Uiso   1.00
H132   H     0.90091   0.01288   0.79133   0.00000  Uiso   1.00
C133   C     0.50009   0.69011   0.67478   0.00000  Uiso   1.00
C134   C     0.46046   0.67623   0.66242   0.00000  Uiso   1.00
C135   C     0.53922   0.64733   0.62230   0.00000  Uiso   1.00
N136   N     0.58026   0.63569   0.60527   0.00000  Uiso   1.00
S137   S     0.61322   0.66096   0.63120   0.00000  Uiso   1.00
N138   N     0.58033   0.68669   0.66352   0.00000  Uiso   1.00
H139   H     0.43121   0.68699   0.67716   0.00000  Uiso   1.00
C140   C     0.53926   0.67561   0.65452   0.00000  Uiso   1.00
C141   C     0.46042   0.64778   0.62982   0.00000  Uiso   1.00
C142   C     0.50002   0.63336   0.60962   0.00000  Uiso   1.00
H143   H     0.43116   0.63742   0.62070   0.00000  Uiso   1.00
C144   C     0.81808   0.38826   0.42301   0.00000  Uiso   1.00
C145   C     0.68573   0.43166   0.44301   0.00000  Uiso   1.00
S146   S     0.81303   0.42181   0.42094   0.00000  Uiso   1.00
S147   S     0.69079   0.39811   0.44514   0.00000  Uiso   1.00
C148   C     0.75995   0.42296   0.43057   0.00000  Uiso   1.00
C149   C     0.74387   0.39696   0.43576   0.00000  Uiso   1.00
C150   C     0.77611   0.37634   0.43161   0.00000  Uiso   1.00
C151   C     0.72771   0.44358   0.43448   0.00000  Uiso   1.00
H152   H     0.77013   0.35559   0.43439   0.00000  Uiso   1.00
H153   H     0.73369   0.46433   0.43155   0.00000  Uiso   1.00
C154   C     0.18918   0.38527   0.27144   0.00000  Uiso   1.00
C155   C     0.31420   0.43457   0.35888   0.00000  Uiso   1.00
S156   S     0.23811   0.37086   0.28393   0.00000  Uiso   1.00
S157   S     0.26527   0.44898   0.34645   0.00000  Uiso   1.00
C158   C     0.26575   0.39894   0.31451   0.00000  Uiso   1.00
C159   C     0.23763   0.42091   0.31613   0.00000  Uiso   1.00
C160   C     0.19327   0.41403   0.29178   0.00000  Uiso   1.00
C161   C     0.31012   0.40582   0.33861   0.00000  Uiso   1.00
H162   H     0.16747   0.42786   0.28907   0.00000  Uiso   1.00
H163   H     0.33591   0.39199   0.34117   0.00000  Uiso   1.00
C164   C     0.81858   0.93088   0.79994   0.00000  Uiso   1.00
C165   C     0.68620   0.88928   0.80542   0.00000  Uiso   1.00
S166   S     0.81351   0.89740   0.80299   0.00000  Uiso   1.00
S167   S     0.69127   0.92276   0.80231   0.00000  Uiso   1.00
C168   C     0.76043   0.89697   0.80357   0.00000  Uiso   1.00
C169   C     0.74435   0.92319   0.80148   0.00000  Uiso   1.00
C170   C     0.77661   0.94337   0.79941   0.00000  Uiso   1.00
C171   C     0.72818   0.87679   0.80587   0.00000  Uiso   1.00
H172   H     0.77063   0.96420   0.79779   0.00000  Uiso   1.00
H173   H     0.73415   0.85596   0.80765   0.00000  Uiso   1.00
C174   C     0.19010   0.94244   1.07253   0.00000  Uiso   1.00
C175   C     0.31490   0.89144   0.96105   0.00000  Uiso   1.00
S176   S     0.23900   0.95618   1.05062   0.00000  Uiso   1.00
S177   S     0.26600   0.87770   0.98290   0.00000  Uiso   1.00
C178   C     0.26656   0.92773   1.01474   0.00000  Uiso   1.00
C179   C     0.23844   0.90615   1.01853   0.00000  Uiso   1.00
C180   C     0.19413   0.91363   1.05141   0.00000  Uiso   1.00
C181   C     0.31087   0.92025   0.98209   0.00000  Uiso   1.00
H182   H     0.16834   0.90015   1.05909   0.00000  Uiso   1.00
H183   H     0.33666   0.93373   0.97457   0.00000  Uiso   1.00
C184   C     0.00437   0.13219   0.62786   0.00000  Uiso   1.00
C185   C     0.04025   0.14512   0.60095   0.00000  Uiso   1.00
C186   C     0.96833   0.17148   0.58619   0.00000  Uiso   1.00
H187   H     0.06837   0.13517   0.60627   0.00000  Uiso   1.00
C188   C     0.96841   0.14562   0.62015   0.00000  Uiso   1.00
C189   C     0.04017   0.17098   0.56700   0.00000  Uiso   1.00
H190   H     0.94036   0.13605   0.64048   0.00000  Uiso   1.00
C191   C     0.00421   0.18441   0.55929   0.00000  Uiso   1.00
H192   H     0.06822   0.18055   0.54667   0.00000  Uiso   1.00
H193   H     0.94021   0.18144   0.58088   0.00000  Uiso   1.00
loop_
_geom_bond_atom_site_label_1
_geom_bond_atom_site_label_2
_geom_bond_distance
_geom_bond_site_symmetry_2
_ccdc_geom_bond_type
C1     C2      1.438   .     S
C1     C6      1.428   .     S
C1     C10     1.426   .     D
C2     C3      1.428   .     S
C2     C19     1.426   .     D
C3     C4      1.385   .     D
C3     H28     1.075   .     S
C4     C5      1.361   .     S
C4     O9      1.386   .     S
C5     C6      1.385   .     D
C5     O7      1.386   .     S
C6     H29     1.075   .     S
O7     B8      1.464   .     S
B8     O9      1.464   .     S
B8     C142    1.458   .     S
C10    C11     1.438   .     S
C10    C12     1.428   .     S
C11    C15     1.428   .     S
C11    C20     1.426   .     D
C12    C13     1.385   .     D
C12    H30     1.075   .     S
C13    C14     1.361   .     S
C13    O18     1.386   .     S
C14    C15     1.385   .     D
C14    O16     1.386   .     S
C15    H31     1.075   .     S
O16    B17     1.464   .     S
B17    O18     1.464   .     S
B17    C155    1.480   .     S
C19    C20     1.438   .     S
C19    C24     1.428   .     S
C20    C21     1.428   .     S
C21    C22     1.385   .     D
C21    H32     1.075   .     S
C22    C23     1.361   .     S
C22    O27     1.386   .     S
C23    C24     1.385   .     D
C23    O25     1.386   .     S
C24    H33     1.075   .     S
O25    B26     1.464   .     S
B26    O27     1.464   .     S
B26    C145    1.480   .     S
C34    C35     1.438   .     S
C34    C39     1.428   .     S
C34    C43     1.426   .     D
C35    C36     1.428   .     S
C35    C52     1.426   .     D
C36    C37     1.385   .     D
C36    H61     1.075   .     S
C37    C38     1.361   .     S
C37    O42     1.386   .     S
C38    C39     1.385   .     D
C38    O40     1.386   .     S
C39    H62     1.075   .     S
O40    B41     1.464   .     S
B41    O42     1.464   .     S
B41    C133    1.459   .     S
C43    C44     1.438   .     S
C43    C45     1.428   .     S
C44    C48     1.428   .     S
C44    C53     1.426   .     D
C45    C46     1.385   .     D
C45    H63     1.075   .     S
C46    C47     1.361   .     S
C46    O51     1.386   .     S
C47    C48     1.385   .     D
C47    O49     1.386   .     S
C48    H64     1.075   .     S
O49    B50     1.464   .     S
B50    O51     1.464   .     S
B50    C175    1.480   .     S
C52    C53     1.438   .     S
C52    C57     1.428   .     S
C53    C54     1.428   .     S
C54    C55     1.385   .     D
C54    H65     1.075   .     S
C55    C56     1.361   .     S
C55    O60     1.386   .     S
C56    C57     1.385   .     D
C56    O58     1.386   .     S
C57    H66     1.075   .     S
O58    B59     1.464   .     S
B59    O60     1.464   .     S
B59    C165    1.480   .     S
C67    C68     1.438   1_455 D
C67    C72     1.428   .     S
C67    C76     1.426   .     S
C68    C67     1.438   1_655 D
C68    C69     1.428   .     S
C68    C85     1.426   .     S
C69    C70     1.385   .     D
C69    H94     1.075   .     S
C70    C71     1.361   1_655 S
C70    O75     1.386   .     S
C71    C70     1.361   1_455 S
C71    C72     1.385   .     D
C71    O73     1.386   .     S
C72    H95     1.075   .     S
O73    B74     1.464   .     S
B74    O75     1.464   1_455 S
B74    C191    1.580   .     S
O75    B74     1.464   1_655 S
C76    C77     1.438   .     D
C76    C78     1.428   .     S
C77    C81     1.428   .     S
C77    C86     1.426   1_455 S
C78    C79     1.385   .     D
C78    H96     1.075   .     S
C79    C80     1.361   .     S
C79    O84     1.386   .     S
C80    C81     1.385   .     D
C80    O82     1.386   .     S
C81    H97     1.075   .     S
O82    B83     1.464   .     S
B83    O84     1.464   .     S
B83    C154    1.480   .     S
C85    C86     1.438   .     D
C85    C90     1.428   .     S
C86    C77     1.426   1_655 S
C86    C87     1.428   .     S
C87    C88     1.385   .     D
C87    H98     1.075   .     S
C88    C89     1.361   .     S
C88    O93     1.386   .     S
C89    C90     1.385   .     D
C89    O91     1.386   .     S
C90    H99     1.075   .     S
O91    B92     1.464   .     S
B92    O93     1.464   .     S
B92    C144    1.480   .     S
C100   C101    1.438   1_455 D
C100   C105    1.428   .     S
C100   C109    1.426   1_545 S
C101   C100    1.438   1_655 D
C101   C102    1.428   .     S
C101   C118    1.426   1_545 S
C102   C103    1.385   .     D
C102   H127    1.075   .     S
C103   C104    1.361   1_655 S
C103   O108    1.386   .     S
C104   C103    1.361   1_455 S
C104   C105    1.385   .     D
C104   O106    1.386   .     S
C105   H128    1.075   .     S
O106   B107    1.464   .     S
B107   O108    1.464   1_455 S
B107   C184    1.580   .     S
O108   B107    1.464   1_655 S
C109   C100    1.426   1_565 S
C109   C110    1.438   .     D
C109   C111    1.428   .     S
C110   C114    1.428   .     S
C110   C119    1.426   1_455 S
C111   C112    1.385   .     D
C111   H129    1.075   1_565 S
C112   C113    1.361   .     S
C112   O117    1.386   .     S
C113   C114    1.385   .     D
C113   O115    1.386   .     S
C114   H130    1.075   .     S
O115   B116    1.464   .     S
B116   O117    1.464   .     S
B116   C174    1.394   .     S
C118   C101    1.426   1_565 S
C118   C119    1.438   .     D
C118   C123    1.428   .     S
C119   C110    1.426   1_655 S
C119   C120    1.428   .     S
C120   C121    1.385   .     D
C120   H131    1.075   .     S
C121   C122    1.361   .     S
C121   O126    1.386   .     S
C122   C123    1.385   .     D
C122   O124    1.386   .     S
C123   H132    1.075   1_565 S
O124   B125    1.464   .     S
B125   O126    1.464   .     S
B125   C164    1.480   .     S
H129   C111    1.075   1_545 S
H132   C123    1.075   1_545 S
C133   C134    1.540   .     D
C133   C140    1.529   .     S
C134   H139    1.140   .     S
C134   C141    1.539   .     S
C135   N136    1.514   .     D
C135   C140    1.531   .     S
C135   C142    1.529   .     S
N136   S137    1.771   .     S
S137   N138    1.771   .     S
N138   C140    1.514   .     D
C141   C142    1.540   .     D
C141   H143    1.140   .     S
C144   S146    1.817   .     S
C144   C150    1.561   .     D
C145   S147    1.817   .     S
C145   C151    1.561   .     D
S146   C148    1.790   .     S
S147   C149    1.790   .     S
C148   C149    1.510   .     D
C148   C151    1.547   .     S
C149   C150    1.547   .     S
C150   H152    1.140   .     S
C151   H153    1.140   .     S
C154   S156    1.817   .     S
C154   C160    1.561   .     D
C155   S157    1.817   .     S
C155   C161    1.561   .     D
S156   C158    1.790   .     S
S157   C159    1.790   .     S
C158   C159    1.510   .     D
C158   C161    1.547   .     S
C159   C160    1.547   .     S
C160   H162    1.140   .     S
C161   H163    1.140   .     S
C164   S166    1.817   .     S
C164   C170    1.561   .     D
C165   S167    1.817   .     S
C165   C171    1.561   .     D
S166   C168    1.790   .     S
S167   C169    1.790   .     S
C168   C169    1.510   .     D
C168   C171    1.547   .     S
C169   C170    1.547   .     S
C170   H172    1.140   .     S
C171   H173    1.140   .     S
C174   S176    1.817   .     S
C174   C180    1.561   .     D
C175   S177    1.817   .     S
C175   C181    1.561   .     D
S176   C178    1.790   .     S
S177   C179    1.790   .     S
C178   C179    1.510   .     D
C178   C181    1.547   .     S
C179   C180    1.547   .     S
C180   H182    1.140   .     S
C181   H183    1.140   .     S
C184   C185    1.406   .     D
C184   C188    1.406   1_455 S
C185   H187    1.085   .     S
C185   C189    1.400   .     S
C186   C188    1.400   .     D
C186   C191    1.406   1_655 S
C186   H193    1.085   .     S
C188   C184    1.406   1_655 S
C188   H190    1.085   .     S
C189   C191    1.406   .     D
C189   H192    1.085   .     S
C191   C186    1.406   1_455 S
