data_308
_audit_creation_date              2023-09-08
_audit_creation_method            'Materials Studio'
_symmetry_space_group_name_H-M    'P1'
_symmetry_Int_Tables_number       1
_symmetry_cell_setting            triclinic
loop_
_symmetry_equiv_pos_as_xyz
  x,y,z
_cell_length_a                    30.2094
_cell_length_b                    3.5107
_cell_length_c                    31.4935
_cell_angle_alpha                 90.0000
_cell_angle_beta                  116.1611
_cell_angle_gamma                 90.0000
loop_
_atom_site_label
_atom_site_type_symbol
_atom_site_fract_x
_atom_site_fract_y
_atom_site_fract_z
_atom_site_U_iso_or_equiv
_atom_site_adp_type
_atom_site_occupancy
C1     C     0.48799   0.49999   0.52780   0.00000  Uiso   1.00
C2     C     0.53565   0.49999   0.52779   0.00000  Uiso   1.00
C3     C     0.57857   0.49999   0.57240   0.00000  Uiso   1.00
C4     C     0.57475   0.49999   0.61495   0.00000  Uiso   1.00
C5     C     0.52902   0.49999   0.61495   0.00000  Uiso   1.00
C6     C     0.48608   0.49999   0.57241   0.00000  Uiso   1.00
O7     O     0.53353   0.49999   0.65954   0.00000  Uiso   1.00
B8     B     0.58600   0.49999   0.68917   0.00000  Uiso   1.00
O9     O     0.61122   0.49999   0.65953   0.00000  Uiso   1.00
C10    C     0.44418   0.49999   0.48395   0.00000  Uiso   1.00
C11    C     0.44769   0.49999   0.43981   0.00000  Uiso   1.00
C12    C     0.39614   0.49999   0.48244   0.00000  Uiso   1.00
C13    C     0.35365   0.49999   0.43955   0.00000  Uiso   1.00
C14    C     0.35694   0.49999   0.39717   0.00000  Uiso   1.00
C15    C     0.40293   0.49999   0.39677   0.00000  Uiso   1.00
O16    O     0.31166   0.49999   0.36019   0.00000  Uiso   1.00
B17    B     0.27802   0.49999   0.38144   0.00000  Uiso   1.00
O18    O     0.30616   0.49999   0.43218   0.00000  Uiso   1.00
C19    C     0.53915   0.49999   0.48395   0.00000  Uiso   1.00
C20    C     0.49505   0.49999   0.43981   0.00000  Uiso   1.00
C21    C     0.50023   0.49999   0.39676   0.00000  Uiso   1.00
C22    C     0.54660   0.49999   0.39715   0.00000  Uiso   1.00
C23    C     0.58885   0.49999   0.43953   0.00000  Uiso   1.00
C24    C     0.58579   0.49999   0.48243   0.00000  Uiso   1.00
O25    O     0.62956   0.49999   0.43215   0.00000  Uiso   1.00
B26    B     0.61104   0.49999   0.38141   0.00000  Uiso   1.00
O27    O     0.55787   0.49999   0.36017   0.00000  Uiso   1.00
H28    H     0.61362   0.49999   0.57593   0.00000  Uiso   1.00
H29    H     0.45428   0.49999   0.57595   0.00000  Uiso   1.00
H30    H     0.38999   0.49999   0.51162   0.00000  Uiso   1.00
H31    H     0.40176   0.49999   0.36407   0.00000  Uiso   1.00
H32    H     0.47134   0.49999   0.36406   0.00000  Uiso   1.00
H33    H     0.61877   0.49999   0.51160   0.00000  Uiso   1.00
C34    C     0.85346   0.49999   0.13139   0.00000  Uiso   1.00
C35    C     0.80578   0.49999   0.13139   0.00000  Uiso   1.00
C36    C     0.76286   0.49999   0.08679   0.00000  Uiso   1.00
C37    C     0.76670   0.49999   0.04425   0.00000  Uiso   1.00
C38    C     0.81244   0.49999   0.04425   0.00000  Uiso   1.00
C39    C     0.85538   0.49999   0.08679   0.00000  Uiso   1.00
O40    O     0.80792   0.49999   0.99966   0.00000  Uiso   1.00
B41    B     0.75546   0.49999   0.97002   0.00000  Uiso   1.00
O42    O     0.73024   0.49999   0.99967   0.00000  Uiso   1.00
C43    C     0.89730   0.49999   0.17522   0.00000  Uiso   1.00
C44    C     0.89370   0.49999   0.21931   0.00000  Uiso   1.00
C45    C     0.94540   0.49999   0.17681   0.00000  Uiso   1.00
C46    C     0.98791   0.49999   0.21976   0.00000  Uiso   1.00
C47    C     0.98438   0.49999   0.26202   0.00000  Uiso   1.00
C48    C     0.93839   0.49999   0.26237   0.00000  Uiso   1.00
O49    O     0.02947   0.49999   0.29915   0.00000  Uiso   1.00
B50    B     0.06338   0.49999   0.27824   0.00000  Uiso   1.00
O51    O     0.03555   0.49999   0.22744   0.00000  Uiso   1.00
C52    C     0.80222   0.49999   0.17521   0.00000  Uiso   1.00
C53    C     0.84634   0.49999   0.21931   0.00000  Uiso   1.00
C54    C     0.84123   0.49999   0.26236   0.00000  Uiso   1.00
C55    C     0.79492   0.49999   0.26200   0.00000  Uiso   1.00
C56    C     0.75254   0.49999   0.21974   0.00000  Uiso   1.00
C57    C     0.75557   0.49999   0.17680   0.00000  Uiso   1.00
O58    O     0.71196   0.49999   0.22742   0.00000  Uiso   1.00
B59    B     0.73082   0.49999   0.27821   0.00000  Uiso   1.00
O60    O     0.78396   0.49999   0.29913   0.00000  Uiso   1.00
H61    H     0.72782   0.49999   0.08327   0.00000  Uiso   1.00
H62    H     0.88719   0.49999   0.08328   0.00000  Uiso   1.00
H63    H     0.95158   0.49999   0.14765   0.00000  Uiso   1.00
H64    H     0.93957   0.49999   0.29507   0.00000  Uiso   1.00
H65    H     0.87011   0.49999   0.29507   0.00000  Uiso   1.00
H66    H     0.72259   0.49999   0.14763   0.00000  Uiso   1.00
C67    C     0.73125   0.49999   0.91741   0.00000  Uiso   1.00
C68    C     0.73726   0.49999   0.84245   0.00000  Uiso   1.00
C69    C     0.67936   0.49999   0.89215   0.00000  Uiso   1.00
C70    C     0.75996   0.49999   0.89220   0.00000  Uiso   1.00
C71    C     0.65611   0.49999   0.84218   0.00000  Uiso   1.00
H72    H     0.75894   0.49999   0.82501   0.00000  Uiso   1.00
H73    H     0.65828   0.49999   0.91019   0.00000  Uiso   1.00
H74    H     0.79766   0.49999   0.90982   0.00000  Uiso   1.00
C75    C     0.61021   0.49999   0.74179   0.00000  Uiso   1.00
C76    C     0.60420   0.49999   0.81674   0.00000  Uiso   1.00
C77    C     0.66210   0.49999   0.76704   0.00000  Uiso   1.00
C78    C     0.58150   0.49999   0.76699   0.00000  Uiso   1.00
C79    C     0.68535   0.49999   0.81701   0.00000  Uiso   1.00
H80    H     0.58251   0.49999   0.83418   0.00000  Uiso   1.00
H81    H     0.68318   0.49999   0.74899   0.00000  Uiso   1.00
H82    H     0.54380   0.49999   0.74936   0.00000  Uiso   1.00
C83    C     0.70049   0.49999   0.30475   0.00000  Uiso   1.00
C84    C     0.61942   0.49999   0.30529   0.00000  Uiso   1.00
C85    C     0.72244   0.49999   0.35465   0.00000  Uiso   1.00
C86    C     0.64843   0.49999   0.28036   0.00000  Uiso   1.00
C87    C     0.69379   0.49999   0.37932   0.00000  Uiso   1.00
N88    N     0.77073   0.49999   0.38411   0.00000  Uiso   1.00
S89    S     0.78283   0.49999   0.44171   0.00000  Uiso   1.00
N90    N     0.72185   0.49999   0.42622   0.00000  Uiso   1.00
H91    H     0.58182   0.49999   0.28655   0.00000  Uiso   1.00
H92    H     0.63114   0.49999   0.24418   0.00000  Uiso   1.00
C93    C     0.64179   0.49999   0.35530   0.00000  Uiso   1.00
C94    C     0.11810   0.49999   0.30477   0.00000  Uiso   1.00
C95    C     0.22326   0.49999   0.35534   0.00000  Uiso   1.00
C96    C     0.14771   0.49999   0.28034   0.00000  Uiso   1.00
C97    C     0.19338   0.49999   0.37937   0.00000  Uiso   1.00
C98    C     0.19963   0.49999   0.30534   0.00000  Uiso   1.00
C99    C     0.14204   0.49999   0.35468   0.00000  Uiso   1.00
N100   N     0.20842   0.49999   0.42626   0.00000  Uiso   1.00
S101   S     0.16167   0.49999   0.44174   0.00000  Uiso   1.00
N102   N     0.12083   0.49999   0.38415   0.00000  Uiso   1.00
H103   H     0.13178   0.49999   0.24415   0.00000  Uiso   1.00
H104   H     0.22004   0.49999   0.28664   0.00000  Uiso   1.00
loop_
_geom_bond_atom_site_label_1
_geom_bond_atom_site_label_2
_geom_bond_distance
_geom_bond_site_symmetry_2
_ccdc_geom_bond_type
C1     C2      1.440   .     S
C1     C6      1.431   .     S
C1     C10     1.431   .     D
C2     C3      1.431   .     S
C2     C19     1.431   .     D
C3     C4      1.395   .     D
C3     H28     1.015   .     S
C4     C5      1.382   .     S
C4     O9      1.349   .     S
C5     C6      1.395   .     D
C5     O7      1.350   .     S
C6     H29     1.015   .     S
O7     B8      1.442   .     S
B8     O9      1.442   .     S
B8     C75     1.487   .     S
C10    C11     1.440   .     S
C10    C12     1.431   .     S
C11    C15     1.432   .     S
C11    C20     1.431   .     D
C12    C13     1.394   .     D
C12    H30     1.015   .     S
C13    C14     1.382   .     S
C13    O18     1.348   .     S
C14    C15     1.395   .     D
C14    O16     1.350   .     S
C15    H31     1.015   .     S
O16    B17     1.442   .     S
B17    O18     1.442   .     S
B17    C95     1.488   .     S
C19    C20     1.440   .     S
C19    C24     1.431   .     S
C20    C21     1.432   .     S
C21    C22     1.395   .     D
C21    H32     1.015   .     S
C22    C23     1.382   .     S
C22    O27     1.350   .     S
C23    C24     1.394   .     D
C23    O25     1.348   .     S
C24    H33     1.015   .     S
O25    B26     1.442   .     S
B26    O27     1.442   .     S
B26    C93     1.488   .     S
C34    C35     1.440   .     D
C34    C39     1.431   .     S
C34    C43     1.431   .     S
C35    C36     1.431   .     S
C35    C52     1.431   .     S
C36    C37     1.395   .     D
C36    H61     1.015   .     S
C37    C38     1.382   .     S
C37    O42     1.349   1_554 S
C38    C39     1.395   .     D
C38    O40     1.350   1_554 S
C39    H62     1.015   .     S
O40    C38     1.350   1_556 S
O40    B41     1.442   .     S
B41    O42     1.442   .     S
B41    C67     1.487   .     S
O42    C37     1.349   1_556 S
C43    C44     1.440   .     D
C43    C45     1.432   .     S
C44    C48     1.431   .     S
C44    C53     1.431   .     S
C45    C46     1.395   .     D
C45    H63     1.015   .     S
C46    C47     1.381   .     S
C46    O51     1.350   1_655 S
C47    C48     1.394   .     D
C47    O49     1.348   1_655 S
C48    H64     1.015   .     S
O49    C47     1.348   1_455 S
O49    B50     1.442   .     S
B50    O51     1.442   .     S
B50    C94     1.488   .     S
O51    C46     1.350   1_455 S
C52    C53     1.440   .     D
C52    C57     1.432   .     S
C53    C54     1.431   .     S
C54    C55     1.394   .     D
C54    H65     1.015   .     S
C55    C56     1.381   .     S
C55    O60     1.348   .     S
C56    C57     1.395   .     D
C56    O58     1.350   .     S
C57    H66     1.015   .     S
O58    B59     1.442   .     S
B59    O60     1.442   .     S
B59    C83     1.488   .     S
C67    C69     1.411   .     D
C67    C70     1.410   .     S
C68    C70     1.406   .     D
C68    H72     1.024   .     S
C68    C79     1.412   .     S
C69    C71     1.413   .     S
C69    H73     1.024   .     S
C70    H74     1.024   .     S
C71    C76     1.412   .     S
C71    C79     1.423   .     D
C75    C77     1.411   .     D
C75    C78     1.410   .     S
C76    C78     1.406   .     D
C76    H80     1.024   .     S
C77    C79     1.413   .     S
C77    H81     1.024   .     S
C78    H82     1.024   .     S
C83    C85     1.411   .     S
C83    C86     1.414   .     D
C84    C86     1.411   .     S
C84    H91     1.023   .     S
C84    C93     1.414   .     D
C85    C87     1.395   .     S
C85    N88     1.340   .     D
C86    H92     1.023   .     S
C87    N90     1.340   .     D
C87    C93     1.411   .     S
N88    S89     1.685   .     S
S89    N90     1.685   .     S
C94    C96     1.414   .     D
C94    C99     1.411   .     S
C95    C97     1.411   .     S
C95    C98     1.413   .     D
C96    C98     1.411   .     S
C96    H103    1.023   .     S
C97    C99     1.395   .     S
C97    N100    1.340   .     D
C98    H104    1.023   .     S
C99    N102    1.340   .     D
N100   S101    1.685   .     S
S101   N102    1.685   .     S
