data_31
_audit_creation_date              2023-09-08
_audit_creation_method            'Materials Studio'
_symmetry_space_group_name_H-M    'P1'
_symmetry_Int_Tables_number       1
_symmetry_cell_setting            triclinic
loop_
_symmetry_equiv_pos_as_xyz
  x,y,z
_cell_length_a                    35.5280
_cell_length_b                    35.5280
_cell_length_c                    3.3980
_cell_angle_alpha                 90.0000
_cell_angle_beta                  90.0000
_cell_angle_gamma                 120.0000
loop_
_atom_site_label
_atom_site_type_symbol
_atom_site_fract_x
_atom_site_fract_y
_atom_site_fract_z
_atom_site_U_iso_or_equiv
_atom_site_adp_type
_atom_site_occupancy
H1     H     0.03993   0.58096   0.00000   0.00000  Uiso   1.00
H2     H     0.41904   0.45897   0.00000   0.00000  Uiso   1.00
H3     H     0.54103   0.96007   0.00000   0.00000  Uiso   1.00
H4     H     0.96007   0.41904   0.00000   0.00000  Uiso   1.00
H5     H     0.58096   0.54103   0.00000   0.00000  Uiso   1.00
H6     H     0.45897   0.03993   0.00000   0.00000  Uiso   1.00
H7     H     0.58096   0.03993   0.00000   0.00000  Uiso   1.00
H8     H     0.45897   0.41904   0.00000   0.00000  Uiso   1.00
H9     H     0.96007   0.54103   0.00000   0.00000  Uiso   1.00
H10    H     0.41904   0.96007   0.00000   0.00000  Uiso   1.00
H11    H     0.54103   0.58096   0.00000   0.00000  Uiso   1.00
H12    H     0.03993   0.45897   0.00000   0.00000  Uiso   1.00
C13    C     0.02280   0.54563   0.00000   0.00000  Uiso   1.00
C14    C     0.45437   0.47717   0.00000   0.00000  Uiso   1.00
C15    C     0.52283   0.97720   0.00000   0.00000  Uiso   1.00
C16    C     0.97720   0.45437   0.00000   0.00000  Uiso   1.00
C17    C     0.54563   0.52283   0.00000   0.00000  Uiso   1.00
C18    C     0.47717   0.02280   0.00000   0.00000  Uiso   1.00
C19    C     0.54563   0.02280   0.00000   0.00000  Uiso   1.00
C20    C     0.47717   0.45437   0.00000   0.00000  Uiso   1.00
C21    C     0.97720   0.52283   0.00000   0.00000  Uiso   1.00
C22    C     0.45437   0.97720   0.00000   0.00000  Uiso   1.00
C23    C     0.52283   0.54563   0.00000   0.00000  Uiso   1.00
C24    C     0.02280   0.47717   0.00000   0.00000  Uiso   1.00
O25    O     0.12285   0.59611   0.00000   0.00000  Uiso   1.00
O26    O     0.40389   0.52674   0.00000   0.00000  Uiso   1.00
O27    O     0.47326   0.87715   0.00000   0.00000  Uiso   1.00
O28    O     0.87715   0.40389   0.00000   0.00000  Uiso   1.00
O29    O     0.59611   0.47326   0.00000   0.00000  Uiso   1.00
O30    O     0.52674   0.12285   0.00000   0.00000  Uiso   1.00
O31    O     0.59611   0.12285   0.00000   0.00000  Uiso   1.00
O32    O     0.52674   0.40389   0.00000   0.00000  Uiso   1.00
O33    O     0.87715   0.47326   0.00000   0.00000  Uiso   1.00
O34    O     0.40389   0.87715   0.00000   0.00000  Uiso   1.00
O35    O     0.47326   0.59611   0.00000   0.00000  Uiso   1.00
O36    O     0.12285   0.52674   0.00000   0.00000  Uiso   1.00
C37    C     0.16443   0.60164   0.00000   0.00000  Uiso   1.00
C38    C     0.39836   0.56279   0.00000   0.00000  Uiso   1.00
C39    C     0.43721   0.83557   0.00000   0.00000  Uiso   1.00
C40    C     0.83557   0.39836   0.00000   0.00000  Uiso   1.00
C41    C     0.60164   0.43721   0.00000   0.00000  Uiso   1.00
C42    C     0.56279   0.16443   0.00000   0.00000  Uiso   1.00
C43    C     0.60164   0.16443   0.00000   0.00000  Uiso   1.00
C44    C     0.56279   0.39836   0.00000   0.00000  Uiso   1.00
C45    C     0.83557   0.43721   0.00000   0.00000  Uiso   1.00
C46    C     0.39836   0.83557   0.00000   0.00000  Uiso   1.00
C47    C     0.43721   0.60164   0.00000   0.00000  Uiso   1.00
C48    C     0.16443   0.56279   0.00000   0.00000  Uiso   1.00
C49    C     0.20323   0.64152   0.00000   0.00000  Uiso   1.00
C50    C     0.35848   0.56171   0.00000   0.00000  Uiso   1.00
C51    C     0.43829   0.79677   0.00000   0.00000  Uiso   1.00
C52    C     0.79677   0.35848   0.00000   0.00000  Uiso   1.00
C53    C     0.64152   0.43829   0.00000   0.00000  Uiso   1.00
C54    C     0.56171   0.20323   0.00000   0.00000  Uiso   1.00
C55    C     0.64152   0.20323   0.00000   0.00000  Uiso   1.00
C56    C     0.56171   0.35848   0.00000   0.00000  Uiso   1.00
C57    C     0.79677   0.43829   0.00000   0.00000  Uiso   1.00
C58    C     0.35848   0.79677   0.00000   0.00000  Uiso   1.00
C59    C     0.43829   0.64152   0.00000   0.00000  Uiso   1.00
C60    C     0.20323   0.56171   0.00000   0.00000  Uiso   1.00
H61    H     0.20249   0.67173   0.00000   0.00000  Uiso   1.00
H62    H     0.32827   0.53076   0.00000   0.00000  Uiso   1.00
H63    H     0.46924   0.79751   0.00000   0.00000  Uiso   1.00
H64    H     0.79751   0.32827   0.00000   0.00000  Uiso   1.00
H65    H     0.67173   0.46924   0.00000   0.00000  Uiso   1.00
H66    H     0.53076   0.20249   0.00000   0.00000  Uiso   1.00
H67    H     0.67173   0.20249   0.00000   0.00000  Uiso   1.00
H68    H     0.53076   0.32827   0.00000   0.00000  Uiso   1.00
H69    H     0.79751   0.46924   0.00000   0.00000  Uiso   1.00
H70    H     0.32827   0.79751   0.00000   0.00000  Uiso   1.00
H71    H     0.46924   0.67173   0.00000   0.00000  Uiso   1.00
H72    H     0.20249   0.53076   0.00000   0.00000  Uiso   1.00
C73    C     0.24298   0.64154   0.00000   0.00000  Uiso   1.00
C74    C     0.35846   0.60144   0.00000   0.00000  Uiso   1.00
C75    C     0.39856   0.75702   0.00000   0.00000  Uiso   1.00
C76    C     0.75702   0.35846   0.00000   0.00000  Uiso   1.00
C77    C     0.64154   0.39856   0.00000   0.00000  Uiso   1.00
C78    C     0.60144   0.24298   0.00000   0.00000  Uiso   1.00
C79    C     0.64154   0.24298   0.00000   0.00000  Uiso   1.00
C80    C     0.60144   0.35846   0.00000   0.00000  Uiso   1.00
C81    C     0.75702   0.39856   0.00000   0.00000  Uiso   1.00
C82    C     0.35846   0.75702   0.00000   0.00000  Uiso   1.00
C83    C     0.39856   0.64154   0.00000   0.00000  Uiso   1.00
C84    C     0.24298   0.60144   0.00000   0.00000  Uiso   1.00
C85    C     0.28330   0.68267   0.00000   0.00000  Uiso   1.00
C86    C     0.31733   0.60063   0.00000   0.00000  Uiso   1.00
C87    C     0.39937   0.71670   0.00000   0.00000  Uiso   1.00
C88    C     0.71670   0.31733   0.00000   0.00000  Uiso   1.00
C89    C     0.68267   0.39937   0.00000   0.00000  Uiso   1.00
C90    C     0.60063   0.28330   0.00000   0.00000  Uiso   1.00
C91    C     0.68267   0.28330   0.00000   0.00000  Uiso   1.00
C92    C     0.60063   0.31733   0.00000   0.00000  Uiso   1.00
C93    C     0.71670   0.39937   0.00000   0.00000  Uiso   1.00
C94    C     0.31733   0.71670   0.00000   0.00000  Uiso   1.00
C95    C     0.39937   0.68267   0.00000   0.00000  Uiso   1.00
C96    C     0.28330   0.60063   0.00000   0.00000  Uiso   1.00
C97    C     0.04583   0.52292   0.00000   0.00000  Uiso   1.00
C98    C     0.47709   0.52292   0.00000   0.00000  Uiso   1.00
C99    C     0.47709   0.95417   0.00000   0.00000  Uiso   1.00
C100   C     0.95417   0.47709   0.00000   0.00000  Uiso   1.00
C101   C     0.52292   0.47709   0.00000   0.00000  Uiso   1.00
C102   C     0.52292   0.04583   0.00000   0.00000  Uiso   1.00
B103   B     0.09679   0.54840   0.00000   0.00000  Uiso   1.00
B104   B     0.45161   0.54840   0.00000   0.00000  Uiso   1.00
B105   B     0.45161   0.90321   0.00000   0.00000  Uiso   1.00
B106   B     0.90321   0.45161   0.00000   0.00000  Uiso   1.00
B107   B     0.54840   0.45161   0.00000   0.00000  Uiso   1.00
B108   B     0.54840   0.09679   0.00000   0.00000  Uiso   1.00
loop_
_geom_bond_atom_site_label_1
_geom_bond_atom_site_label_2
_geom_bond_distance
_geom_bond_site_symmetry_2
_ccdc_geom_bond_type
H1     C13     1.087   .     S
H2     C14     1.087   .     S
H3     C15     1.087   .     S
H4     C16     1.087   .     S
H5     C17     1.087   .     S
H6     C18     1.087   .     S
H7     C19     1.087   .     S
H8     C20     1.087   .     S
H9     C21     1.087   .     S
H10    C22     1.087   .     S
H11    C23     1.087   .     S
H12    C24     1.087   .     S
C13    C21     1.403   1_455 S
C13    C97     1.407   .     D
C14    C20     1.403   .     S
C14    C98     1.408   .     D
C15    C19     1.403   1_565 D
C15    C99     1.408   .     S
C16    C24     1.403   1_655 D
C16    C100    1.408   .     S
C17    C23     1.403   .     D
C17    C101    1.408   .     S
C18    C22     1.403   1_545 S
C18    C102    1.408   .     D
C19    C15     1.403   1_545 D
C19    C102    1.408   .     S
C20    C101    1.408   .     D
C21    C13     1.403   1_655 S
C21    C100    1.408   .     D
C22    C18     1.403   1_565 S
C22    C99     1.408   .     D
C23    C98     1.408   .     S
C24    C16     1.403   1_455 D
C24    C97     1.408   .     S
O25    C37     1.389   .     S
O25    B103    1.470   .     S
O26    C38     1.389   .     S
O26    B104    1.470   .     S
O27    C39     1.389   .     S
O27    B105    1.470   .     S
O28    C40     1.389   .     S
O28    B106    1.470   .     S
O29    C41     1.389   .     S
O29    B107    1.470   .     S
O30    C42     1.389   .     S
O30    B108    1.470   .     S
O31    C43     1.389   .     S
O31    B108    1.470   .     S
O32    C44     1.389   .     S
O32    B107    1.470   .     S
O33    C45     1.389   .     S
O33    B106    1.470   .     S
O34    C46     1.389   .     S
O34    B105    1.470   .     S
O35    C47     1.389   .     S
O35    B104    1.470   .     S
O36    C48     1.389   .     S
O36    B103    1.470   .     S
C37    C48     1.380   .     S
C37    C49     1.398   .     D
C38    C47     1.380   .     S
C38    C50     1.398   .     D
C39    C46     1.380   .     S
C39    C51     1.398   .     D
C40    C45     1.380   .     S
C40    C52     1.398   .     D
C41    C44     1.380   .     S
C41    C53     1.398   .     D
C42    C43     1.380   .     S
C42    C54     1.398   .     D
C43    C55     1.398   .     D
C44    C56     1.398   .     D
C45    C57     1.398   .     D
C46    C58     1.398   .     D
C47    C59     1.398   .     D
C48    C60     1.398   .     D
C49    H61     1.087   .     S
C49    C73     1.412   .     S
C50    H62     1.087   .     S
C50    C74     1.412   .     S
C51    H63     1.087   .     S
C51    C75     1.412   .     S
C52    H64     1.087   .     S
C52    C76     1.412   .     S
C53    H65     1.087   .     S
C53    C77     1.412   .     S
C54    H66     1.087   .     S
C54    C78     1.412   .     S
C55    H67     1.087   .     S
C55    C79     1.412   .     S
C56    H68     1.087   .     S
C56    C80     1.412   .     S
C57    H69     1.087   .     S
C57    C81     1.412   .     S
C58    H70     1.087   .     S
C58    C82     1.412   .     S
C59    H71     1.087   .     S
C59    C83     1.412   .     S
C60    H72     1.087   .     S
C60    C84     1.412   .     S
C73    C84     1.425   .     S
C73    C85     1.447   .     D
C74    C83     1.425   .     S
C74    C86     1.447   .     D
C75    C82     1.425   .     S
C75    C87     1.447   .     D
C76    C81     1.425   .     S
C76    C88     1.447   .     D
C77    C80     1.425   .     S
C77    C89     1.447   .     D
C78    C79     1.425   .     S
C78    C90     1.447   .     D
C79    C91     1.447   .     D
C80    C92     1.447   .     D
C81    C93     1.447   .     D
C82    C94     1.447   .     D
C83    C95     1.447   .     D
C84    C96     1.447   .     D
C85    C94     1.209   .     D
C86    C96     1.209   .     D
C87    C95     1.209   .     D
C88    C91     1.209   .     D
C89    C93     1.209   .     D
C90    C92     1.209   .     D
C97    B103    1.568   .     S
C98    B104    1.568   .     S
C99    B105    1.568   .     S
C100   B106    1.568   .     S
C101   B107    1.568   .     S
C102   B108    1.568   .     S
