data_310
_audit_creation_date              2023-09-08
_audit_creation_method            'Materials Studio'
_symmetry_space_group_name_H-M    'P1'
_symmetry_Int_Tables_number       1
_symmetry_cell_setting            triclinic
loop_
_symmetry_equiv_pos_as_xyz
  x,y,z
_cell_length_a                    29.6894
_cell_length_b                    29.6894
_cell_length_c                    3.7043
_cell_angle_alpha                 90.0000
_cell_angle_beta                  90.0000
_cell_angle_gamma                 120.0000
loop_
_atom_site_label
_atom_site_type_symbol
_atom_site_fract_x
_atom_site_fract_y
_atom_site_fract_z
_atom_site_U_iso_or_equiv
_atom_site_adp_type
_atom_site_occupancy
N1     N     0.39110   0.57952   0.14232   0.00000  Uiso   1.00
C2     C     0.31725   0.61374   0.15679   0.00000  Uiso   1.00
C3     C     0.40897   0.63137   0.11667   0.00000  Uiso   1.00
C4     C     0.42151   0.55812   0.08772   0.00000  Uiso   1.00
C5     C     0.47428   0.58966  -0.01131   0.00000  Uiso   1.00
C6     C     0.50303   0.56487  -0.09451   0.00000  Uiso   1.00
C7     C     0.48276   0.51157  -0.02369   0.00000  Uiso   1.00
C8     C     0.43065   0.48169   0.08686   0.00000  Uiso   1.00
C9     C     0.39999   0.50458   0.13111   0.00000  Uiso   1.00
C10    C     0.37080   0.65029   0.15146   0.00000  Uiso   1.00
C11    C     0.49569   0.64459  -0.01996   0.00000  Uiso   1.00
C12    C     0.46212   0.66455   0.04369   0.00000  Uiso   1.00
C13    C     0.55256   0.68276  -0.07046   0.00000  Uiso   1.00
C14    C     0.59117   0.67499   0.09146   0.00000  Uiso   1.00
C15    C     0.62134   0.76763  -0.27942   0.00000  Uiso   1.00
C16    C     0.65896   0.75819  -0.13010   0.00000  Uiso   1.00
C17    C     0.64389   0.71164   0.05162   0.00000  Uiso   1.00
C18    C     0.56868   0.73003  -0.25507   0.00000  Uiso   1.00
H19    H     0.30559   0.57314   0.15907   0.00000  Uiso   1.00
H20    H     0.54135   0.58648  -0.21098   0.00000  Uiso   1.00
H21    H     0.41373   0.44083   0.15024   0.00000  Uiso   1.00
H22    H     0.35979   0.48082   0.21354   0.00000  Uiso   1.00
H23    H     0.47822   0.70599   0.03960   0.00000  Uiso   1.00
H24    H     0.58084   0.64153   0.26012   0.00000  Uiso   1.00
H25    H     0.63302   0.80367  -0.42153   0.00000  Uiso   1.00
H26    H     0.69976   0.78701  -0.15399   0.00000  Uiso   1.00
H27    H     0.67301   0.70478   0.17428   0.00000  Uiso   1.00
H28    H     0.54073   0.73790  -0.38552   0.00000  Uiso   1.00
N29    N     0.42048   0.81158   0.14232   0.00000  Uiso   1.00
C30    C     0.38626   0.70351   0.15679   0.00000  Uiso   1.00
C31    C     0.36863   0.77760   0.11667   0.00000  Uiso   1.00
C32    C     0.44188   0.86339   0.08772   0.00000  Uiso   1.00
C33    C     0.41034   0.88462  -0.01131   0.00000  Uiso   1.00
C34    C     0.43513   0.93816  -0.09451   0.00000  Uiso   1.00
C35    C     0.48843   0.97119  -0.02369   0.00000  Uiso   1.00
C36    C     0.51831   0.94896   0.08686   0.00000  Uiso   1.00
C37    C     0.49542   0.89541   0.13111   0.00000  Uiso   1.00
C38    C     0.34971   0.72051   0.15146   0.00000  Uiso   1.00
C39    C     0.35541   0.85110  -0.01996   0.00000  Uiso   1.00
C40    C     0.33545   0.79757   0.04369   0.00000  Uiso   1.00
C41    C     0.31724   0.86980  -0.07046   0.00000  Uiso   1.00
C42    C     0.32501   0.91618   0.09146   0.00000  Uiso   1.00
C43    C     0.23237   0.85371  -0.27942   0.00000  Uiso   1.00
C44    C     0.24181   0.90077  -0.13010   0.00000  Uiso   1.00
C45    C     0.28836   0.93225   0.05162   0.00000  Uiso   1.00
C46    C     0.26997   0.83865  -0.25507   0.00000  Uiso   1.00
H47    H     0.42686   0.73245   0.15907   0.00000  Uiso   1.00
H48    H     0.41352   0.95487  -0.21098   0.00000  Uiso   1.00
H49    H     0.55917   0.97290   0.15024   0.00000  Uiso   1.00
H50    H     0.51918   0.87897   0.21354   0.00000  Uiso   1.00
H51    H     0.29401   0.77223   0.03960   0.00000  Uiso   1.00
H52    H     0.35847   0.93931   0.26012   0.00000  Uiso   1.00
H53    H     0.19633   0.82935  -0.42153   0.00000  Uiso   1.00
H54    H     0.21299   0.91275  -0.15399   0.00000  Uiso   1.00
H55    H     0.29522   0.96823   0.17428   0.00000  Uiso   1.00
H56    H     0.26210   0.80283  -0.38552   0.00000  Uiso   1.00
N57    N     0.18842   0.60890   0.14232   0.00000  Uiso   1.00
C58    C     0.29649   0.68275   0.15679   0.00000  Uiso   1.00
C59    C     0.22240   0.59103   0.11667   0.00000  Uiso   1.00
C60    C     0.13661   0.57849   0.08772   0.00000  Uiso   1.00
C61    C     0.11538   0.52572  -0.01131   0.00000  Uiso   1.00
C62    C     0.06184   0.49697  -0.09451   0.00000  Uiso   1.00
C63    C     0.02881   0.51724  -0.02369   0.00000  Uiso   1.00
C64    C     0.05104   0.56935   0.08686   0.00000  Uiso   1.00
C65    C     0.10459   0.60001   0.13111   0.00000  Uiso   1.00
C66    C     0.27949   0.62920   0.15146   0.00000  Uiso   1.00
C67    C     0.14890   0.50431  -0.01996   0.00000  Uiso   1.00
C68    C     0.20243   0.53788   0.04369   0.00000  Uiso   1.00
C69    C     0.13020   0.44744  -0.07046   0.00000  Uiso   1.00
C70    C     0.08382   0.40883   0.09146   0.00000  Uiso   1.00
C71    C     0.14629   0.37866  -0.27942   0.00000  Uiso   1.00
C72    C     0.09923   0.34104  -0.13010   0.00000  Uiso   1.00
C73    C     0.06775   0.35611   0.05162   0.00000  Uiso   1.00
C74    C     0.16135   0.43132  -0.25507   0.00000  Uiso   1.00
H75    H     0.26755   0.69441   0.15907   0.00000  Uiso   1.00
H76    H     0.04513   0.45865  -0.21098   0.00000  Uiso   1.00
H77    H     0.02710   0.58627   0.15024   0.00000  Uiso   1.00
H78    H     0.12103   0.64021   0.21354   0.00000  Uiso   1.00
H79    H     0.22777   0.52178   0.03960   0.00000  Uiso   1.00
H80    H     0.06069   0.41916   0.26012   0.00000  Uiso   1.00
H81    H     0.17065   0.36698  -0.42153   0.00000  Uiso   1.00
H82    H     0.08725   0.30024  -0.15399   0.00000  Uiso   1.00
H83    H     0.03177   0.32699   0.17428   0.00000  Uiso   1.00
H84    H     0.19717   0.45927  -0.38552   0.00000  Uiso   1.00
N85    N     0.60890   0.42048   0.14232   0.00000  Uiso   1.00
C86    C     0.68275   0.38626   0.15679   0.00000  Uiso   1.00
C87    C     0.59103   0.36863   0.11667   0.00000  Uiso   1.00
C88    C     0.57849   0.44188   0.08772   0.00000  Uiso   1.00
C89    C     0.52572   0.41034  -0.01131   0.00000  Uiso   1.00
C90    C     0.49697   0.43513  -0.09451   0.00000  Uiso   1.00
C91    C     0.51724   0.48843  -0.02369   0.00000  Uiso   1.00
C92    C     0.56935   0.51831   0.08686   0.00000  Uiso   1.00
C93    C     0.60001   0.49542   0.13111   0.00000  Uiso   1.00
C94    C     0.62920   0.34971   0.15146   0.00000  Uiso   1.00
C95    C     0.50431   0.35541  -0.01996   0.00000  Uiso   1.00
C96    C     0.53788   0.33545   0.04369   0.00000  Uiso   1.00
C97    C     0.44744   0.31724  -0.07046   0.00000  Uiso   1.00
C98    C     0.40883   0.32501   0.09146   0.00000  Uiso   1.00
C99    C     0.37866   0.23237  -0.27942   0.00000  Uiso   1.00
C100   C     0.34104   0.24181  -0.13010   0.00000  Uiso   1.00
C101   C     0.35611   0.28836   0.05162   0.00000  Uiso   1.00
C102   C     0.43132   0.26997  -0.25507   0.00000  Uiso   1.00
H103   H     0.69441   0.42686   0.15907   0.00000  Uiso   1.00
H104   H     0.45865   0.41352  -0.21098   0.00000  Uiso   1.00
H105   H     0.58627   0.55917   0.15024   0.00000  Uiso   1.00
H106   H     0.64021   0.51918   0.21354   0.00000  Uiso   1.00
H107   H     0.52178   0.29401   0.03960   0.00000  Uiso   1.00
H108   H     0.41916   0.35847   0.26012   0.00000  Uiso   1.00
H109   H     0.36698   0.19633  -0.42153   0.00000  Uiso   1.00
H110   H     0.30024   0.21299  -0.15399   0.00000  Uiso   1.00
H111   H     0.32699   0.29522   0.17428   0.00000  Uiso   1.00
H112   H     0.45927   0.26210  -0.38552   0.00000  Uiso   1.00
N113   N     0.57952   0.18842   0.14232   0.00000  Uiso   1.00
C114   C     0.61374   0.29649   0.15679   0.00000  Uiso   1.00
C115   C     0.63137   0.22240   0.11667   0.00000  Uiso   1.00
C116   C     0.55812   0.13661   0.08772   0.00000  Uiso   1.00
C117   C     0.58966   0.11538  -0.01131   0.00000  Uiso   1.00
C118   C     0.56487   0.06184  -0.09451   0.00000  Uiso   1.00
C119   C     0.51157   0.02881  -0.02369   0.00000  Uiso   1.00
C120   C     0.48169   0.05104   0.08686   0.00000  Uiso   1.00
C121   C     0.50458   0.10459   0.13111   0.00000  Uiso   1.00
C122   C     0.65029   0.27949   0.15146   0.00000  Uiso   1.00
C123   C     0.64459   0.14890  -0.01996   0.00000  Uiso   1.00
C124   C     0.66455   0.20243   0.04369   0.00000  Uiso   1.00
C125   C     0.68276   0.13020  -0.07046   0.00000  Uiso   1.00
C126   C     0.67499   0.08382   0.09146   0.00000  Uiso   1.00
C127   C     0.76763   0.14629  -0.27942   0.00000  Uiso   1.00
C128   C     0.75819   0.09923  -0.13010   0.00000  Uiso   1.00
C129   C     0.71164   0.06775   0.05162   0.00000  Uiso   1.00
C130   C     0.73003   0.16135  -0.25507   0.00000  Uiso   1.00
H131   H     0.57314   0.26755   0.15907   0.00000  Uiso   1.00
H132   H     0.58648   0.04513  -0.21098   0.00000  Uiso   1.00
H133   H     0.44083   0.02710   0.15024   0.00000  Uiso   1.00
H134   H     0.48082   0.12103   0.21354   0.00000  Uiso   1.00
H135   H     0.70599   0.22777   0.03960   0.00000  Uiso   1.00
H136   H     0.64153   0.06069   0.26012   0.00000  Uiso   1.00
H137   H     0.80367   0.17065  -0.42153   0.00000  Uiso   1.00
H138   H     0.78701   0.08725  -0.15399   0.00000  Uiso   1.00
H139   H     0.70478   0.03177   0.17428   0.00000  Uiso   1.00
H140   H     0.73790   0.19717  -0.38552   0.00000  Uiso   1.00
N141   N     0.81158   0.39110   0.14232   0.00000  Uiso   1.00
C142   C     0.70351   0.31725   0.15679   0.00000  Uiso   1.00
C143   C     0.77760   0.40897   0.11667   0.00000  Uiso   1.00
C144   C     0.86339   0.42151   0.08772   0.00000  Uiso   1.00
C145   C     0.88462   0.47428  -0.01131   0.00000  Uiso   1.00
C146   C     0.93816   0.50303  -0.09451   0.00000  Uiso   1.00
C147   C     0.97119   0.48276  -0.02369   0.00000  Uiso   1.00
C148   C     0.94896   0.43065   0.08686   0.00000  Uiso   1.00
C149   C     0.89541   0.39999   0.13111   0.00000  Uiso   1.00
C150   C     0.72051   0.37080   0.15146   0.00000  Uiso   1.00
C151   C     0.85110   0.49569  -0.01996   0.00000  Uiso   1.00
C152   C     0.79757   0.46212   0.04369   0.00000  Uiso   1.00
C153   C     0.86980   0.55256  -0.07046   0.00000  Uiso   1.00
C154   C     0.91618   0.59117   0.09146   0.00000  Uiso   1.00
C155   C     0.85371   0.62134  -0.27942   0.00000  Uiso   1.00
C156   C     0.90077   0.65896  -0.13010   0.00000  Uiso   1.00
C157   C     0.93225   0.64389   0.05162   0.00000  Uiso   1.00
C158   C     0.83865   0.56868  -0.25507   0.00000  Uiso   1.00
H159   H     0.73245   0.30559   0.15907   0.00000  Uiso   1.00
H160   H     0.95487   0.54135  -0.21098   0.00000  Uiso   1.00
H161   H     0.97290   0.41373   0.15024   0.00000  Uiso   1.00
H162   H     0.87897   0.35979   0.21354   0.00000  Uiso   1.00
H163   H     0.77223   0.47822   0.03960   0.00000  Uiso   1.00
H164   H     0.93931   0.58084   0.26012   0.00000  Uiso   1.00
H165   H     0.82935   0.63302  -0.42153   0.00000  Uiso   1.00
H166   H     0.91275   0.69976  -0.15399   0.00000  Uiso   1.00
H167   H     0.96823   0.67301   0.17428   0.00000  Uiso   1.00
H168   H     0.80283   0.54073  -0.38552   0.00000  Uiso   1.00
loop_
_geom_bond_atom_site_label_1
_geom_bond_atom_site_label_2
_geom_bond_distance
_geom_bond_site_symmetry_2
_ccdc_geom_bond_type
N1     C3      1.358   .     S
N1     C4      1.354   .     D
C2     C10     1.407   .     S
C2     H19     1.075   .     S
C2     C66     1.408   .     D
C3     C10     1.501   .     S
C3     C12     1.407   .     D
C4     C5      1.414   .     S
C4     C9      1.395   .     S
C5     C6      1.412   .     S
C5     C11     1.424   .     D
C6     C7      1.408   .     D
C6     H20     1.078   .     S
C7     C8      1.406   .     S
C7     C91     1.491   .     S
C8     C9      1.391   .     D
C8     H21     1.082   .     S
C9     H22     1.083   .     S
C10    C30     1.408   .     D
C11    C12     1.411   .     S
C11    C13     1.502   .     S
C12    H23     1.074   .     S
C13    C14     1.411   .     D
C13    C18     1.412   .     S
C14    C17     1.397   .     S
C14    H24     1.080   .     S
C15    C16     1.395   .     S
C15    C18     1.398   .     D
C15    H25     1.082   .     S
C16    C17     1.395   .     D
C16    H26     1.082   .     S
C17    H27     1.082   .     S
C18    H28     1.082   .     S
N29    C31     1.358   .     D
N29    C32     1.354   .     S
C30    C38     1.407   .     S
C30    H47     1.075   .     S
C31    C38     1.501   .     S
C31    C40     1.407   .     S
C32    C33     1.414   .     D
C32    C37     1.395   .     S
C33    C34     1.412   .     S
C33    C39     1.424   .     S
C34    C35     1.408   .     D
C34    H48     1.078   .     S
C35    C36     1.406   .     S
C35    C119    1.491   1_565 S
C36    C37     1.391   .     D
C36    H49     1.082   .     S
C37    H50     1.083   .     S
C38    C58     1.408   .     D
C39    C40     1.411   .     D
C39    C41     1.502   .     S
C40    H51     1.074   .     S
C41    C42     1.411   .     D
C41    C46     1.412   .     S
C42    C45     1.397   .     S
C42    H52     1.080   .     S
C43    C44     1.395   .     S
C43    C46     1.398   .     D
C43    H53     1.082   .     S
C44    C45     1.395   .     D
C44    H54     1.082   .     S
C45    H55     1.082   .     S
C46    H56     1.082   .     S
N57    C59     1.358   .     D
N57    C60     1.354   .     S
C58    C66     1.407   .     S
C58    H75     1.075   .     S
C59    C66     1.501   .     S
C59    C68     1.407   .     S
C60    C61     1.414   .     D
C60    C65     1.395   .     S
C61    C62     1.412   .     S
C61    C67     1.424   .     S
C62    C63     1.408   .     D
C62    H76     1.078   .     S
C63    C64     1.406   .     S
C63    C147    1.491   1_455 S
C64    C65     1.391   .     D
C64    H77     1.082   .     S
C65    H78     1.083   .     S
C67    C68     1.411   .     D
C67    C69     1.502   .     S
C68    H79     1.074   .     S
C69    C70     1.411   .     D
C69    C74     1.412   .     S
C70    C73     1.397   .     S
C70    H80     1.080   .     S
C71    C72     1.395   .     S
C71    C74     1.398   .     D
C71    H81     1.082   .     S
C72    C73     1.395   .     D
C72    H82     1.082   .     S
C73    H83     1.082   .     S
C74    H84     1.082   .     S
N85    C87     1.358   .     D
N85    C88     1.354   .     S
C86    C94     1.407   .     D
C86    H103    1.075   .     S
C86    C150    1.408   .     S
C87    C94     1.501   .     S
C87    C96     1.407   .     S
C88    C89     1.414   .     D
C88    C93     1.395   .     S
C89    C90     1.412   .     S
C89    C95     1.424   .     S
C90    C91     1.408   .     D
C90    H104    1.078   .     S
C91    C92     1.406   .     S
C92    C93     1.391   .     D
C92    H105    1.082   .     S
C93    H106    1.083   .     S
C94    C114    1.408   .     S
C95    C96     1.411   .     D
C95    C97     1.502   .     S
C96    H107    1.074   .     S
C97    C98     1.411   .     D
C97    C102    1.412   .     S
C98    C101    1.397   .     S
C98    H108    1.080   .     S
C99    C100    1.395   .     S
C99    C102    1.398   .     D
C99    H109    1.082   .     S
C100   C101    1.395   .     D
C100   H110    1.082   .     S
C101   H111    1.082   .     S
C102   H112    1.082   .     S
N113   C115    1.358   .     S
N113   C116    1.354   .     D
C114   C122    1.407   .     D
C114   H131    1.075   .     S
C115   C122    1.501   .     S
C115   C124    1.407   .     D
C116   C117    1.414   .     S
C116   C121    1.395   .     S
C117   C118    1.412   .     S
C117   C123    1.424   .     D
C118   C119    1.408   .     D
C118   H132    1.078   .     S
C119   C35     1.491   1_545 S
C119   C120    1.406   .     S
C120   C121    1.391   .     D
C120   H133    1.082   .     S
C121   H134    1.083   .     S
C122   C142    1.408   .     S
C123   C124    1.411   .     S
C123   C125    1.502   .     S
C124   H135    1.074   .     S
C125   C126    1.411   .     S
C125   C130    1.412   .     D
C126   C129    1.397   .     D
C126   H136    1.080   .     S
C127   C128    1.395   .     D
C127   C130    1.398   .     S
C127   H137    1.082   .     S
C128   C129    1.395   .     S
C128   H138    1.082   .     S
C129   H139    1.082   .     S
C130   H140    1.082   .     S
N141   C143    1.358   .     D
N141   C144    1.354   .     S
C142   C150    1.407   .     D
C142   H159    1.075   .     S
C143   C150    1.501   .     S
C143   C152    1.407   .     S
C144   C145    1.414   .     D
C144   C149    1.395   .     S
C145   C146    1.412   .     S
C145   C151    1.424   .     S
C146   C147    1.408   .     D
C146   H160    1.078   .     S
C147   C63     1.491   1_655 S
C147   C148    1.406   .     S
C148   C149    1.391   .     D
C148   H161    1.082   .     S
C149   H162    1.083   .     S
C151   C152    1.411   .     D
C151   C153    1.502   .     S
C152   H163    1.074   .     S
C153   C154    1.411   .     D
C153   C158    1.412   .     S
C154   C157    1.397   .     S
C154   H164    1.080   .     S
C155   C156    1.395   .     S
C155   C158    1.398   .     D
C155   H165    1.082   .     S
C156   C157    1.395   .     D
C156   H166    1.082   .     S
C157   H167    1.082   .     S
C158   H168    1.082   .     S
