data_311
_audit_creation_date              2023-09-08
_audit_creation_method            'Materials Studio'
_symmetry_space_group_name_H-M    'P1'
_symmetry_Int_Tables_number       1
_symmetry_cell_setting            triclinic
loop_
_symmetry_equiv_pos_as_xyz
  x,y,z
_cell_length_a                    15.9398
_cell_length_b                    15.9398
_cell_length_c                    14.6157
_cell_angle_alpha                 90.0000
_cell_angle_beta                  90.0000
_cell_angle_gamma                 120.0000
loop_
_atom_site_label
_atom_site_type_symbol
_atom_site_fract_x
_atom_site_fract_y
_atom_site_fract_z
_atom_site_U_iso_or_equiv
_atom_site_adp_type
_atom_site_occupancy
N1     N     0.10559   0.09006   0.11926   0.00000  Uiso   1.00
P2     P     0.01612   0.10898   0.15628   0.00000  Uiso   1.00
N3     N     0.78039   0.81318   0.10605   0.00000  Uiso   1.00
N4     N     0.88443   0.90245   0.27962   0.00000  Uiso   1.00
C5     C     0.28719   0.03396   0.12159   0.00000  Uiso   1.00
C6     C     0.18787   0.01345   0.32407   0.00000  Uiso   1.00
C7     C     0.32097   0.13311   0.13320   0.00000  Uiso   1.00
C8     C     0.35121   0.99868   0.13238   0.00000  Uiso   1.00
C9     C     0.25013   0.11223   0.33973   0.00000  Uiso   1.00
C10    C     0.21997   0.94753   0.33994   0.00000  Uiso   1.00
N11    N     0.75673   0.43892   0.38074   0.00000  Uiso   1.00
P12    P     0.77565   0.34945   0.34372   0.00000  Uiso   1.00
N13    N     0.47985   0.11372   0.39395   0.00000  Uiso   1.00
N14    N     0.56911   0.21776   0.22038   0.00000  Uiso   1.00
C15    C     0.70063   0.62053   0.37841   0.00000  Uiso   1.00
C16    C     0.68011   0.52121   0.17593   0.00000  Uiso   1.00
C17    C     0.79978   0.65430   0.36680   0.00000  Uiso   1.00
C18    C     0.66535   0.68454   0.36762   0.00000  Uiso   1.00
C19    C     0.77890   0.58346   0.16027   0.00000  Uiso   1.00
C20    C     0.61420   0.55330   0.16006   0.00000  Uiso   1.00
H21    H     0.27509   0.16355   0.12273   0.00000  Uiso   1.00
H22    H     0.22751   0.16435   0.32545   0.00000  Uiso   1.00
H23    H     0.83023   0.60843   0.37717   0.00000  Uiso   1.00
H24    H     0.83105   0.56091   0.17467   0.00000  Uiso   1.00
H25    H     0.53801   0.50568   0.17395   0.00000  Uiso   1.00
H26    H     0.17226   0.87130   0.32632   0.00000  Uiso   1.00
H27    H     0.32569   0.92222   0.12391   0.00000  Uiso   1.00
H28    H     0.58894   0.65916   0.37640   0.00000  Uiso   1.00
H29    H     0.06462   0.50082   0.58435   0.00000  Uiso   1.00
H30    H     0.37197   0.59411   0.81331   0.00000  Uiso   1.00
H31    H     0.26750   0.10181   0.91882   0.00000  Uiso   1.00
H32    H     0.96142   0.88913   0.68648   0.00000  Uiso   1.00
N33    N     0.90994   0.01553   0.11926   0.00000  Uiso   1.00
P34    P     0.89102   0.90714   0.15628   0.00000  Uiso   1.00
N35    N     0.18682   0.96721   0.10605   0.00000  Uiso   1.00
N36    N     0.09755   0.98198   0.27962   0.00000  Uiso   1.00
C37    C     0.96604   0.25323   0.12159   0.00000  Uiso   1.00
C38    C     0.98655   0.17442   0.32407   0.00000  Uiso   1.00
C39    C     0.86689   0.18786   0.13320   0.00000  Uiso   1.00
C40    C     0.00132   0.35253   0.13238   0.00000  Uiso   1.00
C41    C     0.88777   0.13790   0.33973   0.00000  Uiso   1.00
C42    C     0.05247   0.27244   0.33994   0.00000  Uiso   1.00
N43    N     0.56108   0.31781   0.38074   0.00000  Uiso   1.00
P44    P     0.65055   0.42620   0.34372   0.00000  Uiso   1.00
N45    N     0.88628   0.36613   0.39395   0.00000  Uiso   1.00
N46    N     0.78224   0.35135   0.22038   0.00000  Uiso   1.00
C47    C     0.37947   0.08010   0.37841   0.00000  Uiso   1.00
C48    C     0.47879   0.15890   0.17593   0.00000  Uiso   1.00
C49    C     0.34570   0.14548   0.36680   0.00000  Uiso   1.00
C50    C     0.31546   0.98081   0.36762   0.00000  Uiso   1.00
C51    C     0.41654   0.19544   0.16027   0.00000  Uiso   1.00
C52    C     0.44670   0.06090   0.16006   0.00000  Uiso   1.00
H53    H     0.83645   0.11154   0.12273   0.00000  Uiso   1.00
H54    H     0.83565   0.06316   0.32545   0.00000  Uiso   1.00
H55    H     0.39157   0.22180   0.37717   0.00000  Uiso   1.00
H56    H     0.43909   0.27014   0.17467   0.00000  Uiso   1.00
H57    H     0.49432   0.03233   0.17395   0.00000  Uiso   1.00
H58    H     0.12870   0.30096   0.32632   0.00000  Uiso   1.00
H59    H     0.07778   0.40347   0.12391   0.00000  Uiso   1.00
H60    H     0.34084   0.92977   0.37640   0.00000  Uiso   1.00
H61    H     0.49918   0.56379   0.58435   0.00000  Uiso   1.00
H62    H     0.40589   0.77786   0.81331   0.00000  Uiso   1.00
H63    H     0.89819   0.16568   0.91882   0.00000  Uiso   1.00
H64    H     0.11087   0.07229   0.68648   0.00000  Uiso   1.00
N65    N     0.98447   0.89441   0.11926   0.00000  Uiso   1.00
P66    P     0.09286   0.98388   0.15628   0.00000  Uiso   1.00
N67    N     0.03279   0.21961   0.10605   0.00000  Uiso   1.00
N68    N     0.01802   0.11557   0.27962   0.00000  Uiso   1.00
C69    C     0.74677   0.71281   0.12159   0.00000  Uiso   1.00
C70    C     0.82558   0.81213   0.32407   0.00000  Uiso   1.00
C71    C     0.81214   0.67903   0.13320   0.00000  Uiso   1.00
C72    C     0.64747   0.64879   0.13238   0.00000  Uiso   1.00
C73    C     0.86210   0.74987   0.33973   0.00000  Uiso   1.00
C74    C     0.72756   0.78003   0.33994   0.00000  Uiso   1.00
N75    N     0.68219   0.24327   0.38074   0.00000  Uiso   1.00
P76    P     0.57380   0.22435   0.34372   0.00000  Uiso   1.00
N77    N     0.63387   0.52015   0.39395   0.00000  Uiso   1.00
N78    N     0.64865   0.43089   0.22038   0.00000  Uiso   1.00
C79    C     0.91990   0.29937   0.37841   0.00000  Uiso   1.00
C80    C     0.84110   0.31989   0.17593   0.00000  Uiso   1.00
C81    C     0.85452   0.20022   0.36680   0.00000  Uiso   1.00
C82    C     0.01919   0.33465   0.36762   0.00000  Uiso   1.00
C83    C     0.80456   0.22110   0.16027   0.00000  Uiso   1.00
C84    C     0.93910   0.38580   0.16006   0.00000  Uiso   1.00
H85    H     0.88846   0.72491   0.12273   0.00000  Uiso   1.00
H86    H     0.93684   0.77249   0.32545   0.00000  Uiso   1.00
H87    H     0.77820   0.16977   0.37717   0.00000  Uiso   1.00
H88    H     0.72986   0.16895   0.17467   0.00000  Uiso   1.00
H89    H     0.96767   0.46199   0.17395   0.00000  Uiso   1.00
H90    H     0.69904   0.82774   0.32632   0.00000  Uiso   1.00
H91    H     0.59653   0.67431   0.12391   0.00000  Uiso   1.00
H92    H     0.07023   0.41106   0.37640   0.00000  Uiso   1.00
H93    H     0.43621   0.93538   0.58435   0.00000  Uiso   1.00
H94    H     0.22214   0.62803   0.81331   0.00000  Uiso   1.00
H95    H     0.83432   0.73250   0.91882   0.00000  Uiso   1.00
H96    H     0.92771   0.03858   0.68648   0.00000  Uiso   1.00
N97    N     0.09006   0.10559   0.88074   0.00000  Uiso   1.00
P98    P     0.10898   0.01612   0.84372   0.00000  Uiso   1.00
N99    N     0.81318   0.78039   0.89395   0.00000  Uiso   1.00
N100   N     0.90245   0.88443   0.72038   0.00000  Uiso   1.00
C101   C     0.03396   0.28719   0.87841   0.00000  Uiso   1.00
C102   C     0.01345   0.18787   0.67593   0.00000  Uiso   1.00
C103   C     0.13311   0.32097   0.86680   0.00000  Uiso   1.00
C104   C     0.99868   0.35121   0.86762   0.00000  Uiso   1.00
C105   C     0.11223   0.25013   0.66027   0.00000  Uiso   1.00
C106   C     0.94753   0.21997   0.66006   0.00000  Uiso   1.00
N107   N     0.43892   0.75673   0.61926   0.00000  Uiso   1.00
P108   P     0.34945   0.77565   0.65628   0.00000  Uiso   1.00
N109   N     0.11372   0.47985   0.60605   0.00000  Uiso   1.00
N110   N     0.21776   0.56911   0.77962   0.00000  Uiso   1.00
C111   C     0.62053   0.70063   0.62159   0.00000  Uiso   1.00
C112   C     0.52121   0.68011   0.82407   0.00000  Uiso   1.00
C113   C     0.65430   0.79978   0.63320   0.00000  Uiso   1.00
C114   C     0.68454   0.66535   0.63238   0.00000  Uiso   1.00
C115   C     0.58346   0.77890   0.83973   0.00000  Uiso   1.00
C116   C     0.55330   0.61420   0.83994   0.00000  Uiso   1.00
H117   H     0.16355   0.27509   0.87727   0.00000  Uiso   1.00
H118   H     0.16435   0.22751   0.67455   0.00000  Uiso   1.00
H119   H     0.60843   0.83023   0.62283   0.00000  Uiso   1.00
H120   H     0.56091   0.83105   0.82533   0.00000  Uiso   1.00
H121   H     0.50568   0.53801   0.82605   0.00000  Uiso   1.00
H122   H     0.87130   0.17226   0.67368   0.00000  Uiso   1.00
H123   H     0.92222   0.32569   0.87608   0.00000  Uiso   1.00
H124   H     0.65916   0.58894   0.62360   0.00000  Uiso   1.00
H125   H     0.50082   0.06462   0.41565   0.00000  Uiso   1.00
H126   H     0.59411   0.37197   0.18669   0.00000  Uiso   1.00
H127   H     0.10181   0.26750   0.08118   0.00000  Uiso   1.00
H128   H     0.88913   0.96142   0.31352   0.00000  Uiso   1.00
N129   N     0.01553   0.90994   0.88074   0.00000  Uiso   1.00
P130   P     0.90714   0.89102   0.84372   0.00000  Uiso   1.00
N131   N     0.96721   0.18682   0.89395   0.00000  Uiso   1.00
N132   N     0.98198   0.09755   0.72038   0.00000  Uiso   1.00
C133   C     0.25323   0.96604   0.87841   0.00000  Uiso   1.00
C134   C     0.17442   0.98655   0.67593   0.00000  Uiso   1.00
C135   C     0.18786   0.86689   0.86680   0.00000  Uiso   1.00
C136   C     0.35253   0.00132   0.86762   0.00000  Uiso   1.00
C137   C     0.13790   0.88777   0.66027   0.00000  Uiso   1.00
C138   C     0.27244   0.05247   0.66006   0.00000  Uiso   1.00
N139   N     0.31781   0.56108   0.61926   0.00000  Uiso   1.00
P140   P     0.42620   0.65055   0.65628   0.00000  Uiso   1.00
N141   N     0.36613   0.88628   0.60605   0.00000  Uiso   1.00
N142   N     0.35135   0.78224   0.77962   0.00000  Uiso   1.00
C143   C     0.08010   0.37947   0.62159   0.00000  Uiso   1.00
C144   C     0.15890   0.47879   0.82407   0.00000  Uiso   1.00
C145   C     0.14548   0.34570   0.63320   0.00000  Uiso   1.00
C146   C     0.98081   0.31546   0.63238   0.00000  Uiso   1.00
C147   C     0.19544   0.41654   0.83973   0.00000  Uiso   1.00
C148   C     0.06090   0.44670   0.83994   0.00000  Uiso   1.00
H149   H     0.11154   0.83645   0.87727   0.00000  Uiso   1.00
H150   H     0.06316   0.83565   0.67455   0.00000  Uiso   1.00
H151   H     0.22180   0.39157   0.62283   0.00000  Uiso   1.00
H152   H     0.27014   0.43909   0.82533   0.00000  Uiso   1.00
H153   H     0.03233   0.49432   0.82605   0.00000  Uiso   1.00
H154   H     0.30096   0.12870   0.67368   0.00000  Uiso   1.00
H155   H     0.40347   0.07778   0.87608   0.00000  Uiso   1.00
H156   H     0.92978   0.34084   0.62360   0.00000  Uiso   1.00
H157   H     0.56379   0.49918   0.41565   0.00000  Uiso   1.00
H158   H     0.77786   0.40589   0.18669   0.00000  Uiso   1.00
H159   H     0.16568   0.89819   0.08118   0.00000  Uiso   1.00
H160   H     0.07229   0.11087   0.31352   0.00000  Uiso   1.00
N161   N     0.89441   0.98447   0.88074   0.00000  Uiso   1.00
P162   P     0.98388   0.09286   0.84372   0.00000  Uiso   1.00
N163   N     0.21961   0.03279   0.89395   0.00000  Uiso   1.00
N164   N     0.11557   0.01802   0.72038   0.00000  Uiso   1.00
C165   C     0.71281   0.74677   0.87841   0.00000  Uiso   1.00
C166   C     0.81213   0.82558   0.67593   0.00000  Uiso   1.00
C167   C     0.67903   0.81214   0.86680   0.00000  Uiso   1.00
C168   C     0.64879   0.64747   0.86762   0.00000  Uiso   1.00
C169   C     0.74987   0.86210   0.66027   0.00000  Uiso   1.00
C170   C     0.78003   0.72756   0.66006   0.00000  Uiso   1.00
N171   N     0.24327   0.68219   0.61926   0.00000  Uiso   1.00
P172   P     0.22435   0.57380   0.65628   0.00000  Uiso   1.00
N173   N     0.52015   0.63387   0.60605   0.00000  Uiso   1.00
N174   N     0.43089   0.64865   0.77962   0.00000  Uiso   1.00
C175   C     0.29937   0.91990   0.62159   0.00000  Uiso   1.00
C176   C     0.31989   0.84110   0.82407   0.00000  Uiso   1.00
C177   C     0.20022   0.85452   0.63320   0.00000  Uiso   1.00
C178   C     0.33465   0.01919   0.63238   0.00000  Uiso   1.00
C179   C     0.22110   0.80456   0.83973   0.00000  Uiso   1.00
C180   C     0.38580   0.93910   0.83994   0.00000  Uiso   1.00
H181   H     0.72491   0.88846   0.87727   0.00000  Uiso   1.00
H182   H     0.77249   0.93684   0.67455   0.00000  Uiso   1.00
H183   H     0.16977   0.77820   0.62283   0.00000  Uiso   1.00
H184   H     0.16895   0.72986   0.82533   0.00000  Uiso   1.00
H185   H     0.46199   0.96767   0.82605   0.00000  Uiso   1.00
H186   H     0.82774   0.69904   0.67368   0.00000  Uiso   1.00
H187   H     0.67431   0.59653   0.87608   0.00000  Uiso   1.00
H188   H     0.41106   0.07022   0.62360   0.00000  Uiso   1.00
H189   H     0.93538   0.43621   0.41565   0.00000  Uiso   1.00
H190   H     0.62803   0.22214   0.18669   0.00000  Uiso   1.00
H191   H     0.73250   0.83432   0.08118   0.00000  Uiso   1.00
H192   H     0.03858   0.92771   0.31352   0.00000  Uiso   1.00
loop_
_geom_bond_atom_site_label_1
_geom_bond_atom_site_label_2
_geom_bond_distance
_geom_bond_site_symmetry_2
_ccdc_geom_bond_type
N1     P2      1.688   .     D
N1     P66     1.690   1_545 S
P2     N33     1.690   1_455 S
P2     N67     1.803   .     S
P2     N68     1.805   .     S
N3     P34     1.803   .     S
N3     C69     1.429   .     S
N3     H191    1.042   .     S
N4     P34     1.805   .     S
N4     C70     1.423   .     S
N4     H128    1.032   .     S
C5     C7      1.402   .     D
C5     C8      1.399   1_545 S
C5     N35     1.429   1_545 S
C6     C9      1.398   .     D
C6     C10     1.399   1_545 S
C6     N36     1.423   1_545 S
C7     H21     1.072   .     S
C7     C51     1.397   .     S
C8     C5      1.399   1_565 S
C8     H27     1.082   .     S
C8     C52     1.398   1_565 D
C9     H22     1.079   .     S
C9     C49     1.397   .     S
C10    C6      1.399   1_565 S
C10    H26     1.082   .     S
C10    C50     1.398   .     D
N11    P12     1.688   .     D
N11    P44     1.690   .     S
P12    N45     1.803   .     S
P12    N46     1.805   .     S
P12    N75     1.690   .     S
N13    C47     1.429   .     S
N13    P76     1.803   .     S
N13    H125    1.042   .     S
N14    C48     1.423   .     S
N14    P76     1.805   .     S
N14    H190    1.031   .     S
C15    C17     1.402   .     D
C15    C18     1.399   .     S
C15    N77     1.429   .     S
C16    C19     1.398   .     D
C16    C20     1.399   .     S
C16    N78     1.423   .     S
C17    H23     1.072   .     S
C17    C73     1.397   .     S
C18    H28     1.082   .     S
C18    C74     1.398   .     D
C19    H24     1.079   .     S
C19    C71     1.397   .     S
C20    H25     1.082   .     S
C20    C72     1.398   .     D
H29    N109    1.042   .     S
H30    N174    1.031   .     S
H31    N163    1.042   .     S
H32    N100    1.032   .     S
N33    P2      1.690   1_655 S
N33    P34     1.688   1_545 D
P34    N33     1.688   1_565 D
P34    N65     1.690   .     S
N35    C5      1.429   1_565 S
N35    P66     1.803   .     S
N35    H159    1.042   .     S
N36    C6      1.423   1_565 S
N36    P66     1.805   .     S
N36    H192    1.032   .     S
C37    C39     1.402   .     D
C37    C40     1.399   1_655 S
C37    N67     1.429   1_655 S
C38    C41     1.398   .     D
C38    C42     1.399   1_655 S
C38    N68     1.423   1_655 S
C39    H53     1.072   .     S
C39    C83     1.397   .     S
C40    C37     1.399   1_455 S
C40    H59     1.082   .     S
C40    C84     1.398   1_455 D
C41    H54     1.079   .     S
C41    C81     1.397   .     S
C42    C38     1.399   1_455 S
C42    H58     1.082   .     S
C42    C82     1.398   .     D
N43    P44     1.688   .     D
N43    P76     1.690   .     S
P44    N77     1.803   .     S
P44    N78     1.805   .     S
N45    C79     1.429   .     S
N45    H189    1.042   .     S
N46    C80     1.423   .     S
N46    H158    1.031   .     S
C47    C49     1.402   .     D
C47    C50     1.399   1_545 S
C48    C51     1.398   .     D
C48    C52     1.399   .     S
C49    H55     1.072   .     S
C50    C47     1.399   1_565 S
C50    H60     1.082   .     S
C51    H56     1.079   .     S
C52    C8      1.398   1_545 D
C52    H57     1.082   .     S
H61    N173    1.042   .     S
H62    N142    1.031   .     S
H63    N131    1.042   .     S
H64    N164    1.032   .     S
N65    P66     1.688   1_655 D
P66    N65     1.688   1_455 D
P66    N1      1.690   1_565 S
N67    C37     1.429   1_455 S
N67    H127    1.042   .     S
N68    C38     1.423   1_455 S
N68    H160    1.032   .     S
C69    C71     1.402   .     D
C69    C72     1.399   .     S
C70    C73     1.398   .     D
C70    C74     1.399   .     S
C71    H85     1.072   .     S
C72    H91     1.082   .     S
C73    H86     1.079   .     S
C74    H90     1.082   .     S
N75    P76     1.688   .     D
N77    H157    1.042   .     S
N78    H126    1.031   .     S
C79    C81     1.402   .     D
C79    C82     1.399   1_655 S
C80    C83     1.398   .     D
C80    C84     1.399   .     S
C81    H87     1.072   .     S
C82    C79     1.399   1_455 S
C82    H92     1.082   .     S
C83    H88     1.079   .     S
C84    C40     1.398   1_655 D
C84    H89     1.082   .     S
H93    N141    1.042   .     S
H94    N110    1.031   .     S
H95    N99     1.042   .     S
H96    N132    1.032   .     S
N97    P98     1.688   .     D
N97    P162    1.690   1_455 S
P98    N129    1.690   1_545 S
P98    N163    1.803   .     S
P98    N164    1.805   .     S
N99    P130    1.803   .     S
N99    C165    1.429   .     S
N100   P130    1.805   .     S
N100   C166    1.423   .     S
C101   C103    1.402   .     D
C101   C104    1.399   1_455 S
C101   N131    1.429   1_455 S
C102   C105    1.398   .     D
C102   C106    1.399   1_455 S
C102   N132    1.423   1_455 S
C103   H117    1.072   .     S
C103   C147    1.397   .     S
C104   C101    1.399   1_655 S
C104   H123    1.082   .     S
C104   C148    1.398   1_655 D
C105   H118    1.079   .     S
C105   C145    1.397   .     S
C106   C102    1.399   1_655 S
C106   H122    1.082   .     S
C106   C146    1.398   .     D
N107   P108    1.688   .     D
N107   P140    1.690   .     S
P108   N141    1.803   .     S
P108   N142    1.805   .     S
P108   N171    1.690   .     S
N109   C143    1.429   .     S
N109   P172    1.803   .     S
N110   C144    1.423   .     S
N110   P172    1.805   .     S
C111   C113    1.402   .     D
C111   C114    1.399   .     S
C111   N173    1.429   .     S
C112   C115    1.398   .     D
C112   C116    1.399   .     S
C112   N174    1.423   .     S
C113   H119    1.072   .     S
C113   C169    1.397   .     S
C114   H124    1.082   .     S
C114   C170    1.398   .     D
C115   H120    1.079   .     S
C115   C167    1.397   .     S
C116   H121    1.082   .     S
C116   C168    1.398   .     D
N129   P98     1.690   1_565 S
N129   P130    1.688   1_455 D
P130   N129    1.688   1_655 D
P130   N161    1.690   .     S
N131   C101    1.429   1_655 S
N131   P162    1.803   .     S
N132   C102    1.423   1_655 S
N132   P162    1.805   .     S
C133   C135    1.402   .     S
C133   C136    1.399   1_565 D
C133   N163    1.429   1_565 S
C134   C137    1.398   .     D
C134   C138    1.399   1_565 S
C134   N164    1.423   1_565 S
C135   H149    1.072   .     S
C135   C179    1.397   .     D
C136   C133    1.399   1_545 D
C136   H155    1.082   .     S
C136   C180    1.398   1_545 S
C137   H150    1.079   .     S
C137   C177    1.397   .     S
C138   C134    1.399   1_545 S
C138   H154    1.082   .     S
C138   C178    1.398   .     D
N139   P140    1.688   .     D
N139   P172    1.690   .     S
P140   N173    1.803   .     S
P140   N174    1.805   .     S
N141   C175    1.429   .     S
N142   C176    1.423   .     S
C143   C145    1.402   .     D
C143   C146    1.399   1_455 S
C144   C147    1.398   .     D
C144   C148    1.399   .     S
C145   H151    1.072   .     S
C146   C143    1.399   1_655 S
C146   H156    1.082   .     S
C147   H152    1.079   .     S
C148   C104    1.398   1_455 D
C148   H153    1.082   .     S
N161   P162    1.688   1_565 D
P162   N97     1.690   1_655 S
P162   N161    1.688   1_545 D
N163   C133    1.429   1_545 S
N164   C134    1.423   1_545 S
C165   C167    1.402   .     D
C165   C168    1.399   .     S
C166   C169    1.398   .     D
C166   C170    1.399   .     S
C167   H181    1.072   .     S
C168   H187    1.082   .     S
C169   H182    1.079   .     S
C170   H186    1.082   .     S
N171   P172    1.688   .     D
C175   C177    1.402   .     D
C175   C178    1.399   1_565 S
C176   C179    1.398   .     S
C176   C180    1.399   .     D
C177   H183    1.072   .     S
C178   C175    1.399   1_545 S
C178   H188    1.082   .     S
C179   H184    1.079   .     S
C180   C136    1.398   1_565 S
C180   H185    1.082   .     S
