data_312
_audit_creation_date              2023-09-08
_audit_creation_method            'Materials Studio'
_symmetry_space_group_name_H-M    'P1'
_symmetry_Int_Tables_number       1
_symmetry_cell_setting            triclinic
loop_
_symmetry_equiv_pos_as_xyz
  x,y,z
_cell_length_a                    28.9100
_cell_length_b                    28.9100
_cell_length_c                    3.4000
_cell_angle_alpha                 90.0000
_cell_angle_beta                  90.0000
_cell_angle_gamma                 120.0000
loop_
_atom_site_label
_atom_site_type_symbol
_atom_site_fract_x
_atom_site_fract_y
_atom_site_fract_z
_atom_site_U_iso_or_equiv
_atom_site_adp_type
_atom_site_occupancy
C1     C     0.30082   0.61141   0.55876   0.00000  Uiso   1.00
C2     C     0.38067   0.59879   0.49893   0.00000  Uiso   1.00
C3     C     0.43223   0.61975   0.33655   0.00000  Uiso   1.00
C4     C     0.45399   0.58720   0.26902   0.00000  Uiso   1.00
C5     C     0.42424   0.53240   0.34676   0.00000  Uiso   1.00
C6     C     0.37322   0.51085   0.50980   0.00000  Uiso   1.00
C7     C     0.35209   0.54384   0.59342   0.00000  Uiso   1.00
C8     C     0.35642   0.63357   0.55078   0.00000  Uiso   1.00
H9     H     0.45530   0.66053   0.23748   0.00000  Uiso   1.00
H10    H     0.31384   0.52589   0.73907   0.00000  Uiso   1.00
H11    H     0.49326   0.60441   0.13717   0.00000  Uiso   1.00
H12    H     0.35009   0.46868   0.57798   0.00000  Uiso   1.00
N13    N     0.49014   0.51659   0.05547   0.00000  Uiso   1.00
H14    H     0.43115   0.70688   0.55985   0.00000  Uiso   1.00
C15    C     0.55464   0.50262  -0.24147   0.00000  Uiso   1.00
H16    H     0.57676   0.54466  -0.31521   0.00000  Uiso   1.00
C17    C     0.38859   0.68941   0.55876   0.00000  Uiso   1.00
C18    C     0.40121   0.78188   0.49893   0.00000  Uiso   1.00
C19    C     0.38026   0.81248   0.33655   0.00000  Uiso   1.00
C20    C     0.41280   0.86679   0.26902   0.00000  Uiso   1.00
C21    C     0.46760   0.89185   0.34676   0.00000  Uiso   1.00
C22    C     0.48915   0.86237   0.50980   0.00000  Uiso   1.00
C23    C     0.45616   0.80825   0.59342   0.00000  Uiso   1.00
C24    C     0.36643   0.72285   0.55078   0.00000  Uiso   1.00
H25    H     0.33947   0.79477   0.23748   0.00000  Uiso   1.00
H26    H     0.47411   0.78795   0.73907   0.00000  Uiso   1.00
H27    H     0.39559   0.88885   0.13717   0.00000  Uiso   1.00
H28    H     0.53132   0.88142   0.57798   0.00000  Uiso   1.00
N29    N     0.48341   0.97355   0.05547   0.00000  Uiso   1.00
H30    H     0.29312   0.72426   0.55985   0.00000  Uiso   1.00
C31    C     0.49738   0.05202  -0.24147   0.00000  Uiso   1.00
H32    H     0.45534   0.03210  -0.31521   0.00000  Uiso   1.00
C33    C     0.31059   0.69918   0.55876   0.00000  Uiso   1.00
C34    C     0.21812   0.61933   0.49893   0.00000  Uiso   1.00
C35    C     0.18752   0.56777   0.33655   0.00000  Uiso   1.00
C36    C     0.13321   0.54601   0.26902   0.00000  Uiso   1.00
C37    C     0.10815   0.57576   0.34676   0.00000  Uiso   1.00
C38    C     0.13763   0.62678   0.50980   0.00000  Uiso   1.00
C39    C     0.19175   0.64791   0.59342   0.00000  Uiso   1.00
C40    C     0.27715   0.64358   0.55078   0.00000  Uiso   1.00
H41    H     0.20523   0.54470   0.23748   0.00000  Uiso   1.00
H42    H     0.21205   0.68616   0.73907   0.00000  Uiso   1.00
H43    H     0.11115   0.50674   0.13717   0.00000  Uiso   1.00
H44    H     0.11858   0.64991   0.57798   0.00000  Uiso   1.00
N45    N     0.02645   0.50986   0.05547   0.00000  Uiso   1.00
H46    H     0.27574   0.56886   0.55985   0.00000  Uiso   1.00
C47    C     0.94798   0.44536  -0.24147   0.00000  Uiso   1.00
H48    H     0.96790   0.42324  -0.31521   0.00000  Uiso   1.00
C49    C     0.69918   0.38859  -0.55876   0.00000  Uiso   1.00
C50    C     0.61934   0.40121  -0.49893   0.00000  Uiso   1.00
C51    C     0.56777   0.38026  -0.33655   0.00000  Uiso   1.00
C52    C     0.54601   0.41280  -0.26902   0.00000  Uiso   1.00
C53    C     0.57576   0.46760  -0.34676   0.00000  Uiso   1.00
C54    C     0.62678   0.48915  -0.50980   0.00000  Uiso   1.00
C55    C     0.64791   0.45616  -0.59342   0.00000  Uiso   1.00
C56    C     0.64358   0.36643  -0.55078   0.00000  Uiso   1.00
H57    H     0.54470   0.33947  -0.23748   0.00000  Uiso   1.00
H58    H     0.68616   0.47411  -0.73907   0.00000  Uiso   1.00
H59    H     0.50674   0.39559  -0.13717   0.00000  Uiso   1.00
H60    H     0.64991   0.53132  -0.57798   0.00000  Uiso   1.00
N61    N     0.50986   0.48341  -0.05547   0.00000  Uiso   1.00
H62    H     0.56886   0.29312  -0.55985   0.00000  Uiso   1.00
C63    C     0.44536   0.49738   0.24147   0.00000  Uiso   1.00
H64    H     0.42324   0.45534   0.31521   0.00000  Uiso   1.00
C65    C     0.61141   0.31059  -0.55876   0.00000  Uiso   1.00
C66    C     0.59879   0.21812  -0.49893   0.00000  Uiso   1.00
C67    C     0.61975   0.18752  -0.33655   0.00000  Uiso   1.00
C68    C     0.58720   0.13321  -0.26902   0.00000  Uiso   1.00
C69    C     0.53240   0.10815  -0.34676   0.00000  Uiso   1.00
C70    C     0.51085   0.13763  -0.50980   0.00000  Uiso   1.00
C71    C     0.54384   0.19175  -0.59342   0.00000  Uiso   1.00
C72    C     0.63357   0.27715  -0.55078   0.00000  Uiso   1.00
H73    H     0.66053   0.20523  -0.23748   0.00000  Uiso   1.00
H74    H     0.52589   0.21205  -0.73907   0.00000  Uiso   1.00
H75    H     0.60441   0.11115  -0.13717   0.00000  Uiso   1.00
H76    H     0.46868   0.11858  -0.57798   0.00000  Uiso   1.00
N77    N     0.51659   0.02645  -0.05547   0.00000  Uiso   1.00
H78    H     0.70688   0.27574  -0.55985   0.00000  Uiso   1.00
C79    C     0.50262   0.94798   0.24147   0.00000  Uiso   1.00
H80    H     0.54466   0.96790   0.31521   0.00000  Uiso   1.00
C81    C     0.68941   0.30082  -0.55876   0.00000  Uiso   1.00
C82    C     0.78188   0.38067  -0.49893   0.00000  Uiso   1.00
C83    C     0.81248   0.43223  -0.33655   0.00000  Uiso   1.00
C84    C     0.86680   0.45399  -0.26902   0.00000  Uiso   1.00
C85    C     0.89185   0.42424  -0.34676   0.00000  Uiso   1.00
C86    C     0.86237   0.37322  -0.50980   0.00000  Uiso   1.00
C87    C     0.80825   0.35209  -0.59342   0.00000  Uiso   1.00
C88    C     0.72285   0.35642  -0.55078   0.00000  Uiso   1.00
H89    H     0.79478   0.45530  -0.23748   0.00000  Uiso   1.00
H90    H     0.78795   0.31384  -0.73907   0.00000  Uiso   1.00
H91    H     0.88885   0.49326  -0.13717   0.00000  Uiso   1.00
H92    H     0.88142   0.35009  -0.57798   0.00000  Uiso   1.00
N93    N     0.97355   0.49014  -0.05547   0.00000  Uiso   1.00
H94    H     0.72426   0.43115  -0.55985   0.00000  Uiso   1.00
C95    C     0.05202   0.55464   0.24147   0.00000  Uiso   1.00
H96    H     0.03210   0.57676   0.31521   0.00000  Uiso   1.00
loop_
_geom_bond_atom_site_label_1
_geom_bond_atom_site_label_2
_geom_bond_distance
_geom_bond_site_symmetry_2
_ccdc_geom_bond_type
C1     C8      1.402   .     D
C1     C40     1.404   .     S
C1     H46     1.071   .     S
C2     C3      1.411   .     D
C2     C7      1.413   .     S
C2     C8      1.496   .     S
C3     C4      1.388   .     S
C3     H9      1.078   .     S
C4     C5      1.399   .     D
C4     H11     1.083   .     S
C5     C6      1.397   .     S
C5     C63     1.464   .     S
C6     C7      1.395   .     D
C6     H12     1.083   .     S
C7     H10     1.079   .     S
C8     C17     1.404   .     S
N13    N61     1.391   .     S
N13    C63     1.291   .     D
H14    C17     1.071   .     S
C15    H16     1.082   .     S
C15    C53     1.464   .     S
C15    N61     1.291   .     D
C17    C24     1.402   .     D
C18    C19     1.411   .     D
C18    C23     1.413   .     S
C18    C24     1.496   .     S
C19    C20     1.388   .     S
C19    H25     1.078   .     S
C20    C21     1.399   .     D
C20    H27     1.083   .     S
C21    C22     1.397   .     S
C21    C79     1.464   .     S
C22    C23     1.395   .     D
C22    H28     1.083   .     S
C23    H26     1.079   .     S
C24    C33     1.404   .     S
N29    N77     1.391   1_565 S
N29    C79     1.291   .     D
H30    C33     1.071   .     S
C31    H32     1.082   .     S
C31    C69     1.464   .     S
C31    N77     1.291   .     D
C33    C40     1.402   .     D
C34    C35     1.411   .     D
C34    C39     1.413   .     S
C34    C40     1.496   .     S
C35    C36     1.388   .     S
C35    H41     1.078   .     S
C36    C37     1.399   .     D
C36    H43     1.083   .     S
C37    C38     1.397   .     S
C37    C95     1.464   .     S
C38    C39     1.395   .     D
C38    H44     1.083   .     S
C39    H42     1.079   .     S
N45    N93     1.391   1_455 S
N45    C95     1.291   .     D
C47    H48     1.082   .     S
C47    C85     1.464   .     S
C47    N93     1.291   .     D
C49    C56     1.402   .     D
C49    C88     1.404   .     S
C49    H94     1.071   .     S
C50    C51     1.411   .     D
C50    C55     1.413   .     S
C50    C56     1.496   .     S
C51    C52     1.388   .     S
C51    H57     1.078   .     S
C52    C53     1.399   .     D
C52    H59     1.083   .     S
C53    C54     1.397   .     S
C54    C55     1.395   .     D
C54    H60     1.083   .     S
C55    H58     1.079   .     S
C56    C65     1.404   .     S
H62    C65     1.071   .     S
C63    H64     1.082   .     S
C65    C72     1.402   .     D
C66    C67     1.411   .     D
C66    C71     1.413   .     S
C66    C72     1.496   .     S
C67    C68     1.388   .     S
C67    H73     1.078   .     S
C68    C69     1.399   .     D
C68    H75     1.083   .     S
C69    C70     1.397   .     S
C70    C71     1.395   .     D
C70    H76     1.083   .     S
C71    H74     1.079   .     S
C72    C81     1.404   .     S
N77    N29     1.391   1_545 S
H78    C81     1.071   .     S
C79    H80     1.082   .     S
C81    C88     1.402   .     D
C82    C83     1.411   .     D
C82    C87     1.413   .     S
C82    C88     1.496   .     S
C83    C84     1.388   .     S
C83    H89     1.078   .     S
C84    C85     1.399   .     D
C84    H91     1.083   .     S
C85    C86     1.397   .     S
C86    C87     1.395   .     D
C86    H92     1.083   .     S
C87    H90     1.079   .     S
N93    N45     1.391   1_655 S
C95    H96     1.082   .     S
