data_313
_audit_creation_date              2023-09-08
_audit_creation_method            'Materials Studio'
_symmetry_space_group_name_H-M    'P1'
_symmetry_Int_Tables_number       1
_symmetry_cell_setting            triclinic
loop_
_symmetry_equiv_pos_as_xyz
  x,y,z
_cell_length_a                    28.4500
_cell_length_b                    28.4500
_cell_length_c                    3.4000
_cell_angle_alpha                 90.0000
_cell_angle_beta                  90.0000
_cell_angle_gamma                 120.0000
loop_
_atom_site_label
_atom_site_type_symbol
_atom_site_fract_x
_atom_site_fract_y
_atom_site_fract_z
_atom_site_U_iso_or_equiv
_atom_site_adp_type
_atom_site_occupancy
N1     N     0.29895   0.61624   0.52227   0.00000  Uiso   1.00
C2     C     0.37488   0.60015   0.39652   0.00000  Uiso   1.00
C3     C     0.42820   0.62119   0.25413   0.00000  Uiso   1.00
C4     C     0.44894   0.58715   0.18040   0.00000  Uiso   1.00
C5     C     0.41677   0.53108   0.23676   0.00000  Uiso   1.00
C6     C     0.36290   0.50927   0.36205   0.00000  Uiso   1.00
C7     C     0.34211   0.54363   0.44162   0.00000  Uiso   1.00
C8     C     0.35345   0.63645   0.50393   0.00000  Uiso   1.00
H9     H     0.45417   0.66364   0.18801   0.00000  Uiso   1.00
H10    H     0.30088   0.52631   0.54823   0.00000  Uiso   1.00
H11    H     0.49020   0.60471   0.07356   0.00000  Uiso   1.00
H12    H     0.33736   0.46596   0.40451   0.00000  Uiso   1.00
N13    N     0.48882   0.51642   0.03725   0.00000  Uiso   1.00
H14    H     0.43132   0.70908   0.54631   0.00000  Uiso   1.00
C15    C     0.56057   0.50435  -0.16072   0.00000  Uiso   1.00
H16    H     0.58498   0.54767  -0.20901   0.00000  Uiso   1.00
C17    C     0.38825   0.69187   0.57303   0.00000  Uiso   1.00
C18    C     0.40214   0.78553   0.62870   0.00000  Uiso   1.00
C19    C     0.37970   0.81689   0.49433   0.00000  Uiso   1.00
C20    C     0.41300   0.87099   0.39397   0.00000  Uiso   1.00
C21    C     0.46953   0.89468   0.41422   0.00000  Uiso   1.00
C22    C     0.49231   0.86486   0.56617   0.00000  Uiso   1.00
C23    C     0.45885   0.81099   0.67955   0.00000  Uiso   1.00
C24    C     0.36715   0.72567   0.66036   0.00000  Uiso   1.00
H25    H     0.33673   0.79922   0.43984   0.00000  Uiso   1.00
H26    H     0.47769   0.78939   0.80172   0.00000  Uiso   1.00
H27    H     0.39466   0.89360   0.27983   0.00000  Uiso   1.00
H28    H     0.53591   0.88307   0.59287   0.00000  Uiso   1.00
N29    N     0.48354   0.97426   0.07852   0.00000  Uiso   1.00
H30    H     0.29454   0.72664   0.81558   0.00000  Uiso   1.00
C31    C     0.49532   0.05047  -0.26171   0.00000  Uiso   1.00
H32    H     0.45170   0.03118  -0.29426   0.00000  Uiso   1.00
C33    C     0.31112   0.70206   0.71358   0.00000  Uiso   1.00
C34    C     0.21754   0.62478   0.56826   0.00000  Uiso   1.00
C35    C     0.18331   0.56831   0.54372   0.00000  Uiso   1.00
C36    C     0.12890   0.54640   0.44051   0.00000  Uiso   1.00
C37    C     0.10772   0.58062   0.36158   0.00000  Uiso   1.00
C38    C     0.14083   0.63671   0.40273   0.00000  Uiso   1.00
C39    C     0.19541   0.65875   0.49916   0.00000  Uiso   1.00
C40    C     0.27675   0.64741   0.61817   0.00000  Uiso   1.00
H41    H     0.19915   0.54126   0.59464   0.00000  Uiso   1.00
H42    H     0.22020   0.70241   0.49866   0.00000  Uiso   1.00
H43    H     0.10343   0.50280   0.41534   0.00000  Uiso   1.00
H44    H     0.12513   0.66362   0.34040   0.00000  Uiso   1.00
N45    N     0.02592   0.50999   0.07802   0.00000  Uiso   1.00
C46    C     0.94791   0.44135  -0.21774   0.00000  Uiso   1.00
H47    H     0.96602   0.41574  -0.20846   0.00000  Uiso   1.00
N48    N     0.70105   0.38376  -0.52227   0.00000  Uiso   1.00
C49    C     0.62512   0.39985  -0.39652   0.00000  Uiso   1.00
C50    C     0.57180   0.37881  -0.25413   0.00000  Uiso   1.00
C51    C     0.55106   0.41285  -0.18040   0.00000  Uiso   1.00
C52    C     0.58323   0.46892  -0.23676   0.00000  Uiso   1.00
C53    C     0.63710   0.49073  -0.36205   0.00000  Uiso   1.00
C54    C     0.65789   0.45637  -0.44162   0.00000  Uiso   1.00
C55    C     0.64655   0.36355  -0.50393   0.00000  Uiso   1.00
H56    H     0.54583   0.33636  -0.18801   0.00000  Uiso   1.00
H57    H     0.69912   0.47369  -0.54823   0.00000  Uiso   1.00
H58    H     0.50980   0.39529  -0.07356   0.00000  Uiso   1.00
H59    H     0.66264   0.53404  -0.40451   0.00000  Uiso   1.00
N60    N     0.51118   0.48358  -0.03725   0.00000  Uiso   1.00
H61    H     0.56868   0.29092  -0.54631   0.00000  Uiso   1.00
C62    C     0.43943   0.49565   0.16072   0.00000  Uiso   1.00
H63    H     0.41502   0.45233   0.20901   0.00000  Uiso   1.00
C64    C     0.61175   0.30813  -0.57303   0.00000  Uiso   1.00
C65    C     0.59786   0.21447  -0.62870   0.00000  Uiso   1.00
C66    C     0.62030   0.18311  -0.49433   0.00000  Uiso   1.00
C67    C     0.58700   0.12901  -0.39397   0.00000  Uiso   1.00
C68    C     0.53047   0.10532  -0.41422   0.00000  Uiso   1.00
C69    C     0.50768   0.13514  -0.56617   0.00000  Uiso   1.00
C70    C     0.54115   0.18901  -0.67955   0.00000  Uiso   1.00
C71    C     0.63285   0.27433  -0.66036   0.00000  Uiso   1.00
H72    H     0.66327   0.20078  -0.43984   0.00000  Uiso   1.00
H73    H     0.52231   0.21061  -0.80172   0.00000  Uiso   1.00
H74    H     0.60534   0.10640  -0.27983   0.00000  Uiso   1.00
H75    H     0.46409   0.11693  -0.59287   0.00000  Uiso   1.00
N76    N     0.51646   0.02574  -0.07852   0.00000  Uiso   1.00
H77    H     0.70546   0.27337  -0.81558   0.00000  Uiso   1.00
C78    C     0.50468   0.94953   0.26171   0.00000  Uiso   1.00
H79    H     0.54830   0.96882   0.29426   0.00000  Uiso   1.00
C80    C     0.68888   0.29794  -0.71358   0.00000  Uiso   1.00
C81    C     0.78246   0.37522  -0.56826   0.00000  Uiso   1.00
C82    C     0.81669   0.43169  -0.54372   0.00000  Uiso   1.00
C83    C     0.87110   0.45360  -0.44051   0.00000  Uiso   1.00
C84    C     0.89228   0.41938  -0.36158   0.00000  Uiso   1.00
C85    C     0.85917   0.36329  -0.40273   0.00000  Uiso   1.00
C86    C     0.80459   0.34125  -0.49916   0.00000  Uiso   1.00
C87    C     0.72325   0.35259  -0.61817   0.00000  Uiso   1.00
H88    H     0.80085   0.45874  -0.59464   0.00000  Uiso   1.00
H89    H     0.77980   0.29759  -0.49866   0.00000  Uiso   1.00
H90    H     0.89657   0.49720  -0.41534   0.00000  Uiso   1.00
H91    H     0.87487   0.33638  -0.34040   0.00000  Uiso   1.00
N92    N     0.97408   0.49001  -0.07802   0.00000  Uiso   1.00
C93    C     0.05209   0.55865   0.21774   0.00000  Uiso   1.00
H94    H     0.03398   0.58427   0.20846   0.00000  Uiso   1.00
loop_
_geom_bond_atom_site_label_1
_geom_bond_atom_site_label_2
_geom_bond_distance
_geom_bond_site_symmetry_2
_ccdc_geom_bond_type
N1     C8      1.359   .     S
N1     C40     1.361   .     D
C2     C3      1.409   .     D
C2     C7      1.407   .     S
C2     C8      1.484   .     S
C3     C4      1.386   .     S
C3     H9      1.078   .     S
C4     C5      1.400   .     D
C4     H11     1.083   .     S
C5     C6      1.401   .     S
C5     C62     1.466   .     S
C6     C7      1.399   .     D
C6     H12     1.083   .     S
C7     H10     1.083   .     S
C8     C17     1.400   .     D
N13    N60     1.391   .     S
N13    C62     1.292   .     D
H14    C17     1.072   .     S
C15    H16     1.083   .     S
C15    C52     1.466   .     S
C15    N60     1.292   .     D
C17    C24     1.396   .     S
C18    C19     1.408   .     D
C18    C23     1.410   .     S
C18    C24     1.486   .     S
C19    C20     1.387   .     S
C19    H25     1.080   .     S
C20    C21     1.401   .     D
C20    H27     1.083   .     S
C21    C22     1.399   .     S
C21    C78     1.464   .     S
C22    C23     1.395   .     D
C22    H28     1.083   .     S
C23    H26     1.080   .     S
C24    C33     1.398   .     D
N29    N76     1.391   1_565 S
N29    C78     1.291   .     D
H30    C33     1.078   .     S
C31    H32     1.083   .     S
C31    C68     1.464   .     S
C31    N76     1.291   .     D
C33    C40     1.399   .     S
C34    C35     1.404   .     D
C34    C39     1.412   .     S
C34    C40     1.482   .     S
C35    C36     1.394   .     S
C35    H41     1.083   .     S
C36    C37     1.403   .     D
C36    H43     1.083   .     S
C37    C38     1.396   .     S
C37    C93     1.465   .     S
C38    C39     1.392   .     D
C38    H44     1.083   .     S
C39    H42     1.079   .     S
N45    N92     1.393   1_455 S
N45    C93     1.291   .     D
C46    H47     1.083   .     S
C46    C84     1.465   .     S
C46    N92     1.291   .     D
N48    C55     1.359   .     D
N48    C87     1.361   .     S
C49    C50     1.409   .     D
C49    C54     1.407   .     S
C49    C55     1.484   .     S
C50    C51     1.386   .     S
C50    H56     1.078   .     S
C51    C52     1.400   .     D
C51    H58     1.083   .     S
C52    C53     1.401   .     S
C53    C54     1.399   .     D
C53    H59     1.083   .     S
C54    H57     1.083   .     S
C55    C64     1.400   .     S
H61    C64     1.072   .     S
C62    H63     1.083   .     S
C64    C71     1.396   .     D
C65    C66     1.408   .     D
C65    C70     1.410   .     S
C65    C71     1.486   .     S
C66    C67     1.387   .     S
C66    H72     1.080   .     S
C67    C68     1.401   .     D
C67    H74     1.083   .     S
C68    C69     1.399   .     S
C69    C70     1.395   .     D
C69    H75     1.083   .     S
C70    H73     1.080   .     S
C71    C80     1.398   .     S
N76    N29     1.391   1_545 S
H77    C80     1.078   .     S
C78    H79     1.083   .     S
C80    C87     1.399   .     D
C81    C82     1.404   .     D
C81    C86     1.412   .     S
C81    C87     1.482   .     S
C82    C83     1.394   .     S
C82    H88     1.083   .     S
C83    C84     1.403   .     D
C83    H90     1.083   .     S
C84    C85     1.396   .     S
C85    C86     1.392   .     D
C85    H91     1.083   .     S
C86    H89     1.079   .     S
N92    N45     1.393   1_655 S
C93    H94     1.083   .     S
