data_314
_audit_creation_date              2023-09-08
_audit_creation_method            'Materials Studio'
_symmetry_space_group_name_H-M    'P1'
_symmetry_Int_Tables_number       1
_symmetry_cell_setting            triclinic
loop_
_symmetry_equiv_pos_as_xyz
  x,y,z
_cell_length_a                    29.0800
_cell_length_b                    29.0800
_cell_length_c                    3.4810
_cell_angle_alpha                 90.0000
_cell_angle_beta                  90.0000
_cell_angle_gamma                 120.0000
loop_
_atom_site_label
_atom_site_type_symbol
_atom_site_fract_x
_atom_site_fract_y
_atom_site_fract_z
_atom_site_U_iso_or_equiv
_atom_site_adp_type
_atom_site_occupancy
N1     N     0.29994   0.61185   0.45870   0.00000  Uiso   1.00
C2     C     0.37680   0.59872   0.37958   0.00000  Uiso   1.00
C3     C     0.43104   0.62080   0.29375   0.00000  Uiso   1.00
C4     C     0.45274   0.58810   0.23412   0.00000  Uiso   1.00
C5     C     0.42072   0.53272   0.26040   0.00000  Uiso   1.00
C6     C     0.36690   0.51056   0.35507   0.00000  Uiso   1.00
C7     C     0.34506   0.54326   0.41324   0.00000  Uiso   1.00
C8     C     0.35328   0.63335   0.41943   0.00000  Uiso   1.00
H9     H     0.45641   0.66335   0.26497   0.00000  Uiso   1.00
H10    H     0.30325   0.52527   0.48171   0.00000  Uiso   1.00
H11    H     0.49443   0.60594   0.16226   0.00000  Uiso   1.00
H12    H     0.34164   0.46793   0.37862   0.00000  Uiso   1.00
N13    N     0.48993   0.51677   0.04176   0.00000  Uiso   1.00
C14    C     0.55737   0.50227  -0.18146   0.00000  Uiso   1.00
H15    H     0.58150   0.54454  -0.23277   0.00000  Uiso   1.00
N16    N     0.38449   0.68686   0.38959   0.00000  Uiso   1.00
C17    C     0.39912   0.77746   0.34560   0.00000  Uiso   1.00
C18    C     0.37904   0.80938   0.20524   0.00000  Uiso   1.00
C19    C     0.41237   0.86365   0.15503   0.00000  Uiso   1.00
C20    C     0.46670   0.88731   0.23676   0.00000  Uiso   1.00
C21    C     0.48734   0.85574   0.36875   0.00000  Uiso   1.00
C22    C     0.45377   0.80119   0.42268   0.00000  Uiso   1.00
C23    C     0.36386   0.71960   0.40366   0.00000  Uiso   1.00
H24    H     0.33801   0.79269   0.12083   0.00000  Uiso   1.00
H25    H     0.47020   0.77748   0.53009   0.00000  Uiso   1.00
H26    H     0.39582   0.88712   0.04498   0.00000  Uiso   1.00
H27    H     0.52924   0.87333   0.43254   0.00000  Uiso   1.00
N28    N     0.48343   0.97288   0.03052   0.00000  Uiso   1.00
C29    C     0.49810   0.05545  -0.17753   0.00000  Uiso   1.00
H30    H     0.45656   0.03696  -0.25551   0.00000  Uiso   1.00
C31    C     0.30928   0.69769   0.45821   0.00000  Uiso   1.00
C32    C     0.21812   0.61714   0.47450   0.00000  Uiso   1.00
C33    C     0.18747   0.56469   0.34114   0.00000  Uiso   1.00
C34    C     0.13305   0.54265   0.27906   0.00000  Uiso   1.00
C35    C     0.10829   0.57268   0.34902   0.00000  Uiso   1.00
C36    C     0.13790   0.62369   0.50401   0.00000  Uiso   1.00
C37    C     0.19210   0.64549   0.57149   0.00000  Uiso   1.00
C38    C     0.27696   0.64256   0.47914   0.00000  Uiso   1.00
H39    H     0.20616   0.54175   0.26526   0.00000  Uiso   1.00
H40    H     0.21314   0.68456   0.69850   0.00000  Uiso   1.00
H41    H     0.11064   0.50296   0.16148   0.00000  Uiso   1.00
H42    H     0.11915   0.64690   0.56932   0.00000  Uiso   1.00
N43    N     0.02622   0.50891   0.05450   0.00000  Uiso   1.00
C44    C     0.94758   0.44750  -0.24650   0.00000  Uiso   1.00
H45    H     0.96657   0.42487  -0.32367   0.00000  Uiso   1.00
H46    H     0.29234   0.72309   0.47198   0.00000  Uiso   1.00
N47    N     0.70006   0.38815  -0.45870   0.00000  Uiso   1.00
C48    C     0.62320   0.40128  -0.37958   0.00000  Uiso   1.00
C49    C     0.56896   0.37921  -0.29375   0.00000  Uiso   1.00
C50    C     0.54726   0.41190  -0.23412   0.00000  Uiso   1.00
C51    C     0.57928   0.46728  -0.26040   0.00000  Uiso   1.00
C52    C     0.63310   0.48944  -0.35507   0.00000  Uiso   1.00
C53    C     0.65495   0.45674  -0.41324   0.00000  Uiso   1.00
C54    C     0.64672   0.36665  -0.41943   0.00000  Uiso   1.00
H55    H     0.54359   0.33666  -0.26497   0.00000  Uiso   1.00
H56    H     0.69675   0.47473  -0.48171   0.00000  Uiso   1.00
H57    H     0.50557   0.39407  -0.16226   0.00000  Uiso   1.00
H58    H     0.65836   0.53207  -0.37862   0.00000  Uiso   1.00
N59    N     0.51007   0.48323  -0.04176   0.00000  Uiso   1.00
C60    C     0.44263   0.49773   0.18146   0.00000  Uiso   1.00
H61    H     0.41850   0.45546   0.23277   0.00000  Uiso   1.00
N62    N     0.61551   0.31314  -0.38959   0.00000  Uiso   1.00
C63    C     0.60088   0.22254  -0.34560   0.00000  Uiso   1.00
C64    C     0.62096   0.19062  -0.20524   0.00000  Uiso   1.00
C65    C     0.58763   0.13635  -0.15503   0.00000  Uiso   1.00
C66    C     0.53330   0.11269  -0.23676   0.00000  Uiso   1.00
C67    C     0.51266   0.14426  -0.36875   0.00000  Uiso   1.00
C68    C     0.54623   0.19881  -0.42268   0.00000  Uiso   1.00
C69    C     0.63614   0.28040  -0.40366   0.00000  Uiso   1.00
H70    H     0.66199   0.20731  -0.12083   0.00000  Uiso   1.00
H71    H     0.52980   0.22252  -0.53009   0.00000  Uiso   1.00
H72    H     0.60418   0.11288  -0.04498   0.00000  Uiso   1.00
H73    H     0.47076   0.12667  -0.43254   0.00000  Uiso   1.00
N74    N     0.51657   0.02712  -0.03052   0.00000  Uiso   1.00
C75    C     0.50190   0.94454   0.17753   0.00000  Uiso   1.00
H76    H     0.54344   0.96304   0.25551   0.00000  Uiso   1.00
C77    C     0.69072   0.30231  -0.45821   0.00000  Uiso   1.00
C78    C     0.78188   0.38286  -0.47450   0.00000  Uiso   1.00
C79    C     0.81253   0.43531  -0.34114   0.00000  Uiso   1.00
C80    C     0.86695   0.45735  -0.27906   0.00000  Uiso   1.00
C81    C     0.89172   0.42732  -0.34902   0.00000  Uiso   1.00
C82    C     0.86210   0.37631  -0.50401   0.00000  Uiso   1.00
C83    C     0.80790   0.35451  -0.57149   0.00000  Uiso   1.00
C84    C     0.72304   0.35744  -0.47914   0.00000  Uiso   1.00
H85    H     0.79384   0.45825  -0.26526   0.00000  Uiso   1.00
H86    H     0.78686   0.31544  -0.69850   0.00000  Uiso   1.00
H87    H     0.88936   0.49704  -0.16148   0.00000  Uiso   1.00
H88    H     0.88085   0.35310  -0.56932   0.00000  Uiso   1.00
N89    N     0.97378   0.49109  -0.05450   0.00000  Uiso   1.00
C90    C     0.05242   0.55250   0.24650   0.00000  Uiso   1.00
H91    H     0.03343   0.57513   0.32367   0.00000  Uiso   1.00
H92    H     0.70766   0.27691  -0.47198   0.00000  Uiso   1.00
loop_
_geom_bond_atom_site_label_1
_geom_bond_atom_site_label_2
_geom_bond_distance
_geom_bond_site_symmetry_2
_ccdc_geom_bond_type
N1     C8      1.358   .     D
N1     C38     1.359   .     S
C2     C3      1.406   .     D
C2     C7      1.406   .     S
C2     C8      1.480   .     S
C3     C4      1.395   .     S
C3     H9      1.083   .     S
C4     C5      1.403   .     D
C4     H11     1.083   .     S
C5     C6      1.402   .     S
C5     C60     1.471   .     S
C6     C7      1.397   .     D
C6     H12     1.083   .     S
C7     H10     1.083   .     S
C8     N16     1.358   .     S
N13    N59     1.396   .     S
N13    C60     1.293   .     D
C14    H15     1.083   .     S
C14    C51     1.471   .     S
C14    N59     1.293   .     D
N16    C23     1.356   .     D
C17    C18     1.408   .     D
C17    C22     1.406   .     S
C17    C23     1.483   .     S
C18    C19     1.389   .     S
C18    H24     1.080   .     S
C19    C20     1.401   .     D
C19    H26     1.083   .     S
C20    C21     1.402   .     S
C20    C75     1.468   .     S
C21    C22     1.399   .     D
C21    H27     1.083   .     S
C22    H25     1.083   .     S
C23    C31     1.397   .     S
N28    N74     1.394   1_565 S
N28    C75     1.293   .     D
C29    H30     1.083   .     S
C29    C66     1.468   .     S
C29    N74     1.293   .     D
C31    C38     1.397   .     D
C31    H46     1.074   .     S
C32    C33     1.406   .     D
C32    C37     1.411   .     S
C32    C38     1.486   .     S
C33    C34     1.396   .     S
C33    H39     1.083   .     S
C34    C35     1.404   .     D
C34    H41     1.083   .     S
C35    C36     1.398   .     S
C35    C90     1.469   .     S
C36    C37     1.394   .     D
C36    H42     1.083   .     S
C37    H40     1.080   .     S
N43    N89     1.396   1_455 S
N43    C90     1.292   .     D
C44    H45     1.083   .     S
C44    C81     1.469   .     S
C44    N89     1.292   .     D
N47    C54     1.358   .     D
N47    C84     1.359   .     S
C48    C49     1.406   .     D
C48    C53     1.406   .     S
C48    C54     1.480   .     S
C49    C50     1.395   .     S
C49    H55     1.083   .     S
C50    C51     1.403   .     D
C50    H57     1.083   .     S
C51    C52     1.402   .     S
C52    C53     1.397   .     D
C52    H58     1.083   .     S
C53    H56     1.083   .     S
C54    N62     1.358   .     S
C60    H61     1.083   .     S
N62    C69     1.356   .     D
C63    C64     1.408   .     D
C63    C68     1.406   .     S
C63    C69     1.483   .     S
C64    C65     1.389   .     S
C64    H70     1.080   .     S
C65    C66     1.401   .     D
C65    H72     1.083   .     S
C66    C67     1.402   .     S
C67    C68     1.399   .     D
C67    H73     1.083   .     S
C68    H71     1.083   .     S
C69    C77     1.397   .     S
N74    N28     1.394   1_545 S
C75    H76     1.083   .     S
C77    C84     1.397   .     D
C77    H92     1.074   .     S
C78    C79     1.406   .     D
C78    C83     1.411   .     S
C78    C84     1.486   .     S
C79    C80     1.396   .     S
C79    H85     1.083   .     S
C80    C81     1.404   .     D
C80    H87     1.083   .     S
C81    C82     1.398   .     S
C82    C83     1.394   .     D
C82    H88     1.083   .     S
C83    H86     1.080   .     S
N89    N43     1.396   1_655 S
C90    H91     1.083   .     S
