data_315
_audit_creation_date              2023-09-08
_audit_creation_method            'Materials Studio'
_symmetry_space_group_name_H-M    'P1'
_symmetry_Int_Tables_number       1
_symmetry_cell_setting            triclinic
loop_
_symmetry_equiv_pos_as_xyz
  x,y,z
_cell_length_a                    29.6551
_cell_length_b                    29.6551
_cell_length_c                    3.4469
_cell_angle_alpha                 90.0000
_cell_angle_beta                  90.0000
_cell_angle_gamma                 120.0000
loop_
_atom_site_label
_atom_site_type_symbol
_atom_site_fract_x
_atom_site_fract_y
_atom_site_fract_z
_atom_site_U_iso_or_equiv
_atom_site_adp_type
_atom_site_occupancy
N1     N     0.39261   0.58453   0.00000   0.00000  Uiso   1.00
N2     N     0.41547   0.80808   0.00000   0.00000  Uiso   1.00
N3     N     0.19192   0.60739   0.00000   0.00000  Uiso   1.00
N4     N     0.60739   0.41547   0.00000   0.00000  Uiso   1.00
N5     N     0.58453   0.19192   0.00000   0.00000  Uiso   1.00
N6     N     0.80808   0.39261   0.00000   0.00000  Uiso   1.00
C7     C     0.31638   0.61442   0.00000   0.00000  Uiso   1.00
C8     C     0.38558   0.70196   0.00000   0.00000  Uiso   1.00
C9     C     0.29804   0.68362   0.00000   0.00000  Uiso   1.00
C10    C     0.68362   0.38558   0.00000   0.00000  Uiso   1.00
C11    C     0.61442   0.29804   0.00000   0.00000  Uiso   1.00
C12    C     0.70196   0.31638   0.00000   0.00000  Uiso   1.00
C13    C     0.40696   0.63276   0.00000   0.00000  Uiso   1.00
C14    C     0.36724   0.77420   0.00000   0.00000  Uiso   1.00
C15    C     0.22580   0.59304   0.00000   0.00000  Uiso   1.00
C16    C     0.59304   0.36724   0.00000   0.00000  Uiso   1.00
C17    C     0.63276   0.22580   0.00000   0.00000  Uiso   1.00
C18    C     0.77420   0.40696   0.00000   0.00000  Uiso   1.00
C19    C     0.42476   0.56216   0.00000   0.00000  Uiso   1.00
C20    C     0.43784   0.86260   0.00000   0.00000  Uiso   1.00
C21    C     0.13740   0.57524   0.00000   0.00000  Uiso   1.00
C22    C     0.57524   0.43784   0.00000   0.00000  Uiso   1.00
C23    C     0.56216   0.13740   0.00000   0.00000  Uiso   1.00
C24    C     0.86260   0.42476   0.00000   0.00000  Uiso   1.00
C25    C     0.47820   0.59097   0.00000   0.00000  Uiso   1.00
C26    C     0.40903   0.88723   0.00000   0.00000  Uiso   1.00
C27    C     0.11277   0.52180   0.00000   0.00000  Uiso   1.00
C28    C     0.52180   0.40903   0.00000   0.00000  Uiso   1.00
C29    C     0.59097   0.11277   0.00000   0.00000  Uiso   1.00
C30    C     0.88723   0.47820   0.00000   0.00000  Uiso   1.00
C31    C     0.50731   0.56690   0.00000   0.00000  Uiso   1.00
C32    C     0.43310   0.94041   0.00000   0.00000  Uiso   1.00
C33    C     0.05959   0.49269   0.00000   0.00000  Uiso   1.00
C34    C     0.49269   0.43310   0.00000   0.00000  Uiso   1.00
C35    C     0.56690   0.05959   0.00000   0.00000  Uiso   1.00
C36    C     0.94041   0.50731   0.00000   0.00000  Uiso   1.00
C37    C     0.48422   0.51309   0.00000   0.00000  Uiso   1.00
C38    C     0.48691   0.97113   0.00000   0.00000  Uiso   1.00
C39    C     0.02887   0.51578   0.00000   0.00000  Uiso   1.00
C40    C     0.51578   0.48691   0.00000   0.00000  Uiso   1.00
C41    C     0.51309   0.02887   0.00000   0.00000  Uiso   1.00
C42    C     0.97113   0.48422   0.00000   0.00000  Uiso   1.00
C43    C     0.43027   0.48490   0.00000   0.00000  Uiso   1.00
C44    C     0.51510   0.94537   0.00000   0.00000  Uiso   1.00
C45    C     0.05463   0.56973   0.00000   0.00000  Uiso   1.00
C46    C     0.56973   0.51510   0.00000   0.00000  Uiso   1.00
C47    C     0.48490   0.05463   0.00000   0.00000  Uiso   1.00
C48    C     0.94537   0.43027   0.00000   0.00000  Uiso   1.00
C49    C     0.40138   0.50916   0.00000   0.00000  Uiso   1.00
C50    C     0.49084   0.89222   0.00000   0.00000  Uiso   1.00
C51    C     0.10778   0.59862   0.00000   0.00000  Uiso   1.00
C52    C     0.59862   0.49084   0.00000   0.00000  Uiso   1.00
C53    C     0.50916   0.10778   0.00000   0.00000  Uiso   1.00
C54    C     0.89222   0.40138   0.00000   0.00000  Uiso   1.00
C55    C     0.36893   0.64967   0.00000   0.00000  Uiso   1.00
C56    C     0.35033   0.71926   0.00000   0.00000  Uiso   1.00
C57    C     0.28074   0.63107   0.00000   0.00000  Uiso   1.00
C58    C     0.63107   0.35033   0.00000   0.00000  Uiso   1.00
C59    C     0.64967   0.28074   0.00000   0.00000  Uiso   1.00
C60    C     0.71926   0.36893   0.00000   0.00000  Uiso   1.00
H61    H     0.63982   0.51368   0.00000   0.00000  Uiso   1.00
H62    H     0.48632   0.12614   0.00000   0.00000  Uiso   1.00
H63    H     0.87386   0.36018   0.00000   0.00000  Uiso   1.00
H64    H     0.36018   0.48632   0.00000   0.00000  Uiso   1.00
H65    H     0.51368   0.87386   0.00000   0.00000  Uiso   1.00
H66    H     0.12614   0.63982   0.00000   0.00000  Uiso   1.00
H67    H     0.59104   0.55607   0.00000   0.00000  Uiso   1.00
H68    H     0.44393   0.03497   0.00000   0.00000  Uiso   1.00
H69    H     0.96503   0.40896   0.00000   0.00000  Uiso   1.00
H70    H     0.40896   0.44393   0.00000   0.00000  Uiso   1.00
H71    H     0.55607   0.96503   0.00000   0.00000  Uiso   1.00
H72    H     0.03497   0.59104   0.00000   0.00000  Uiso   1.00
H73    H     0.54795   0.59176   0.00000   0.00000  Uiso   1.00
H74    H     0.40824   0.95619   0.00000   0.00000  Uiso   1.00
H75    H     0.04381   0.45205   0.00000   0.00000  Uiso   1.00
H76    H     0.45205   0.40824   0.00000   0.00000  Uiso   1.00
H77    H     0.59176   0.04381   0.00000   0.00000  Uiso   1.00
H78    H     0.95619   0.54795   0.00000   0.00000  Uiso   1.00
H79    H     0.49825   0.63209   0.00000   0.00000  Uiso   1.00
H80    H     0.36791   0.86616   0.00000   0.00000  Uiso   1.00
H81    H     0.13384   0.50175   0.00000   0.00000  Uiso   1.00
H82    H     0.50175   0.36791   0.00000   0.00000  Uiso   1.00
H83    H     0.63209   0.13384   0.00000   0.00000  Uiso   1.00
H84    H     0.86616   0.49825   0.00000   0.00000  Uiso   1.00
H85    H     0.44681   0.66156   0.00000   0.00000  Uiso   1.00
H86    H     0.33844   0.78525   0.00000   0.00000  Uiso   1.00
H87    H     0.21475   0.55319   0.00000   0.00000  Uiso   1.00
H88    H     0.55319   0.33844   0.00000   0.00000  Uiso   1.00
H89    H     0.66156   0.21475   0.00000   0.00000  Uiso   1.00
H90    H     0.78525   0.44681   0.00000   0.00000  Uiso   1.00
H91    H     0.42609   0.72915   0.00000   0.00000  Uiso   1.00
H92    H     0.27085   0.69694   0.00000   0.00000  Uiso   1.00
H93    H     0.30306   0.57391   0.00000   0.00000  Uiso   1.00
H94    H     0.57391   0.27085   0.00000   0.00000  Uiso   1.00
H95    H     0.72915   0.30306   0.00000   0.00000  Uiso   1.00
H96    H     0.69694   0.42609   0.00000   0.00000  Uiso   1.00
loop_
_geom_bond_atom_site_label_1
_geom_bond_atom_site_label_2
_geom_bond_distance
_geom_bond_site_symmetry_2
_ccdc_geom_bond_type
N1     C13     1.272   .     D
N1     C19     1.408   .     S
N2     C14     1.272   .     D
N2     C20     1.408   .     S
N3     C15     1.272   .     D
N3     C21     1.408   .     S
N4     C16     1.272   .     D
N4     C22     1.408   .     S
N5     C17     1.272   .     D
N5     C23     1.408   .     S
N6     C18     1.272   .     D
N6     C24     1.408   .     S
C7     C55     1.376   .     D
C7     C57     1.372   .     S
C7     H93     1.061   .     S
C8     C55     1.372   .     S
C8     C56     1.376   .     D
C8     H91     1.061   .     S
C9     C56     1.372   .     S
C9     C57     1.376   .     D
C9     H92     1.061   .     S
C10    C58     1.376   .     D
C10    C60     1.372   .     S
C10    H96     1.061   .     S
C11    C58     1.372   .     S
C11    C59     1.376   .     D
C11    H94     1.061   .     S
C12    C59     1.372   .     S
C12    C60     1.376   .     D
C12    H95     1.061   .     S
C13    C55     1.445   .     S
C13    H85     1.057   .     S
C14    C56     1.445   .     S
C14    H86     1.057   .     S
C15    C57     1.445   .     S
C15    H87     1.057   .     S
C16    C58     1.445   .     S
C16    H88     1.057   .     S
C17    C59     1.445   .     S
C17    H89     1.057   .     S
C18    C60     1.445   .     S
C18    H90     1.057   .     S
C19    C25     1.374   .     S
C19    C49     1.364   .     D
C20    C26     1.374   .     D
C20    C50     1.364   .     S
C21    C27     1.374   .     D
C21    C51     1.364   .     S
C22    C28     1.374   .     S
C22    C52     1.364   .     D
C23    C29     1.374   .     D
C23    C53     1.364   .     S
C24    C30     1.374   .     D
C24    C54     1.364   .     S
C25    C31     1.368   .     D
C25    H79     1.056   .     S
C26    C32     1.368   .     S
C26    H80     1.056   .     S
C27    C33     1.368   .     S
C27    H81     1.056   .     S
C28    C34     1.368   .     D
C28    H82     1.056   .     S
C29    C35     1.368   .     S
C29    H83     1.056   .     S
C30    C36     1.368   .     S
C30    H84     1.056   .     S
C31    C37     1.387   .     S
C31    H73     1.052   .     S
C32    C38     1.387   .     D
C32    H74     1.052   .     S
C33    C39     1.387   .     D
C33    H75     1.052   .     S
C34    C40     1.387   .     S
C34    H76     1.052   .     S
C35    C41     1.387   .     D
C35    H77     1.052   .     S
C36    C42     1.387   .     D
C36    H78     1.052   .     S
C37    C40     1.485   .     S
C37    C43     1.386   .     D
C38    C41     1.485   1_565 S
C38    C44     1.386   .     S
C39    C42     1.485   1_455 S
C39    C45     1.386   .     S
C40    C46     1.386   .     D
C41    C38     1.485   1_545 S
C41    C47     1.386   .     S
C42    C39     1.485   1_655 S
C42    C48     1.386   .     S
C43    C49     1.367   .     S
C43    H70     1.052   .     S
C44    C50     1.367   .     D
C44    H71     1.052   .     S
C45    C51     1.367   .     D
C45    H72     1.052   .     S
C46    C52     1.367   .     S
C46    H67     1.052   .     S
C47    C53     1.367   .     D
C47    H68     1.052   .     S
C48    C54     1.367   .     D
C48    H69     1.052   .     S
C49    H64     1.060   .     S
C50    H65     1.060   .     S
C51    H66     1.060   .     S
C52    H61     1.060   .     S
C53    H62     1.060   .     S
C54    H63     1.060   .     S
