data_316
_audit_creation_date              2023-09-08
_audit_creation_method            'Materials Studio'
_symmetry_space_group_name_H-M    'P1'
_symmetry_Int_Tables_number       1
_symmetry_cell_setting            triclinic
loop_
_symmetry_equiv_pos_as_xyz
  x,y,z
_cell_length_a                    28.5410
_cell_length_b                    28.5410
_cell_length_c                    3.4380
_cell_angle_alpha                 90.0000
_cell_angle_beta                  90.0000
_cell_angle_gamma                 120.0000
loop_
_atom_site_label
_atom_site_type_symbol
_atom_site_fract_x
_atom_site_fract_y
_atom_site_fract_z
_atom_site_U_iso_or_equiv
_atom_site_adp_type
_atom_site_occupancy
N1     N     0.29832   0.61332   0.00000   0.00000  Uiso   1.00
C2     C     0.37129   0.59428   0.00000   0.00000  Uiso   1.00
C3     C     0.42707   0.61556   0.00000   0.00000  Uiso   1.00
C4     C     0.44736   0.58142   0.00000   0.00000  Uiso   1.00
C5     C     0.41224   0.52521   0.00000   0.00000  Uiso   1.00
C6     C     0.35629   0.50328   0.00000   0.00000  Uiso   1.00
C7     C     0.33560   0.53808   0.00000   0.00000  Uiso   1.00
C8     C     0.35151   0.63160   0.00000   0.00000  Uiso   1.00
H9     H     0.45526   0.65871   0.00000   0.00000  Uiso   1.00
H10    H     0.29219   0.52148   0.00000   0.00000  Uiso   1.00
H11    H     0.49096   0.59940   0.00000   0.00000  Uiso   1.00
H12    H     0.32916   0.45993   0.00000   0.00000  Uiso   1.00
N13    N     0.48717   0.51475   0.00000   0.00000  Uiso   1.00
C14    C     0.56449   0.50911   0.00000   0.00000  Uiso   1.00
H15    H     0.58897   0.55281   0.00000   0.00000  Uiso   1.00
N16    N     0.38668   0.68501   0.00000   0.00000  Uiso   1.00
C17    C     0.40572   0.77702   0.00000   0.00000  Uiso   1.00
C18    C     0.38444   0.81152   0.00000   0.00000  Uiso   1.00
C19    C     0.41858   0.86594   0.00000   0.00000  Uiso   1.00
C20    C     0.47479   0.88702   0.00000   0.00000  Uiso   1.00
C21    C     0.49671   0.85300   0.00000   0.00000  Uiso   1.00
C22    C     0.46192   0.79752   0.00000   0.00000  Uiso   1.00
C23    C     0.36840   0.71991   0.00000   0.00000  Uiso   1.00
H24    H     0.34129   0.79655   0.00000   0.00000  Uiso   1.00
H25    H     0.47852   0.77071   0.00000   0.00000  Uiso   1.00
H26    H     0.40060   0.89156   0.00000   0.00000  Uiso   1.00
H27    H     0.54007   0.86923   0.00000   0.00000  Uiso   1.00
N28    N     0.48525   0.97243   0.00000   0.00000  Uiso   1.00
C29    C     0.49089   0.05539   0.00000   0.00000  Uiso   1.00
H30    H     0.44719   0.03616   0.00000   0.00000  Uiso   1.00
N31    N     0.31500   0.70168   0.00000   0.00000  Uiso   1.00
C32    C     0.22298   0.62871   0.00000   0.00000  Uiso   1.00
C33    C     0.18848   0.57293   0.00000   0.00000  Uiso   1.00
C34    C     0.13406   0.55264   0.00000   0.00000  Uiso   1.00
C35    C     0.11298   0.58776   0.00000   0.00000  Uiso   1.00
C36    C     0.14700   0.64371   0.00000   0.00000  Uiso   1.00
C37    C     0.20248   0.66440   0.00000   0.00000  Uiso   1.00
C38    C     0.28009   0.64849   0.00000   0.00000  Uiso   1.00
H39    H     0.20345   0.54474   0.00000   0.00000  Uiso   1.00
H40    H     0.22929   0.70781   0.00000   0.00000  Uiso   1.00
H41    H     0.10844   0.50904   0.00000   0.00000  Uiso   1.00
H42    H     0.13077   0.67084   0.00000   0.00000  Uiso   1.00
N43    N     0.02757   0.51283   0.00000   0.00000  Uiso   1.00
C44    C     0.94461   0.43551   0.00000   0.00000  Uiso   1.00
H45    H     0.96384   0.41103   0.00000   0.00000  Uiso   1.00
N46    N     0.70168   0.38668   0.00000   0.00000  Uiso   1.00
C47    C     0.62871   0.40573   0.00000   0.00000  Uiso   1.00
C48    C     0.57293   0.38444   0.00000   0.00000  Uiso   1.00
C49    C     0.55264   0.41858   0.00000   0.00000  Uiso   1.00
C50    C     0.58776   0.47479   0.00000   0.00000  Uiso   1.00
C51    C     0.64371   0.49672   0.00000   0.00000  Uiso   1.00
C52    C     0.66440   0.46192   0.00000   0.00000  Uiso   1.00
C53    C     0.64849   0.36840   0.00000   0.00000  Uiso   1.00
H54    H     0.54474   0.34129   0.00000   0.00000  Uiso   1.00
H55    H     0.70781   0.47852   0.00000   0.00000  Uiso   1.00
H56    H     0.50904   0.40060   0.00000   0.00000  Uiso   1.00
H57    H     0.67084   0.54007   0.00000   0.00000  Uiso   1.00
N58    N     0.51283   0.48525   0.00000   0.00000  Uiso   1.00
C59    C     0.43551   0.49089   0.00000   0.00000  Uiso   1.00
H60    H     0.41103   0.44719   0.00000   0.00000  Uiso   1.00
N61    N     0.61332   0.31500   0.00000   0.00000  Uiso   1.00
C62    C     0.59428   0.22298   0.00000   0.00000  Uiso   1.00
C63    C     0.61556   0.18848   0.00000   0.00000  Uiso   1.00
C64    C     0.58142   0.13406   0.00000   0.00000  Uiso   1.00
C65    C     0.52521   0.11298   0.00000   0.00000  Uiso   1.00
C66    C     0.50328   0.14700   0.00000   0.00000  Uiso   1.00
C67    C     0.53808   0.20248   0.00000   0.00000  Uiso   1.00
C68    C     0.63160   0.28009   0.00000   0.00000  Uiso   1.00
H69    H     0.65871   0.20345   0.00000   0.00000  Uiso   1.00
H70    H     0.52148   0.22929   0.00000   0.00000  Uiso   1.00
H71    H     0.59940   0.10844   0.00000   0.00000  Uiso   1.00
H72    H     0.45993   0.13077   0.00000   0.00000  Uiso   1.00
N73    N     0.51475   0.02757   0.00000   0.00000  Uiso   1.00
C74    C     0.50911   0.94461   0.00000   0.00000  Uiso   1.00
H75    H     0.55281   0.96384   0.00000   0.00000  Uiso   1.00
N76    N     0.68500   0.29832   0.00000   0.00000  Uiso   1.00
C77    C     0.77702   0.37129   0.00000   0.00000  Uiso   1.00
C78    C     0.81152   0.42707   0.00000   0.00000  Uiso   1.00
C79    C     0.86594   0.44736   0.00000   0.00000  Uiso   1.00
C80    C     0.88702   0.41224   0.00000   0.00000  Uiso   1.00
C81    C     0.85300   0.35629   0.00000   0.00000  Uiso   1.00
C82    C     0.79752   0.33560   0.00000   0.00000  Uiso   1.00
C83    C     0.71991   0.35151   0.00000   0.00000  Uiso   1.00
H84    H     0.79655   0.45526   0.00000   0.00000  Uiso   1.00
H85    H     0.77071   0.29219   0.00000   0.00000  Uiso   1.00
H86    H     0.89156   0.49096   0.00000   0.00000  Uiso   1.00
H87    H     0.86923   0.32916   0.00000   0.00000  Uiso   1.00
N88    N     0.97243   0.48717   0.00000   0.00000  Uiso   1.00
C89    C     0.05539   0.56449   0.00000   0.00000  Uiso   1.00
H90    H     0.03616   0.58897   0.00000   0.00000  Uiso   1.00
loop_
_geom_bond_atom_site_label_1
_geom_bond_atom_site_label_2
_geom_bond_distance
_geom_bond_site_symmetry_2
_ccdc_geom_bond_type
N1     C8      1.336   .     D
N1     C38     1.342   .     S
C2     C3      1.392   .     D
C2     C7      1.406   .     S
C2     C8      1.434   .     S
C3     C4      1.360   .     S
C3     H9      1.083   .     S
C4     C5      1.404   .     D
C4     H11     1.083   .     S
C5     C6      1.394   .     S
C5     C59     1.432   .     S
C6     C7      1.386   .     D
C6     H12     1.083   .     S
C7     H10     1.083   .     S
C8     N16     1.342   .     S
N13    N58     1.364   .     S
N13    C59     1.278   .     D
C14    H15     1.083   .     S
C14    C50     1.432   .     S
C14    N58     1.278   .     D
N16    C23     1.336   .     D
C17    C18     1.392   .     S
C17    C22     1.406   .     D
C17    C23     1.434   .     S
C18    C19     1.360   .     D
C18    H24     1.083   .     S
C19    C20     1.404   .     S
C19    H26     1.083   .     S
C20    C21     1.394   .     D
C20    C74     1.432   .     S
C21    C22     1.386   .     S
C21    H27     1.083   .     S
C22    H25     1.083   .     S
C23    N31     1.342   .     S
N28    N73     1.364   1_565 S
N28    C74     1.278   .     D
C29    H30     1.083   .     S
C29    C65     1.432   .     S
C29    N73     1.278   .     D
N31    C38     1.336   .     D
C32    C33     1.392   .     D
C32    C37     1.406   .     S
C32    C38     1.434   .     S
C33    C34     1.360   .     S
C33    H39     1.083   .     S
C34    C35     1.404   .     D
C34    H41     1.083   .     S
C35    C36     1.394   .     S
C35    C89     1.432   .     S
C36    C37     1.386   .     D
C36    H42     1.083   .     S
C37    H40     1.083   .     S
N43    N88     1.364   1_455 S
N43    C89     1.278   .     D
C44    H45     1.083   .     S
C44    C80     1.432   .     S
C44    N88     1.278   .     D
N46    C53     1.336   .     D
N46    C83     1.342   .     S
C47    C48     1.392   .     D
C47    C52     1.406   .     S
C47    C53     1.434   .     S
C48    C49     1.360   .     S
C48    H54     1.083   .     S
C49    C50     1.404   .     D
C49    H56     1.083   .     S
C50    C51     1.394   .     S
C51    C52     1.386   .     D
C51    H57     1.083   .     S
C52    H55     1.083   .     S
C53    N61     1.342   .     S
C59    H60     1.083   .     S
N61    C68     1.336   .     D
C62    C63     1.392   .     D
C62    C67     1.406   .     S
C62    C68     1.434   .     S
C63    C64     1.360   .     S
C63    H69     1.083   .     S
C64    C65     1.404   .     D
C64    H71     1.083   .     S
C65    C66     1.394   .     S
C66    C67     1.386   .     D
C66    H72     1.083   .     S
C67    H70     1.083   .     S
C68    N76     1.342   .     S
N73    N28     1.364   1_545 S
C74    H75     1.083   .     S
N76    C83     1.336   .     D
C77    C78     1.392   .     D
C77    C82     1.406   .     S
C77    C83     1.434   .     S
C78    C79     1.360   .     S
C78    H84     1.083   .     S
C79    C80     1.404   .     D
C79    H86     1.083   .     S
C80    C81     1.394   .     S
C81    C82     1.386   .     D
C81    H87     1.083   .     S
C82    H85     1.083   .     S
N88    N43     1.364   1_655 S
C89    H90     1.083   .     S
