data_317
_audit_creation_date              2023-09-08
_audit_creation_method            'Materials Studio'
_symmetry_space_group_name_H-M    'P1'
_symmetry_Int_Tables_number       1
_symmetry_cell_setting            triclinic
loop_
_symmetry_equiv_pos_as_xyz
  x,y,z
_cell_length_a                    18.1590
_cell_length_b                    18.1590
_cell_length_c                    3.4970
_cell_angle_alpha                 90.0000
_cell_angle_beta                  90.0000
_cell_angle_gamma                 120.0000
loop_
_atom_site_label
_atom_site_type_symbol
_atom_site_fract_x
_atom_site_fract_y
_atom_site_fract_z
_atom_site_U_iso_or_equiv
_atom_site_adp_type
_atom_site_occupancy
C1     C     0.15464   0.56364   0.50000   0.00000  Uiso   1.00
N2     N     0.10738   0.59749   0.50000   0.00000  Uiso   1.00
C3     C     0.84309   0.43862   0.50000   0.00000  Uiso   1.00
C4     C     0.89765   0.40528   0.50000   0.00000  Uiso   1.00
H5     H     0.87439   0.34534   0.50000   0.00000  Uiso   1.00
C6     C     0.98333   0.45691   0.50000   0.00000  Uiso   1.00
H7     H     0.01947   0.43286   0.50000   0.00000  Uiso   1.00
C8     C     0.01824   0.54298   0.50000   0.00000  Uiso   1.00
C9     C     0.96426   0.57862   0.50000   0.00000  Uiso   1.00
H10    H     0.98782   0.63874   0.50000   0.00000  Uiso   1.00
C11    C     0.87742   0.52527   0.50000   0.00000  Uiso   1.00
H12    H     0.84080   0.54868   0.50000   0.00000  Uiso   1.00
C13    C     0.36742   0.75401   0.50000   0.00000  Uiso   1.00
C14    C     0.28036   0.70135   0.50000   0.00000  Uiso   1.00
H15    H     0.23669   0.72988   0.50000   0.00000  Uiso   1.00
C16    C     0.61655   0.36657   0.50000   0.00000  Uiso   1.00
N17    N     0.70015   0.41959   0.50000   0.00000  Uiso   1.00
H18    H     0.13994   0.50246   0.50000   0.00000  Uiso   1.00
C19    C     0.43636   0.59100   0.50000   0.00000  Uiso   1.00
N20    N     0.40251   0.50989   0.50000   0.00000  Uiso   1.00
C21    C     0.56138   0.40447   0.50000   0.00000  Uiso   1.00
C22    C     0.59472   0.49237   0.50000   0.00000  Uiso   1.00
H23    H     0.65466   0.52905   0.50000   0.00000  Uiso   1.00
C24    C     0.54309   0.52642   0.50000   0.00000  Uiso   1.00
H25    H     0.56714   0.58661   0.50000   0.00000  Uiso   1.00
C26    C     0.45702   0.47526   0.50000   0.00000  Uiso   1.00
C27    C     0.42138   0.38564   0.50000   0.00000  Uiso   1.00
H28    H     0.36126   0.34908   0.50000   0.00000  Uiso   1.00
C29    C     0.47473   0.35215   0.50000   0.00000  Uiso   1.00
H30    H     0.45132   0.29212   0.50000   0.00000  Uiso   1.00
C31    C     0.24599   0.61341   0.50000   0.00000  Uiso   1.00
C32    C     0.29865   0.57901   0.50000   0.00000  Uiso   1.00
H33    H     0.27012   0.50681   0.50000   0.00000  Uiso   1.00
C34    C     0.63343   0.24998   0.50000   0.00000  Uiso   1.00
N35    N     0.58041   0.28056   0.50000   0.00000  Uiso   1.00
H36    H     0.49754   0.63748   0.50000   0.00000  Uiso   1.00
C37    C     0.40900   0.84536   0.50000   0.00000  Uiso   1.00
N38    N     0.49011   0.89262   0.50000   0.00000  Uiso   1.00
C39    C     0.59553   0.15691   0.50000   0.00000  Uiso   1.00
C40    C     0.50763   0.10235   0.50000   0.00000  Uiso   1.00
H41    H     0.47095   0.12561   0.50000   0.00000  Uiso   1.00
C42    C     0.47358   0.01667   0.50000   0.00000  Uiso   1.00
H43    H     0.41339   0.98053   0.50000   0.00000  Uiso   1.00
C44    C     0.52474   0.98176   0.50000   0.00000  Uiso   1.00
C45    C     0.61436   0.03574   0.50000   0.00000  Uiso   1.00
H46    H     0.65092   0.01218   0.50000   0.00000  Uiso   1.00
C47    C     0.64785   0.12258   0.50000   0.00000  Uiso   1.00
H48    H     0.70788   0.15920   0.50000   0.00000  Uiso   1.00
C49    C     0.38659   0.63258   0.50000   0.00000  Uiso   1.00
C50    C     0.42099   0.71964   0.50000   0.00000  Uiso   1.00
H51    H     0.49319   0.76331   0.50000   0.00000  Uiso   1.00
C52    C     0.75002   0.38345   0.50000   0.00000  Uiso   1.00
N53    N     0.71944   0.29985   0.50000   0.00000  Uiso   1.00
H54    H     0.36252   0.86006   0.50000   0.00000  Uiso   1.00
loop_
_geom_bond_atom_site_label_1
_geom_bond_atom_site_label_2
_geom_bond_distance
_geom_bond_site_symmetry_2
_ccdc_geom_bond_type
C1     N2      1.281   .     D
C1     H18     1.004   .     S
C1     C31     1.439   .     S
N2     C8      1.413   .     S
C3     C4      1.396   .     D
C3     C11     1.372   .     S
C3     C52     1.472   .     S
C4     H5      0.950   .     S
C4     C6      1.357   .     S
C6     H7      0.953   1_655 S
C6     C8      1.362   1_655 D
H7     C6      0.953   1_455 S
C8     C6      1.362   1_455 D
C8     C9      1.419   1_455 S
C9     C8      1.419   1_655 S
C9     H10     0.953   .     S
C9     C11     1.378   .     D
C11    H12     0.952   .     S
C13    C14     1.379   .     D
C13    C37     1.439   .     S
C13    C50     1.394   .     S
C14    H15     1.144   .     S
C14    C31     1.394   .     S
C16    N17     1.330   .     S
C16    C21     1.472   .     S
C16    N35     1.358   .     D
N17    C52     1.358   .     D
C19    N20     1.281   .     D
C19    H36     1.004   .     S
C19    C49     1.439   .     S
N20    C26     1.413   .     S
C21    C22     1.396   .     D
C21    C29     1.372   .     S
C22    H23     0.950   .     S
C22    C24     1.357   .     S
C24    H25     0.953   .     S
C24    C26     1.362   .     D
C26    C27     1.419   .     S
C27    H28     0.953   .     S
C27    C29     1.378   .     D
C29    H30     0.952   .     S
C31    C32     1.379   .     D
C32    H33     1.144   .     S
C32    C49     1.394   .     S
C34    N35     1.330   .     S
C34    C39     1.472   .     S
C34    N53     1.358   .     D
C37    N38     1.281   .     D
C37    H54     1.004   .     S
N38    C44     1.413   .     S
C39    C40     1.396   .     D
C39    C47     1.372   .     S
C40    H41     0.950   .     S
C40    C42     1.357   .     S
C42    H43     0.953   1_545 S
C42    C44     1.362   1_545 D
H43    C42     0.953   1_565 S
C44    C42     1.362   1_565 D
C44    C45     1.419   1_565 S
C45    C44     1.419   1_545 S
C45    H46     0.953   .     S
C45    C47     1.378   .     D
C47    H48     0.952   .     S
C49    C50     1.379   .     D
C50    H51     1.144   .     S
C52    N53     1.330   .     S
