data_318
_audit_creation_date              2023-09-08
_audit_creation_method            'Materials Studio'
_symmetry_space_group_name_H-M    'P1'
_symmetry_Int_Tables_number       1
_symmetry_cell_setting            triclinic
loop_
_symmetry_equiv_pos_as_xyz
  x,y,z
_cell_length_a                    16.1800
_cell_length_b                    16.1800
_cell_length_c                    8.0000
_cell_angle_alpha                 90.0000
_cell_angle_beta                  90.0000
_cell_angle_gamma                 120.0000
loop_
_atom_site_label
_atom_site_type_symbol
_atom_site_fract_x
_atom_site_fract_y
_atom_site_fract_z
_atom_site_U_iso_or_equiv
_atom_site_adp_type
_atom_site_occupancy
C1     C     0.46390   0.25997   0.24127   0.00000  Uiso   1.00
C2     C     0.74003   0.20393   0.24127   0.00000  Uiso   1.00
C3     C     0.79607   0.53610   0.24127   0.00000  Uiso   1.00
C4     C     0.13167   0.59867   0.79813   0.00000  Uiso   1.00
C5     C     0.40133   0.53300   0.79813   0.00000  Uiso   1.00
C6     C     0.46700   0.86833   0.79813   0.00000  Uiso   1.00
N7     N     0.40383   0.16913   0.25226   0.00000  Uiso   1.00
N8     N     0.83087   0.23470   0.25226   0.00000  Uiso   1.00
N9     N     0.76530   0.59617   0.25226   0.00000  Uiso   1.00
N10    N     0.07131   0.50994   0.76509   0.00000  Uiso   1.00
N11    N     0.49006   0.56137   0.76509   0.00000  Uiso   1.00
N12    N     0.43863   0.92869   0.76509   0.00000  Uiso   1.00
C13    C     0.24412   0.04318   0.32804   0.00000  Uiso   1.00
C14    C     0.95682   0.20094   0.32804   0.00000  Uiso   1.00
C15    C     0.79906   0.75588   0.32804   0.00000  Uiso   1.00
C16    C     0.91737   0.38547   0.66379   0.00000  Uiso   1.00
C17    C     0.61453   0.53190   0.66379   0.00000  Uiso   1.00
C18    C     0.46810   0.08263   0.66379   0.00000  Uiso   1.00
C19    C     0.14505   0.00150   0.32197   0.00000  Uiso   1.00
C20    C     0.99850   0.14355   0.32197   0.00000  Uiso   1.00
C21    C     0.85645   0.85495   0.32197   0.00000  Uiso   1.00
C22    C     0.81831   0.34203   0.65418   0.00000  Uiso   1.00
C23    C     0.65797   0.47628   0.65418   0.00000  Uiso   1.00
C24    C     0.52372   0.18168   0.65418   0.00000  Uiso   1.00
H25    H     0.27557   0.01085   0.40416   0.00000  Uiso   1.00
H26    H     0.98915   0.26472   0.40416   0.00000  Uiso   1.00
H27    H     0.73528   0.72443   0.40416   0.00000  Uiso   1.00
H28    H     0.95362   0.35452   0.59763   0.00000  Uiso   1.00
H29    H     0.64548   0.59910   0.59763   0.00000  Uiso   1.00
H30    H     0.40090   0.04638   0.59763   0.00000  Uiso   1.00
H31    H     0.10155   0.93822   0.39582   0.00000  Uiso   1.00
H32    H     0.06178   0.16333   0.39582   0.00000  Uiso   1.00
H33    H     0.83667   0.89844   0.39582   0.00000  Uiso   1.00
H34    H     0.77939   0.27778   0.58069   0.00000  Uiso   1.00
H35    H     0.72222   0.50161   0.58069   0.00000  Uiso   1.00
H36    H     0.49839   0.22061   0.58069   0.00000  Uiso   1.00
C37    C     0.90675   0.73972   0.13834   0.00000  Uiso   1.00
C38    C     0.26028   0.16703   0.13834   0.00000  Uiso   1.00
C39    C     0.83297   0.09325   0.13834   0.00000  Uiso   1.00
C40    C     0.58570   0.07828   0.84480   0.00000  Uiso   1.00
C41    C     0.92172   0.50742   0.84480   0.00000  Uiso   1.00
C42    C     0.49258   0.41430   0.84480   0.00000  Uiso   1.00
C43    C     0.96319   0.83888   0.12950   0.00000  Uiso   1.00
C44    C     0.16112   0.12431   0.12950   0.00000  Uiso   1.00
C45    C     0.87569   0.03681   0.12950   0.00000  Uiso   1.00
C46    C     0.64103   0.17738   0.83595   0.00000  Uiso   1.00
C47    C     0.82262   0.46365   0.83595   0.00000  Uiso   1.00
C48    C     0.53635   0.35897   0.83595   0.00000  Uiso   1.00
H49    H     0.92630   0.69631   0.06389   0.00000  Uiso   1.00
H50    H     0.30369   0.22999   0.06389   0.00000  Uiso   1.00
H51    H     0.77001   0.07369   0.06389   0.00000  Uiso   1.00
H52    H     0.61005   0.04017   0.92289   0.00000  Uiso   1.00
H53    H     0.95983   0.56988   0.92289   0.00000  Uiso   1.00
H54    H     0.43012   0.38995   0.92289   0.00000  Uiso   1.00
H55    H     0.02568   0.87007   0.04988   0.00000  Uiso   1.00
H56    H     0.12993   0.15561   0.04988   0.00000  Uiso   1.00
H57    H     0.84439   0.97432   0.04988   0.00000  Uiso   1.00
H58    H     0.70722   0.21300   0.90501   0.00000  Uiso   1.00
H59    H     0.78700   0.49423   0.90501   0.00000  Uiso   1.00
H60    H     0.50577   0.29278   0.90501   0.00000  Uiso   1.00
C61    C     0.72922   0.43251   0.24686   0.00000  Uiso   1.00
C62    C     0.56749   0.29671   0.24686   0.00000  Uiso   1.00
C63    C     0.70329   0.27078   0.24686   0.00000  Uiso   1.00
C64    C     0.39809   0.76535   0.80209   0.00000  Uiso   1.00
C65    C     0.23465   0.63274   0.80209   0.00000  Uiso   1.00
C66    C     0.36726   0.60191   0.80209   0.00000  Uiso   1.00
C67    C     0.76535   0.36992   0.24685   0.00000  Uiso   1.00
C68    C     0.63008   0.39543   0.24685   0.00000  Uiso   1.00
C69    C     0.60457   0.23465   0.24685   0.00000  Uiso   1.00
C70    C     0.43158   0.70061   0.80269   0.00000  Uiso   1.00
C71    C     0.29939   0.73097   0.80269   0.00000  Uiso   1.00
C72    C     0.26903   0.56842   0.80269   0.00000  Uiso   1.00
C73    C     0.82491   0.69761   0.24004   0.00000  Uiso   1.00
C74    C     0.30239   0.12730   0.24004   0.00000  Uiso   1.00
C75    C     0.87270   0.17509   0.24004   0.00000  Uiso   1.00
C76    C     0.49888   0.03016   0.75733   0.00000  Uiso   1.00
C77    C     0.96984   0.46873   0.75733   0.00000  Uiso   1.00
C78    C     0.53127   0.50111   0.75733   0.00000  Uiso   1.00
C79    C     0.93935   0.89750   0.22305   0.00000  Uiso   1.00
C80    C     0.10250   0.04185   0.22305   0.00000  Uiso   1.00
C81    C     0.95815   0.06065   0.22305   0.00000  Uiso   1.00
C82    C     0.61071   0.23031   0.74078   0.00000  Uiso   1.00
C83    C     0.76969   0.38040   0.74078   0.00000  Uiso   1.00
C84    C     0.61960   0.38929   0.74078   0.00000  Uiso   1.00
H85    H     0.60134   0.44324   0.24501   0.00000  Uiso   1.00
H86    H     0.55676   0.15810   0.24501   0.00000  Uiso   1.00
H87    H     0.84190   0.39866   0.24501   0.00000  Uiso   1.00
H88    H     0.87175   0.56144   0.22916   0.00000  Uiso   1.00
H89    H     0.43855   0.31030   0.22916   0.00000  Uiso   1.00
H90    H     0.68970   0.12825   0.22916   0.00000  Uiso   1.00
N91    N     0.00000   0.00000   0.21950   0.00000  Uiso   1.00
H92    H     0.27268   0.78049   0.80215   0.00000  Uiso   1.00
H93    H     0.21951   0.49219   0.80215   0.00000  Uiso   1.00
H94    H     0.50781   0.72732   0.80215   0.00000  Uiso   1.00
H95    H     0.54207   0.89228   0.81487   0.00000  Uiso   1.00
H96    H     0.10772   0.64980   0.81487   0.00000  Uiso   1.00
H97    H     0.35020   0.45793   0.81487   0.00000  Uiso   1.00
N98    N     0.66667   0.33333   0.73634   0.00000  Uiso   1.00
loop_
_geom_bond_atom_site_label_1
_geom_bond_atom_site_label_2
_geom_bond_distance
_geom_bond_site_symmetry_2
_ccdc_geom_bond_type
C1     N7      1.298   .     D
C1     C62     1.472   .     S
C1     H89     1.084   .     S
C2     N8      1.298   .     D
C2     C63     1.472   .     S
C2     H90     1.084   .     S
C3     N9      1.298   .     D
C3     C61     1.472   .     S
C3     H88     1.084   .     S
C4     N10     1.297   .     D
C4     C65     1.471   .     S
C4     H96     1.083   .     S
C5     N11     1.297   .     D
C5     C66     1.471   .     S
C5     H97     1.083   .     S
C6     N12     1.297   .     D
C6     C64     1.471   .     S
C6     H95     1.083   .     S
N7     C74     1.432   .     S
N8     C75     1.432   .     S
N9     C73     1.432   .     S
N10    C77     1.431   1_455 S
N11    C78     1.431   .     S
N12    C76     1.431   1_565 S
C13    C19     1.395   .     S
C13    H25     1.081   .     S
C13    C74     1.398   .     D
C14    C20     1.395   .     S
C14    H26     1.081   .     S
C14    C75     1.398   .     D
C15    C21     1.395   .     S
C15    H27     1.081   .     S
C15    C73     1.398   .     D
C16    C22     1.394   .     D
C16    H28     1.081   .     S
C16    C77     1.397   .     S
C17    C23     1.394   .     D
C17    H29     1.081   .     S
C17    C78     1.397   .     S
C18    C24     1.394   .     D
C18    H30     1.081   .     S
C18    C76     1.397   .     S
C19    H31     1.083   1_545 S
C19    C80     1.406   .     D
C20    H32     1.083   1_655 S
C20    C81     1.406   .     D
C21    H33     1.083   .     S
C21    C79     1.406   .     D
C22    H34     1.081   .     S
C22    C83     1.405   .     S
C23    H35     1.081   .     S
C23    C84     1.405   .     S
C24    H36     1.081   .     S
C24    C82     1.405   .     S
H31    C19     1.083   1_565 S
H32    C20     1.083   1_455 S
C37    C43     1.396   .     D
C37    H49     1.082   .     S
C37    C73     1.406   .     S
C38    C44     1.396   .     D
C38    H50     1.082   .     S
C38    C74     1.406   .     S
C39    C45     1.396   .     D
C39    H51     1.082   .     S
C39    C75     1.406   .     S
C40    C46     1.394   .     S
C40    H52     1.081   .     S
C40    C76     1.405   .     D
C41    C47     1.394   .     S
C41    H53     1.081   .     S
C41    C77     1.405   .     D
C42    C48     1.394   .     S
C42    H54     1.081   .     S
C42    C78     1.405   .     D
C43    H55     1.083   1_655 S
C43    C79     1.405   .     S
C44    H56     1.083   .     S
C44    C80     1.405   .     S
C45    H57     1.083   1_545 S
C45    C81     1.405   .     S
C46    H58     1.080   .     S
C46    C82     1.405   .     D
C47    H59     1.080   .     S
C47    C83     1.405   .     D
C48    H60     1.080   .     S
C48    C84     1.405   .     D
H55    C43     1.083   1_455 S
H57    C45     1.083   1_565 S
C61    C67     1.400   .     S
C61    C68     1.404   .     D
C62    C68     1.400   .     S
C62    C69     1.404   .     D
C63    C67     1.404   .     D
C63    C69     1.400   .     S
C64    C70     1.400   .     D
C64    C71     1.404   .     S
C65    C71     1.400   .     D
C65    C72     1.404   .     S
C66    C70     1.404   .     S
C66    C72     1.400   .     D
C67    H87     1.084   .     S
C68    H85     1.084   .     S
C69    H86     1.084   .     S
C70    H94     1.084   .     S
C71    H92     1.084   .     S
C72    H93     1.084   .     S
C76    N12     1.431   1_545 S
C77    N10     1.431   1_655 S
C79    N91     1.445   1_665 S
C80    N91     1.445   .     S
C81    N91     1.445   1_655 S
C82    N98     1.446   .     S
C83    N98     1.446   .     S
C84    N98     1.446   .     S
N91    C81     1.445   1_455 S
N91    C79     1.445   1_445 S
