data_319
_audit_creation_date              2023-09-08
_audit_creation_method            'Materials Studio'
_symmetry_space_group_name_H-M    'P1'
_symmetry_Int_Tables_number       1
_symmetry_cell_setting            triclinic
loop_
_symmetry_equiv_pos_as_xyz
  x,y,z
_cell_length_a                    23.1225
_cell_length_b                    23.1225
_cell_length_c                    3.3636
_cell_angle_alpha                 90.0000
_cell_angle_beta                  90.0000
_cell_angle_gamma                 90.0000
loop_
_atom_site_label
_atom_site_type_symbol
_atom_site_fract_x
_atom_site_fract_y
_atom_site_fract_z
_atom_site_U_iso_or_equiv
_atom_site_adp_type
_atom_site_occupancy
B1     B     0.87292   0.50000   0.00000   0.00000  Uiso   1.00
B2     B     0.12708   0.50000   0.00000   0.00000  Uiso   1.00
B3     B     0.50000   0.87292   0.00000   0.00000  Uiso   1.00
B4     B     0.50000   0.12708   0.00000   0.00000  Uiso   1.00
C5     C     0.46937   0.67932   0.00000   0.00000  Uiso   1.00
C6     C     0.53062   0.32068   0.00000   0.00000  Uiso   1.00
C7     C     0.32068   0.46937   0.00000   0.00000  Uiso   1.00
C8     C     0.67932   0.53062   0.00000   0.00000  Uiso   1.00
C9     C     0.53062   0.67932   0.00000   0.00000  Uiso   1.00
C10    C     0.46937   0.32068   0.00000   0.00000  Uiso   1.00
C11    C     0.67932   0.46937   0.00000   0.00000  Uiso   1.00
C12    C     0.32068   0.53062   0.00000   0.00000  Uiso   1.00
C13    C     0.96992   0.44749   0.00000   0.00000  Uiso   1.00
C14    C     0.03008   0.55251   0.00000   0.00000  Uiso   1.00
C15    C     0.55251   0.96992   0.00000   0.00000  Uiso   1.00
C16    C     0.44749   0.03008   0.00000   0.00000  Uiso   1.00
C17    C     0.03008   0.44749   0.00000   0.00000  Uiso   1.00
C18    C     0.96992   0.55251   0.00000   0.00000  Uiso   1.00
C19    C     0.44749   0.96992   0.00000   0.00000  Uiso   1.00
C20    C     0.55251   0.03008   0.00000   0.00000  Uiso   1.00
C21    C     0.06101   0.50000   0.00000   0.00000  Uiso   1.00
C22    C     0.93899   0.50000   0.00000   0.00000  Uiso   1.00
C23    C     0.50000   0.06101   0.00000   0.00000  Uiso   1.00
C24    C     0.50000   0.93899   0.00000   0.00000  Uiso   1.00
C25    C     0.56185   0.26876   0.00000   0.00000  Uiso   1.00
C26    C     0.43815   0.73124   0.00000   0.00000  Uiso   1.00
C27    C     0.73124   0.56185   0.00000   0.00000  Uiso   1.00
C28    C     0.26876   0.43815   0.00000   0.00000  Uiso   1.00
C29    C     0.43815   0.26876   0.00000   0.00000  Uiso   1.00
C30    C     0.56185   0.73124   0.00000   0.00000  Uiso   1.00
C31    C     0.26876   0.56185   0.00000   0.00000  Uiso   1.00
C32    C     0.73124   0.43815   0.00000   0.00000  Uiso   1.00
C33    C     0.53050   0.21750   0.00000   0.00000  Uiso   1.00
C34    C     0.46950   0.78250   0.00000   0.00000  Uiso   1.00
C35    C     0.78250   0.53050   0.00000   0.00000  Uiso   1.00
C36    C     0.21750   0.46950   0.00000   0.00000  Uiso   1.00
C37    C     0.46950   0.21750   0.00000   0.00000  Uiso   1.00
C38    C     0.53050   0.78250   0.00000   0.00000  Uiso   1.00
C39    C     0.21750   0.53050   0.00000   0.00000  Uiso   1.00
C40    C     0.78250   0.46950   0.00000   0.00000  Uiso   1.00
C41    C     0.45156   0.61921   0.00000   0.00000  Uiso   1.00
C42    C     0.54844   0.38079   0.00000   0.00000  Uiso   1.00
C43    C     0.38079   0.45156   0.00000   0.00000  Uiso   1.00
C44    C     0.61921   0.54844   0.00000   0.00000  Uiso   1.00
C45    C     0.54844   0.61921   0.00000   0.00000  Uiso   1.00
C46    C     0.45156   0.38079   0.00000   0.00000  Uiso   1.00
C47    C     0.61921   0.45156   0.00000   0.00000  Uiso   1.00
C48    C     0.38079   0.54844   0.00000   0.00000  Uiso   1.00
H49    H     0.94621   0.40704   0.00000   0.00000  Uiso   1.00
H50    H     0.05379   0.59296   0.00000   0.00000  Uiso   1.00
H51    H     0.59296   0.94621   0.00000   0.00000  Uiso   1.00
H52    H     0.40704   0.05379   0.00000   0.00000  Uiso   1.00
H53    H     0.05379   0.40704   0.00000   0.00000  Uiso   1.00
H54    H     0.94621   0.59296   0.00000   0.00000  Uiso   1.00
H55    H     0.40704   0.94621   0.00000   0.00000  Uiso   1.00
H56    H     0.59296   0.05379   0.00000   0.00000  Uiso   1.00
H57    H     0.39103   0.73049   0.00000   0.00000  Uiso   1.00
H58    H     0.60897   0.26951   0.00000   0.00000  Uiso   1.00
H59    H     0.26951   0.39103   0.00000   0.00000  Uiso   1.00
H60    H     0.73049   0.60897   0.00000   0.00000  Uiso   1.00
H61    H     0.60897   0.73049   0.00000   0.00000  Uiso   1.00
H62    H     0.39103   0.26951   0.00000   0.00000  Uiso   1.00
H63    H     0.73049   0.39103   0.00000   0.00000  Uiso   1.00
H64    H     0.26951   0.60897   0.00000   0.00000  Uiso   1.00
N65    N     0.58346   0.50000   0.00000   0.00000  Uiso   1.00
N66    N     0.41654   0.50000   0.00000   0.00000  Uiso   1.00
N67    N     0.50000   0.58346   0.00000   0.00000  Uiso   1.00
N68    N     0.50000   0.41654   0.00000   0.00000  Uiso   1.00
N69    N     0.39680   0.60320   0.00000   0.00000  Uiso   1.00
N70    N     0.60320   0.39680   0.00000   0.00000  Uiso   1.00
N71    N     0.39680   0.39680   0.00000   0.00000  Uiso   1.00
N72    N     0.60320   0.60320   0.00000   0.00000  Uiso   1.00
Ni73   Ni    0.50000   0.50000   0.00000   0.00000  Uiso   1.00
O74    O     0.83730   0.55009   0.00000   0.00000  Uiso   1.00
O75    O     0.16270   0.44991   0.00000   0.00000  Uiso   1.00
O76    O     0.44991   0.83730   0.00000   0.00000  Uiso   1.00
O77    O     0.55009   0.16270   0.00000   0.00000  Uiso   1.00
O78    O     0.16270   0.55009   0.00000   0.00000  Uiso   1.00
O79    O     0.83730   0.44991   0.00000   0.00000  Uiso   1.00
O80    O     0.55009   0.83730   0.00000   0.00000  Uiso   1.00
O81    O     0.44991   0.16270   0.00000   0.00000  Uiso   1.00
loop_
_geom_bond_atom_site_label_1
_geom_bond_atom_site_label_2
_geom_bond_distance
_geom_bond_site_symmetry_2
_ccdc_geom_bond_type
B1     C22     1.528   .     S
B1     O74     1.421   .     S
B1     O79     1.421   .     S
B2     C21     1.528   .     S
B2     O75     1.421   .     S
B2     O78     1.421   .     S
B3     C24     1.528   .     S
B3     O76     1.421   .     S
B3     O80     1.421   .     S
B4     C23     1.528   .     S
B4     O77     1.421   .     S
B4     O81     1.421   .     S
C5     C9      1.416   .     D
C5     C26     1.401   .     S
C5     C41     1.450   .     S
C6     C10     1.416   .     S
C6     C25     1.401   .     D
C6     C42     1.450   .     S
C7     C12     1.416   .     D
C7     C28     1.401   .     S
C7     C43     1.450   .     S
C8     C11     1.416   .     S
C8     C27     1.401   .     D
C8     C44     1.450   .     S
C9     C30     1.401   .     S
C9     C45     1.450   .     S
C10    C29     1.401   .     D
C10    C46     1.450   .     S
C11    C32     1.401   .     D
C11    C47     1.450   .     S
C12    C31     1.401   .     S
C12    C48     1.450   .     S
C13    C17     1.391   1_655 D
C13    C22     1.409   .     S
C13    H49     1.084   .     S
C14    C18     1.391   1_455 S
C14    C21     1.409   .     D
C14    H50     1.084   .     S
C15    C20     1.391   1_565 S
C15    C24     1.409   .     D
C15    H51     1.084   .     S
C16    C19     1.391   1_545 D
C16    C23     1.409   .     S
C16    H52     1.084   .     S
C17    C13     1.391   1_455 D
C17    C21     1.409   .     S
C17    H53     1.084   .     S
C18    C14     1.391   1_655 S
C18    C22     1.409   .     D
C18    H54     1.084   .     S
C19    C16     1.391   1_565 D
C19    C24     1.409   .     S
C19    H55     1.084   .     S
C20    C15     1.391   1_545 S
C20    C23     1.409   .     D
C20    H56     1.084   .     S
C25    C33     1.389   .     S
C25    H58     1.090   .     S
C26    C34     1.389   .     D
C26    H57     1.090   .     S
C27    C35     1.389   .     S
C27    H60     1.090   .     S
C28    C36     1.389   .     D
C28    H59     1.090   .     S
C29    C37     1.389   .     S
C29    H62     1.090   .     S
C30    C38     1.389   .     D
C30    H61     1.090   .     S
C31    C39     1.389   .     D
C31    H64     1.090   .     S
C32    C40     1.389   .     S
C32    H63     1.090   .     S
C33    C37     1.410   .     D
C33    O77     1.346   .     S
C34    C38     1.410   .     S
C34    O76     1.346   .     S
C35    C40     1.410   .     D
C35    O74     1.346   .     S
C36    C39     1.410   .     S
C36    O75     1.346   .     S
C37    O81     1.346   .     S
C38    O80     1.346   .     S
C39    O78     1.346   .     S
C40    O79     1.346   .     S
C41    N67     1.392   .     D
C41    N69     1.319   .     S
C42    N68     1.392   .     D
C42    N70     1.319   .     S
C43    N66     1.392   .     D
C43    N71     1.319   .     S
C44    N65     1.392   .     D
C44    N72     1.319   .     S
C45    N67     1.392   .     S
C45    N72     1.319   .     D
C46    N68     1.392   .     S
C46    N71     1.319   .     D
C47    N65     1.392   .     S
C47    N70     1.319   .     D
C48    N66     1.392   .     S
C48    N69     1.319   .     D
N65    Ni73    1.930   .     S
N66    Ni73    1.930   .     S
N67    Ni73    1.930   .     S
N68    Ni73    1.930   .     S
