data_32
_audit_creation_date              2023-09-08
_audit_creation_method            'Materials Studio'
_symmetry_space_group_name_H-M    'P1'
_symmetry_Int_Tables_number       1
_symmetry_cell_setting            triclinic
loop_
_symmetry_equiv_pos_as_xyz
  x,y,z
_cell_length_a                    40.9350
_cell_length_b                    40.9350
_cell_length_c                    3.2570
_cell_angle_alpha                 90.0000
_cell_angle_beta                  90.0000
_cell_angle_gamma                 120.0000
loop_
_atom_site_label
_atom_site_type_symbol
_atom_site_fract_x
_atom_site_fract_y
_atom_site_fract_z
_atom_site_U_iso_or_equiv
_atom_site_adp_type
_atom_site_occupancy
H1     H     0.03684   0.57103   0.00000   0.00000  Uiso   1.00
H2     H     0.42897   0.46581   0.00000   0.00000  Uiso   1.00
H3     H     0.53419   0.96316   0.00000   0.00000  Uiso   1.00
H4     H     0.96316   0.42897   0.00000   0.00000  Uiso   1.00
H5     H     0.57103   0.53419   0.00000   0.00000  Uiso   1.00
H6     H     0.46581   0.03684   0.00000   0.00000  Uiso   1.00
H7     H     0.57103   0.03684   0.00000   0.00000  Uiso   1.00
H8     H     0.46581   0.42897   0.00000   0.00000  Uiso   1.00
H9     H     0.96316   0.53419   0.00000   0.00000  Uiso   1.00
H10    H     0.42897   0.96316   0.00000   0.00000  Uiso   1.00
H11    H     0.53419   0.57103   0.00000   0.00000  Uiso   1.00
H12    H     0.03684   0.46581   0.00000   0.00000  Uiso   1.00
C13    C     0.01907   0.54048   0.00000   0.00000  Uiso   1.00
C14    C     0.45952   0.47859   0.00000   0.00000  Uiso   1.00
C15    C     0.52141   0.98093   0.00000   0.00000  Uiso   1.00
C16    C     0.98093   0.45952   0.00000   0.00000  Uiso   1.00
C17    C     0.54048   0.52141   0.00000   0.00000  Uiso   1.00
C18    C     0.47859   0.01907   0.00000   0.00000  Uiso   1.00
C19    C     0.54048   0.01907   0.00000   0.00000  Uiso   1.00
C20    C     0.47859   0.45952   0.00000   0.00000  Uiso   1.00
C21    C     0.98093   0.52141   0.00000   0.00000  Uiso   1.00
C22    C     0.45952   0.98093   0.00000   0.00000  Uiso   1.00
C23    C     0.52141   0.54048   0.00000   0.00000  Uiso   1.00
C24    C     0.01907   0.47859   0.00000   0.00000  Uiso   1.00
O25    O     0.09491   0.57618   0.00000   0.00000  Uiso   1.00
O26    O     0.42382   0.51873   0.00000   0.00000  Uiso   1.00
O27    O     0.48127   0.90509   0.00000   0.00000  Uiso   1.00
O28    O     0.90509   0.42382   0.00000   0.00000  Uiso   1.00
O29    O     0.57618   0.48127   0.00000   0.00000  Uiso   1.00
O30    O     0.51873   0.09491   0.00000   0.00000  Uiso   1.00
O31    O     0.57618   0.09491   0.00000   0.00000  Uiso   1.00
O32    O     0.51873   0.42382   0.00000   0.00000  Uiso   1.00
O33    O     0.90509   0.48127   0.00000   0.00000  Uiso   1.00
O34    O     0.42382   0.90509   0.00000   0.00000  Uiso   1.00
O35    O     0.48127   0.57618   0.00000   0.00000  Uiso   1.00
O36    O     0.09491   0.51873   0.00000   0.00000  Uiso   1.00
C37    C     0.13023   0.58160   0.00000   0.00000  Uiso   1.00
C38    C     0.41840   0.54863   0.00000   0.00000  Uiso   1.00
C39    C     0.45137   0.86977   0.00000   0.00000  Uiso   1.00
C40    C     0.86977   0.41840   0.00000   0.00000  Uiso   1.00
C41    C     0.58160   0.45137   0.00000   0.00000  Uiso   1.00
C42    C     0.54863   0.13023   0.00000   0.00000  Uiso   1.00
C43    C     0.58160   0.13023   0.00000   0.00000  Uiso   1.00
C44    C     0.54863   0.41840   0.00000   0.00000  Uiso   1.00
C45    C     0.86977   0.45137   0.00000   0.00000  Uiso   1.00
C46    C     0.41840   0.86977   0.00000   0.00000  Uiso   1.00
C47    C     0.45137   0.58160   0.00000   0.00000  Uiso   1.00
C48    C     0.13023   0.54863   0.00000   0.00000  Uiso   1.00
C49    C     0.16163   0.61632   0.00000   0.00000  Uiso   1.00
C50    C     0.38368   0.54531   0.00000   0.00000  Uiso   1.00
C51    C     0.45469   0.83837   0.00000   0.00000  Uiso   1.00
C52    C     0.83837   0.38368   0.00000   0.00000  Uiso   1.00
C53    C     0.61632   0.45469   0.00000   0.00000  Uiso   1.00
C54    C     0.54531   0.16163   0.00000   0.00000  Uiso   1.00
C55    C     0.61632   0.16163   0.00000   0.00000  Uiso   1.00
C56    C     0.54531   0.38368   0.00000   0.00000  Uiso   1.00
C57    C     0.83837   0.45469   0.00000   0.00000  Uiso   1.00
C58    C     0.38368   0.83837   0.00000   0.00000  Uiso   1.00
C59    C     0.45469   0.61632   0.00000   0.00000  Uiso   1.00
C60    C     0.16163   0.54531   0.00000   0.00000  Uiso   1.00
C61    C     0.15656   0.64779   0.00000   0.00000  Uiso   1.00
C62    C     0.35221   0.50877   0.00000   0.00000  Uiso   1.00
C63    C     0.49123   0.84344   0.00000   0.00000  Uiso   1.00
C64    C     0.84344   0.35221   0.00000   0.00000  Uiso   1.00
C65    C     0.64779   0.49123   0.00000   0.00000  Uiso   1.00
C66    C     0.50877   0.15656   0.00000   0.00000  Uiso   1.00
C67    C     0.64779   0.15656   0.00000   0.00000  Uiso   1.00
C68    C     0.50877   0.35221   0.00000   0.00000  Uiso   1.00
C69    C     0.84344   0.49123   0.00000   0.00000  Uiso   1.00
C70    C     0.35221   0.84344   0.00000   0.00000  Uiso   1.00
C71    C     0.49123   0.64779   0.00000   0.00000  Uiso   1.00
C72    C     0.15656   0.50877   0.00000   0.00000  Uiso   1.00
H73    H     0.12810   0.64343   0.00000   0.00000  Uiso   1.00
H74    H     0.35657   0.48467   0.00000   0.00000  Uiso   1.00
H75    H     0.51533   0.87190   0.00000   0.00000  Uiso   1.00
H76    H     0.87190   0.35657   0.00000   0.00000  Uiso   1.00
H77    H     0.64343   0.51533   0.00000   0.00000  Uiso   1.00
H78    H     0.48467   0.12810   0.00000   0.00000  Uiso   1.00
H79    H     0.64343   0.12810   0.00000   0.00000  Uiso   1.00
H80    H     0.48467   0.35657   0.00000   0.00000  Uiso   1.00
H81    H     0.87190   0.51533   0.00000   0.00000  Uiso   1.00
H82    H     0.35657   0.87190   0.00000   0.00000  Uiso   1.00
H83    H     0.51533   0.64343   0.00000   0.00000  Uiso   1.00
H84    H     0.12810   0.48467   0.00000   0.00000  Uiso   1.00
C85    C     0.18824   0.68197   0.00000   0.00000  Uiso   1.00
C86    C     0.31803   0.50627   0.00000   0.00000  Uiso   1.00
C87    C     0.49373   0.81176   0.00000   0.00000  Uiso   1.00
C88    C     0.81176   0.31803   0.00000   0.00000  Uiso   1.00
C89    C     0.68197   0.49373   0.00000   0.00000  Uiso   1.00
C90    C     0.50627   0.18824   0.00000   0.00000  Uiso   1.00
C91    C     0.68197   0.18824   0.00000   0.00000  Uiso   1.00
C92    C     0.50627   0.31803   0.00000   0.00000  Uiso   1.00
C93    C     0.81176   0.49373   0.00000   0.00000  Uiso   1.00
C94    C     0.31803   0.81176   0.00000   0.00000  Uiso   1.00
C95    C     0.49373   0.68197   0.00000   0.00000  Uiso   1.00
C96    C     0.18824   0.50627   0.00000   0.00000  Uiso   1.00
H97    H     0.18859   0.70870   0.00000   0.00000  Uiso   1.00
H98    H     0.29130   0.47989   0.00000   0.00000  Uiso   1.00
H99    H     0.52011   0.81141   0.00000   0.00000  Uiso   1.00
H100   H     0.81141   0.29130   0.00000   0.00000  Uiso   1.00
H101   H     0.70870   0.52011   0.00000   0.00000  Uiso   1.00
H102   H     0.47989   0.18859   0.00000   0.00000  Uiso   1.00
H103   H     0.70870   0.18859   0.00000   0.00000  Uiso   1.00
H104   H     0.47989   0.29130   0.00000   0.00000  Uiso   1.00
H105   H     0.81141   0.52011   0.00000   0.00000  Uiso   1.00
H106   H     0.29130   0.81141   0.00000   0.00000  Uiso   1.00
H107   H     0.52011   0.70870   0.00000   0.00000  Uiso   1.00
H108   H     0.18859   0.47989   0.00000   0.00000  Uiso   1.00
C109   C     0.22266   0.68216   0.00000   0.00000  Uiso   1.00
C110   C     0.31784   0.54050   0.00000   0.00000  Uiso   1.00
C111   C     0.45950   0.77734   0.00000   0.00000  Uiso   1.00
C112   C     0.77734   0.31784   0.00000   0.00000  Uiso   1.00
C113   C     0.68216   0.45950   0.00000   0.00000  Uiso   1.00
C114   C     0.54050   0.22266   0.00000   0.00000  Uiso   1.00
C115   C     0.68216   0.22266   0.00000   0.00000  Uiso   1.00
C116   C     0.54050   0.31784   0.00000   0.00000  Uiso   1.00
C117   C     0.77734   0.45950   0.00000   0.00000  Uiso   1.00
C118   C     0.31784   0.77734   0.00000   0.00000  Uiso   1.00
C119   C     0.45950   0.68216   0.00000   0.00000  Uiso   1.00
C120   C     0.22266   0.54050   0.00000   0.00000  Uiso   1.00
C121   C     0.25439   0.71641   0.00000   0.00000  Uiso   1.00
C122   C     0.28359   0.53798   0.00000   0.00000  Uiso   1.00
C123   C     0.46202   0.74561   0.00000   0.00000  Uiso   1.00
C124   C     0.74561   0.28359   0.00000   0.00000  Uiso   1.00
C125   C     0.71641   0.46202   0.00000   0.00000  Uiso   1.00
C126   C     0.53798   0.25439   0.00000   0.00000  Uiso   1.00
C127   C     0.71641   0.25439   0.00000   0.00000  Uiso   1.00
C128   C     0.53798   0.28359   0.00000   0.00000  Uiso   1.00
C129   C     0.74561   0.46202   0.00000   0.00000  Uiso   1.00
C130   C     0.28359   0.74561   0.00000   0.00000  Uiso   1.00
C131   C     0.46202   0.71641   0.00000   0.00000  Uiso   1.00
C132   C     0.25439   0.53798   0.00000   0.00000  Uiso   1.00
C133   C     0.41977   0.61560   0.00000   0.00000  Uiso   1.00
C134   C     0.38440   0.80417   0.00000   0.00000  Uiso   1.00
C135   C     0.19583   0.58023   0.00000   0.00000  Uiso   1.00
C136   C     0.58023   0.38440   0.00000   0.00000  Uiso   1.00
C137   C     0.61560   0.19583   0.00000   0.00000  Uiso   1.00
C138   C     0.80417   0.41977   0.00000   0.00000  Uiso   1.00
C139   C     0.61560   0.41977   0.00000   0.00000  Uiso   1.00
C140   C     0.80417   0.38440   0.00000   0.00000  Uiso   1.00
C141   C     0.58023   0.19583   0.00000   0.00000  Uiso   1.00
C142   C     0.38440   0.58023   0.00000   0.00000  Uiso   1.00
C143   C     0.19583   0.61560   0.00000   0.00000  Uiso   1.00
C144   C     0.41977   0.80417   0.00000   0.00000  Uiso   1.00
C145   C     0.34911   0.57672   0.00000   0.00000  Uiso   1.00
C146   C     0.42328   0.77239   0.00000   0.00000  Uiso   1.00
C147   C     0.22761   0.65089   0.00000   0.00000  Uiso   1.00
C148   C     0.65089   0.42328   0.00000   0.00000  Uiso   1.00
C149   C     0.57672   0.22761   0.00000   0.00000  Uiso   1.00
C150   C     0.77239   0.34911   0.00000   0.00000  Uiso   1.00
C151   C     0.57672   0.34911   0.00000   0.00000  Uiso   1.00
C152   C     0.77239   0.42328   0.00000   0.00000  Uiso   1.00
C153   C     0.65089   0.22761   0.00000   0.00000  Uiso   1.00
C154   C     0.42328   0.65089   0.00000   0.00000  Uiso   1.00
C155   C     0.22761   0.57672   0.00000   0.00000  Uiso   1.00
C156   C     0.34911   0.77239   0.00000   0.00000  Uiso   1.00
C157   C     0.03497   0.51748   0.00000   0.00000  Uiso   1.00
C158   C     0.48251   0.51748   0.00000   0.00000  Uiso   1.00
C159   C     0.48251   0.96503   0.00000   0.00000  Uiso   1.00
C160   C     0.96503   0.48251   0.00000   0.00000  Uiso   1.00
C161   C     0.51748   0.48252   0.00000   0.00000  Uiso   1.00
C162   C     0.51748   0.03497   0.00000   0.00000  Uiso   1.00
B163   B     0.07503   0.53751   0.00000   0.00000  Uiso   1.00
B164   B     0.46249   0.53751   0.00000   0.00000  Uiso   1.00
B165   B     0.46249   0.92497   0.00000   0.00000  Uiso   1.00
B166   B     0.92497   0.46249   0.00000   0.00000  Uiso   1.00
B167   B     0.53751   0.46249   0.00000   0.00000  Uiso   1.00
B168   B     0.53751   0.07503   0.00000   0.00000  Uiso   1.00
H169   H     0.39936   0.65557   0.00000   0.00000  Uiso   1.00
H170   H     0.34443   0.74379   0.00000   0.00000  Uiso   1.00
H171   H     0.25621   0.60064   0.00000   0.00000  Uiso   1.00
H172   H     0.60064   0.34443   0.00000   0.00000  Uiso   1.00
H173   H     0.65557   0.25621   0.00000   0.00000  Uiso   1.00
H174   H     0.74379   0.39936   0.00000   0.00000  Uiso   1.00
H175   H     0.65557   0.39936   0.00000   0.00000  Uiso   1.00
H176   H     0.74379   0.34443   0.00000   0.00000  Uiso   1.00
H177   H     0.60064   0.25621   0.00000   0.00000  Uiso   1.00
H178   H     0.34443   0.60064   0.00000   0.00000  Uiso   1.00
H179   H     0.25621   0.65557   0.00000   0.00000  Uiso   1.00
H180   H     0.39936   0.74379   0.00000   0.00000  Uiso   1.00
loop_
_geom_bond_atom_site_label_1
_geom_bond_atom_site_label_2
_geom_bond_distance
_geom_bond_site_symmetry_2
_ccdc_geom_bond_type
H1     C13     1.088   .     S
H2     C14     1.088   .     S
H3     C15     1.088   .     S
H4     C16     1.088   .     S
H5     C17     1.088   .     S
H6     C18     1.088   .     S
H7     C19     1.088   .     S
H8     C20     1.088   .     S
H9     C21     1.088   .     S
H10    C22     1.088   .     S
H11    C23     1.088   .     S
H12    C24     1.088   .     S
C13    C21     1.352   1_455 S
C13    C157    1.386   .     D
C14    C20     1.352   .     D
C14    C158    1.386   .     S
C15    C19     1.352   1_565 S
C15    C159    1.386   .     D
C16    C24     1.352   1_655 D
C16    C160    1.386   .     S
C17    C23     1.352   .     S
C17    C161    1.386   .     D
C18    C22     1.352   1_545 D
C18    C162    1.386   .     S
C19    C15     1.352   1_545 S
C19    C162    1.386   .     D
C20    C161    1.386   .     S
C21    C13     1.352   1_655 S
C21    C160    1.386   .     D
C22    C18     1.352   1_565 D
C22    C159    1.386   .     S
C23    C158    1.386   .     D
C24    C16     1.352   1_455 D
C24    C157    1.386   .     S
O25    C37     1.349   .     S
O25    B163    1.371   .     S
O26    C38     1.349   .     S
O26    B164    1.371   .     S
O27    C39     1.349   .     S
O27    B165    1.371   .     S
O28    C40     1.349   .     S
O28    B166    1.371   .     S
O29    C41     1.349   .     S
O29    B167    1.371   .     S
O30    C42     1.349   .     S
O30    B168    1.371   .     S
O31    C43     1.349   .     S
O31    B168    1.371   .     S
O32    C44     1.349   .     S
O32    B167    1.371   .     S
O33    C45     1.349   .     S
O33    B166    1.371   .     S
O34    C46     1.349   .     S
O34    B165    1.371   .     S
O35    C47     1.349   .     S
O35    B164    1.371   .     S
O36    C48     1.349   .     S
O36    B163    1.371   .     S
C37    C48     1.350   .     D
C37    C49     1.358   .     S
C38    C47     1.350   .     D
C38    C50     1.358   .     S
C39    C46     1.350   .     D
C39    C51     1.358   .     S
C40    C45     1.350   .     D
C40    C52     1.358   .     S
C41    C44     1.350   .     D
C41    C53     1.358   .     S
C42    C43     1.350   .     D
C42    C54     1.358   .     S
C43    C55     1.358   .     S
C44    C56     1.358   .     S
C45    C57     1.358   .     S
C46    C58     1.358   .     S
C47    C59     1.358   .     S
C48    C60     1.358   .     S
C49    C61     1.404   .     D
C49    C143    1.415   .     S
C50    C62     1.404   .     S
C50    C142    1.415   .     D
C51    C63     1.404   .     S
C51    C144    1.415   .     D
C52    C64     1.404   .     D
C52    C140    1.415   .     S
C53    C65     1.404   .     S
C53    C139    1.415   .     D
C54    C66     1.404   .     S
C54    C141    1.415   .     D
C55    C67     1.404   .     S
C55    C137    1.415   .     D
C56    C68     1.404   .     D
C56    C136    1.415   .     S
C57    C69     1.404   .     S
C57    C138    1.415   .     D
C58    C70     1.404   .     S
C58    C134    1.415   .     D
C59    C71     1.404   .     D
C59    C133    1.415   .     S
C60    C72     1.404   .     S
C60    C135    1.415   .     D
C61    H73     1.087   .     S
C61    C85     1.351   .     S
C62    H74     1.087   .     S
C62    C86     1.351   .     D
C63    H75     1.087   .     S
C63    C87     1.351   .     D
C64    H76     1.087   .     S
C64    C88     1.351   .     S
C65    H77     1.087   .     S
C65    C89     1.351   .     D
C66    H78     1.087   .     S
C66    C90     1.351   .     D
C67    H79     1.087   .     S
C67    C91     1.351   .     D
C68    H80     1.087   .     S
C68    C92     1.351   .     S
C69    H81     1.087   .     S
C69    C93     1.351   .     D
C70    H82     1.087   .     S
C70    C94     1.351   .     D
C71    H83     1.087   .     S
C71    C95     1.351   .     S
C72    H84     1.087   .     S
C72    C96     1.351   .     D
C85    H97     1.087   .     S
C85    C109    1.405   .     D
C86    H98     1.087   .     S
C86    C110    1.405   .     S
C87    H99     1.087   .     S
C87    C111    1.405   .     S
C88    H100    1.087   .     S
C88    C112    1.405   .     D
C89    H101    1.087   .     S
C89    C113    1.405   .     S
C90    H102    1.087   .     S
C90    C114    1.405   .     S
C91    H103    1.087   .     S
C91    C115    1.405   .     S
C92    H104    1.087   .     S
C92    C116    1.405   .     D
C93    H105    1.087   .     S
C93    C117    1.405   .     S
C94    H106    1.087   .     S
C94    C118    1.405   .     S
C95    H107    1.087   .     S
C95    C119    1.405   .     D
C96    H108    1.087   .     S
C96    C120    1.405   .     S
C109   C121    1.353   .     S
C109   C147    1.392   .     S
C110   C122    1.353   .     S
C110   C145    1.392   .     D
C111   C123    1.353   .     S
C111   C146    1.392   .     D
C112   C124    1.353   .     S
C112   C150    1.392   .     S
C113   C125    1.353   .     S
C113   C148    1.392   .     D
C114   C126    1.353   .     S
C114   C149    1.392   .     D
C115   C127    1.353   .     S
C115   C153    1.392   .     D
C116   C128    1.353   .     S
C116   C151    1.392   .     S
C117   C129    1.353   .     S
C117   C152    1.392   .     D
C118   C130    1.353   .     S
C118   C156    1.392   .     D
C119   C131    1.353   .     S
C119   C154    1.392   .     S
C120   C132    1.353   .     S
C120   C155    1.392   .     D
C121   C130    1.195   .     T
C122   C132    1.195   .     T
C123   C131    1.195   .     T
C124   C127    1.195   .     T
C125   C129    1.195   .     T
C126   C128    1.195   .     T
C133   C142    1.448   .     S
C133   C154    1.378   .     D
C134   C144    1.448   .     S
C134   C156    1.378   .     S
C135   C143    1.448   .     S
C135   C155    1.378   .     S
C136   C139    1.448   .     S
C136   C151    1.378   .     D
C137   C141    1.448   .     S
C137   C153    1.378   .     S
C138   C140    1.448   .     S
C138   C152    1.378   .     S
C139   C148    1.378   .     S
C140   C150    1.378   .     D
C141   C149    1.378   .     S
C142   C145    1.378   .     S
C143   C147    1.378   .     D
C144   C146    1.378   .     S
C145   H178    1.088   .     S
C146   H180    1.088   .     S
C147   H179    1.088   .     S
C148   H175    1.088   .     S
C149   H177    1.088   .     S
C150   H176    1.088   .     S
C151   H172    1.088   .     S
C152   H174    1.088   .     S
C153   H173    1.088   .     S
C154   H169    1.088   .     S
C155   H171    1.088   .     S
C156   H170    1.088   .     S
C157   B163    1.420   .     S
C158   B164    1.420   .     S
C159   B165    1.420   .     S
C160   B166    1.420   .     S
C161   B167    1.420   .     S
C162   B168    1.420   .     S
