data_320
_audit_creation_date              2023-09-08
_audit_creation_method            'Materials Studio'
_symmetry_space_group_name_H-M    'P1'
_symmetry_Int_Tables_number       1
_symmetry_cell_setting            triclinic
loop_
_symmetry_equiv_pos_as_xyz
  x,y,z
_cell_length_a                    25.8040
_cell_length_b                    6.7470
_cell_length_c                    26.2324
_cell_angle_alpha                 90.0000
_cell_angle_beta                  101.7366
_cell_angle_gamma                 90.0000
loop_
_atom_site_label
_atom_site_type_symbol
_atom_site_fract_x
_atom_site_fract_y
_atom_site_fract_z
_atom_site_U_iso_or_equiv
_atom_site_adp_type
_atom_site_occupancy
C1     C     0.09157   0.46809   0.07875   0.00000  Uiso   1.00
C2     C     0.57755   0.35690   0.54870   0.00000  Uiso   1.00
C3     C     0.01701   0.54225   0.98860   0.00000  Uiso   1.00
C4     C     0.53262   0.72603   0.51727   0.00000  Uiso   1.00
C5     C     0.58571   0.68621   0.51447   0.00000  Uiso   1.00
C6     C     0.00227   0.56230   0.03757   0.00000  Uiso   1.00
C7     C     0.52436   0.39756   0.55139   0.00000  Uiso   1.00
C8     C     0.10640   0.44610   0.02974   0.00000  Uiso   1.00
C9     C     0.44712   0.62700   0.53761   0.00000  Uiso   1.00
C10    C     0.07641   0.43832   0.93198   0.00000  Uiso   1.00
C11    C     0.66270   0.45598   0.52807   0.00000  Uiso   1.00
C12    C     0.03009   0.56931   0.13483   0.00000  Uiso   1.00
C13    C     0.60938   0.50051   0.52995   0.00000  Uiso   1.00
C14    C     0.04056   0.53020   0.08445   0.00000  Uiso   1.00
C15    C     0.50064   0.58308   0.53595   0.00000  Uiso   1.00
C16    C     0.06795   0.47879   0.98290   0.00000  Uiso   1.00
N17    N     0.69890   0.57985   0.51389   0.00000  Uiso   1.00
N18    N     0.05041   0.46409   0.17893   0.00000  Uiso   1.00
N19    N     0.41283   0.49679   0.55276   0.00000  Uiso   1.00
N20    N     0.06434   0.56459   0.89050   0.00000  Uiso   1.00
N21    N     0.10873   0.51797   0.48185   0.00000  Uiso   1.00
N22    N     0.00300   0.52546   0.58667   0.00000  Uiso   1.00
C23    C     0.09526   0.51470   0.42877   0.00000  Uiso   1.00
C24    C     0.94959   0.53004   0.56923   0.00000  Uiso   1.00
C25    C     0.01650   0.53027   0.63974   0.00000  Uiso   1.00
C26    C     0.16214   0.51973   0.49932   0.00000  Uiso   1.00
C27    C     0.14290   0.51539   0.41149   0.00000  Uiso   1.00
C28    C     0.92822   0.53961   0.61408   0.00000  Uiso   1.00
C29    C     0.96896   0.53820   0.65711   0.00000  Uiso   1.00
C30    C     0.18360   0.51712   0.45448   0.00000  Uiso   1.00
H31    H     0.14775   0.51433   0.37380   0.00000  Uiso   1.00
H32    H     0.88904   0.54667   0.61566   0.00000  Uiso   1.00
H33    H     0.96442   0.54295   0.69491   0.00000  Uiso   1.00
H34    H     0.22278   0.51608   0.45280   0.00000  Uiso   1.00
N35    N     0.99242   0.52123   0.46685   0.00000  Uiso   1.00
N36    N     0.11934   0.52260   0.60166   0.00000  Uiso   1.00
C37    C     0.99746   0.51315   0.41611   0.00000  Uiso   1.00
C38    C     0.94088   0.52006   0.47167   0.00000  Uiso   1.00
C39    C     0.11433   0.52507   0.65242   0.00000  Uiso   1.00
C40    C     0.17088   0.52282   0.59690   0.00000  Uiso   1.00
C41    C     0.94604   0.50570   0.38677   0.00000  Uiso   1.00
C42    C     0.91147   0.51013   0.42074   0.00000  Uiso   1.00
C43    C     0.16575   0.52613   0.68186   0.00000  Uiso   1.00
C44    C     0.20032   0.52488   0.64789   0.00000  Uiso   1.00
H45    H     0.93538   0.49780   0.34712   0.00000  Uiso   1.00
H46    H     0.87115   0.50591   0.40987   0.00000  Uiso   1.00
H47    H     0.17643   0.52820   0.72155   0.00000  Uiso   1.00
H48    H     0.24064   0.52567   0.65887   0.00000  Uiso   1.00
C49    C     0.04430   0.51076   0.39525   0.00000  Uiso   1.00
C50    C     0.91893   0.52644   0.51737   0.00000  Uiso   1.00
C51    C     0.06747   0.52855   0.67317   0.00000  Uiso   1.00
C52    C     0.19279   0.52209   0.55119   0.00000  Uiso   1.00
C53    C     0.04139   0.50141   0.34000   0.00000  Uiso   1.00
C54    C     0.86272   0.53099   0.51196   0.00000  Uiso   1.00
C55    C     0.07054   0.53383   0.72842   0.00000  Uiso   1.00
C56    C     0.24896   0.52244   0.55647   0.00000  Uiso   1.00
C57    C     0.05280   0.32275   0.31595   0.00000  Uiso   1.00
C58    C     0.03025   0.66996   0.30714   0.00000  Uiso   1.00
C59    C     0.83414   0.70988   0.50037   0.00000  Uiso   1.00
C60    C     0.83405   0.36042   0.52136   0.00000  Uiso   1.00
C61    C     0.07517   0.35893   0.75921   0.00000  Uiso   1.00
C62    C     0.06621   0.71512   0.75470   0.00000  Uiso   1.00
C63    C     0.27656   0.69812   0.54913   0.00000  Uiso   1.00
C64    C     0.27867   0.34502   0.56565   0.00000  Uiso   1.00
H65    H     0.06034   0.19622   0.33779   0.00000  Uiso   1.00
H66    H     0.02148   0.80233   0.32260   0.00000  Uiso   1.00
H67    H     0.85339   0.83574   0.49272   0.00000  Uiso   1.00
H68    H     0.85319   0.22744   0.52922   0.00000  Uiso   1.00
H69    H     0.07886   0.22452   0.74211   0.00000  Uiso   1.00
H70    H     0.06354   0.84587   0.73447   0.00000  Uiso   1.00
H71    H     0.25658   0.82993   0.54328   0.00000  Uiso   1.00
H72    H     0.26027   0.21573   0.57196   0.00000  Uiso   1.00
C73    C     0.05521   0.31506   0.26245   0.00000  Uiso   1.00
C74    C     0.03196   0.66104   0.25332   0.00000  Uiso   1.00
C75    C     0.77935   0.71929   0.50032   0.00000  Uiso   1.00
C76    C     0.77933   0.37089   0.52155   0.00000  Uiso   1.00
C77    C     0.07406   0.36495   0.81317   0.00000  Uiso   1.00
C78    C     0.06444   0.71996   0.80840   0.00000  Uiso   1.00
C79    C     0.33118   0.69423   0.54832   0.00000  Uiso   1.00
C80    C     0.33338   0.34217   0.56521   0.00000  Uiso   1.00
H81    H     0.06438   0.18316   0.24699   0.00000  Uiso   1.00
H82    H     0.02409   0.78635   0.23124   0.00000  Uiso   1.00
H83    H     0.75998   0.85150   0.49231   0.00000  Uiso   1.00
H84    H     0.76028   0.24523   0.52929   0.00000  Uiso   1.00
H85    H     0.07733   0.23525   0.83367   0.00000  Uiso   1.00
H86    H     0.06048   0.85388   0.82553   0.00000  Uiso   1.00
H87    H     0.34926   0.82379   0.54222   0.00000  Uiso   1.00
H88    H     0.35354   0.21114   0.57165   0.00000  Uiso   1.00
C89    C     0.04531   0.48380   0.22984   0.00000  Uiso   1.00
C90    C     0.75100   0.55188   0.51201   0.00000  Uiso   1.00
C91    C     0.06793   0.54576   0.83906   0.00000  Uiso   1.00
C92    C     0.36059   0.51536   0.55533   0.00000  Uiso   1.00
H93    H     0.11976   0.44266   0.11153   0.00000  Uiso   1.00
H94    H     0.59269   0.22035   0.56114   0.00000  Uiso   1.00
H95    H     0.60671   0.79524   0.50029   0.00000  Uiso   1.00
H96    H     0.43295   0.76402   0.52465   0.00000  Uiso   1.00
O97    O     0.94990   0.60958   0.03281   0.00000  Uiso   1.00
H98    H     0.09184   0.30241   0.92629   0.00000  Uiso   1.00
C99    C     0.91275   0.55606   0.06074   0.00000  Uiso   1.00
O100   O     0.92578   0.43772   0.09800   0.00000  Uiso   1.00
H101   H     0.98872   0.56984   0.95602   0.00000  Uiso   1.00
H102   H     0.51730   0.86212   0.50507   0.00000  Uiso   1.00
H103   H     0.50278   0.29030   0.56533   0.00000  Uiso   1.00
O104   O     0.15929   0.40310   0.03666   0.00000  Uiso   1.00
H105   H     0.00432   0.68186   0.13778   0.00000  Uiso   1.00
C106   C     0.19721   0.38728   1.00728   0.00000  Uiso   1.00
O107   O     0.18542   0.40737   0.95892   0.00000  Uiso   1.00
C108   C     0.63740   0.35175   0.19310   0.00000  Uiso   1.00
C109   C     0.58306   0.39646   0.18057   0.00000  Uiso   1.00
C110   C     0.56231   0.51080   0.13642   0.00000  Uiso   1.00
C111   C     0.59579   0.57815   0.10360   0.00000  Uiso   1.00
C112   C     0.65048   0.53241   0.11494   0.00000  Uiso   1.00
C113   C     0.67047   0.41914   0.16018   0.00000  Uiso   1.00
N114   N     0.68169   0.59875   0.08275   0.00000  Uiso   1.00
N115   N     0.73279   0.56994   0.09055   0.00000  Uiso   1.00
C116   C     0.75176   0.74423   0.01540   0.00000  Uiso   1.00
C117   C     0.76728   0.62989   0.06104   0.00000  Uiso   1.00
C118   C     0.78909   0.79857   0.98552   0.00000  Uiso   1.00
C119   C     0.84225   0.73824   0.00094   0.00000  Uiso   1.00
C120   C     0.85946   0.62249   0.04654   0.00000  Uiso   1.00
C121   C     0.82091   0.57211   0.07629   0.00000  Uiso   1.00
H122   H     0.65256   0.26962   0.22551   0.00000  Uiso   1.00
H123   H     0.55842   0.34574   0.20375   0.00000  Uiso   1.00
H124   H     0.52272   0.54464   0.12831   0.00000  Uiso   1.00
H125   H     0.77752   0.88187   0.95249   0.00000  Uiso   1.00
H126   H     0.86852   0.77937   0.97827   0.00000  Uiso   1.00
H127   H     0.83169   0.48939   0.10955   0.00000  Uiso   1.00
C128   C     0.51801   0.42891   0.92399   0.00000  Uiso   1.00
C129   C     0.56678   0.34617   0.94953   0.00000  Uiso   1.00
C130   C     0.56987   0.23840   0.99597   0.00000  Uiso   1.00
C131   C     0.52443   0.21648   0.01701   0.00000  Uiso   1.00
C132   C     0.47565   0.30284   0.99337   0.00000  Uiso   1.00
C133   C     0.47280   0.40728   0.94605   0.00000  Uiso   1.00
N134   N     0.43421   0.28588   0.01756   0.00000  Uiso   1.00
N135   N     0.38462   0.33202   1.00009   0.00000  Uiso   1.00
C136   C     0.35868   0.30491   0.08347   0.00000  Uiso   1.00
C137   C     0.34636   0.32646   0.02872   0.00000  Uiso   1.00
C138   C     0.31844   0.30541   0.11235   0.00000  Uiso   1.00
C139   C     0.26537   0.32980   0.08686   0.00000  Uiso   1.00
C140   C     0.25107   0.35530   0.03201   0.00000  Uiso   1.00
C141   C     0.29272   0.35144   1.00372   0.00000  Uiso   1.00
H142   H     0.51580   0.50500   0.88959   0.00000  Uiso   1.00
H143   H     0.59979   0.36308   0.93379   0.00000  Uiso   1.00
H144   H     0.60505   0.17562   1.01391   0.00000  Uiso   1.00
H145   H     0.32783   0.28916   0.15193   0.00000  Uiso   1.00
H146   H     0.23702   0.32994   0.10909   0.00000  Uiso   1.00
H147   H     0.28423   0.36877   0.96398   0.00000  Uiso   1.00
H148   H     0.43755   0.46862   0.92752   0.00000  Uiso   1.00
H149   H     0.71304   0.78761   1.00401   0.00000  Uiso   1.00
H150   H     0.70976   0.38517   0.16923   0.00000  Uiso   1.00
H151   H     0.39749   0.29062   0.10249   0.00000  Uiso   1.00
H152   H     0.07995   0.51797   0.50807   0.00000  Uiso   1.00
H153   H     0.03208   0.52546   0.56078   0.00000  Uiso   1.00
H154   H     0.57970   0.66161   1.07186   0.00000  Uiso   1.00
H155   H     0.52960   0.13870   1.05092   0.00000  Uiso   1.00
loop_
_geom_bond_atom_site_label_1
_geom_bond_atom_site_label_2
_geom_bond_distance
_geom_bond_site_symmetry_2
_ccdc_geom_bond_type
C1     C8      1.422   .     D
C1     C14     1.418   .     S
C1     H93     1.022   .     S
C2     C7      1.416   .     D
C2     C13     1.421   .     S
C2     H94     1.028   .     S
C3     C6      1.419   1_556 S
C3     C16     1.419   .     D
C3     H101    1.022   1_455 S
C4     C5      1.413   .     D
C4     C15     1.420   .     S
C4     H102    1.025   .     S
C5     C13     1.417   .     S
C5     H95     1.027   .     S
C6     C3      1.419   1_554 S
C6     C14     1.429   .     D
C6     O97     1.369   1_455 S
C7     C15     1.416   .     S
C7     H103    1.025   .     S
C8     C16     1.431   1_554 S
C8     O104    1.371   .     S
C9     C15     1.422   .     D
C9     N19     1.362   .     S
C9     H96     1.026   .     S
C10    C16     1.423   .     S
C10    N20     1.367   .     D
C10    H98     1.023   .     S
C11    C13     1.419   .     D
C11    N17     1.361   .     D
C12    C14     1.426   .     S
C12    N18     1.368   .     D
C12    H105    1.023   .     S
C16    C8      1.431   1_556 S
N17    C90     1.368   .     S
N18    C89     1.375   .     S
N19    C92     1.369   .     D
N20    C91     1.377   .     S
N21    C23     1.365   .     S
N21    C26     1.361   .     D
N21    H152    1.110   .     S
N22    C24     1.361   1_455 S
N22    C25     1.365   .     S
N22    H153    1.110   .     S
C23    C27     1.394   .     S
C23    C49     1.426   .     D
C24    N22     1.361   1_655 S
C24    C28     1.399   .     D
C24    C50     1.428   .     S
C25    C29     1.394   1_455 D
C25    C51     1.425   .     S
C26    C30     1.398   .     S
C26    C52     1.428   .     S
C27    C30     1.376   .     D
C27    H31     1.022   .     S
C28    C29     1.377   .     S
C28    H32     1.021   .     S
C29    C25     1.394   1_655 D
C29    H33     1.022   .     S
C30    H34     1.021   .     S
N35    C37     1.365   .     D
N35    C38     1.361   .     S
N36    C39     1.364   .     S
N36    C40     1.361   .     D
C37    C41     1.393   .     S
C37    C49     1.425   1_655 S
C38    C42     1.397   .     S
C38    C50     1.427   .     D
C39    C43     1.393   .     S
C39    C51     1.424   .     D
C40    C44     1.397   .     S
C40    C52     1.426   .     S
C41    C42     1.384   .     D
C41    H45     1.022   .     S
C42    H46     1.022   .     S
C43    C44     1.383   .     D
C43    H47     1.022   .     S
C44    H48     1.022   .     S
C49    C37     1.425   1_455 S
C49    C53     1.437   .     S
C50    C54     1.429   .     S
C51    C55     1.436   .     S
C52    C56     1.428   .     D
C53    C57     1.419   .     S
C53    C58     1.421   .     D
C54    C59     1.415   .     D
C54    C60     1.417   .     S
C55    C61     1.421   .     S
C55    C62     1.420   .     D
C56    C63     1.416   .     S
C56    C64     1.415   .     S
C57    H65     1.024   .     S
C57    C73     1.418   .     D
C58    H66     1.025   .     S
C58    C74     1.423   .     S
C59    H67     1.024   .     S
C59    C75     1.415   .     S
C60    H68     1.025   .     S
C60    C76     1.415   .     D
C61    H69     1.025   .     S
C61    C77     1.422   .     D
C62    H70     1.025   .     S
C62    C78     1.419   .     S
C63    H71     1.024   .     S
C63    C79     1.414   .     D
C64    H72     1.023   .     S
C64    C80     1.414   .     D
C73    H81     1.025   .     S
C73    C89     1.416   .     S
C74    H82     1.022   .     S
C74    C89     1.419   .     D
C75    H83     1.023   .     S
C75    C90     1.413   .     D
C76    H84     1.021   .     S
C76    C90     1.419   .     S
C77    H85     1.022   .     S
C77    C91     1.421   .     S
C78    H86     1.024   .     S
C78    C91     1.417   .     D
C79    H87     1.019   .     S
C79    C92     1.417   .     S
C80    H88     1.022   .     S
C80    C92     1.414   .     S
O97    C6      1.369   1_655 S
O97    C99     1.368   .     S
C99    O100    1.254   .     D
C99    C120    1.422   .     S
H101   C3      1.022   1_655 S
O104   C106    1.367   1_554 S
C106   O104    1.367   1_556 S
C106   O107    1.250   .     D
C106   C140    1.426   1_556 S
C108   C109    1.406   .     S
C108   C113    1.407   .     D
C108   H122    1.024   .     S
C109   C110    1.404   .     D
C109   H123    1.024   .     S
C110   C111    1.413   .     S
C110   H124    1.026   .     S
C111   C112    1.416   .     D
C111   H154    1.021   1_554 S
C112   C113    1.418   .     S
C112   N114    1.356   .     S
C113   H150    1.019   .     S
N114   N115    1.307   .     D
N115   C117    1.355   .     S
C116   C117    1.412   .     S
C116   C118    1.408   1_554 D
C116   H149    1.026   1_554 S
C117   C121    1.415   .     D
C118   C116    1.408   1_556 D
C118   C119    1.409   1_556 S
C118   H125    1.025   .     S
C119   C118    1.409   1_554 S
C119   C120    1.422   .     D
C119   H126    1.027   1_554 S
C120   C121    1.425   .     S
C121   H127    1.025   .     S
H126   C119    1.027   1_556 S
C128   C129    1.415   .     S
C128   C133    1.412   .     D
C128   H142    1.029   .     S
C129   C130    1.407   .     D
C129   H143    1.025   .     S
C130   C131    1.402   1_556 S
C130   H144    1.025   .     S
C131   C130    1.402   1_554 S
C131   C132    1.411   1_554 D
C131   H155    1.018   1_554 S
C132   C131    1.411   1_556 D
C132   C133    1.416   .     S
C132   N134    1.355   1_556 S
C133   H148    1.027   .     S
N134   C132    1.355   1_554 S
N134   N135    1.306   1_554 D
N135   N134    1.306   1_556 D
N135   C137    1.357   1_556 S
C136   C137    1.414   .     D
C136   C138    1.404   .     S
C136   H151    1.028   .     S
C137   N135    1.357   1_554 S
C137   C141    1.416   1_554 S
C138   C139    1.406   .     D
C138   H145    1.023   .     S
C139   C140    1.421   .     S
C139   H146    1.024   .     S
C140   C106    1.426   1_554 S
C140   C141    1.425   1_554 D
C141   C137    1.416   1_556 S
C141   C140    1.425   1_556 D
C141   H147    1.028   .     S
H149   C116    1.026   1_556 S
H154   C111    1.021   1_556 S
H155   C131    1.018   1_556 S
