data_321
_audit_creation_date              2023-09-08
_audit_creation_method            'Materials Studio'
_symmetry_space_group_name_H-M    'P1'
_symmetry_Int_Tables_number       1
_symmetry_cell_setting            triclinic
loop_
_symmetry_equiv_pos_as_xyz
  x,y,z
_cell_length_a                    13.1545
_cell_length_b                    13.1545
_cell_length_c                    7.9818
_cell_angle_alpha                 90.0000
_cell_angle_beta                  90.0000
_cell_angle_gamma                 90.0000
loop_
_atom_site_label
_atom_site_type_symbol
_atom_site_fract_x
_atom_site_fract_y
_atom_site_fract_z
_atom_site_U_iso_or_equiv
_atom_site_adp_type
_atom_site_occupancy
C1     C     0.05770   0.92410   0.88910   0.00000  Uiso   1.00
C2     C     0.10600   0.95730   0.74230   0.00000  Uiso   1.00
H3     H     0.10240   0.02750   0.71520   0.00000  Uiso   1.00
C4     C     0.15750   0.89540   0.63690   0.00000  Uiso   1.00
H5     H     0.18990   0.92160   0.53970   0.00000  Uiso   1.00
C6     C     0.16190   0.79030   0.67540   0.00000  Uiso   1.00
C7     C     0.11680   0.75450   0.82040   0.00000  Uiso   1.00
H8     H     0.12220   0.68470   0.84950   0.00000  Uiso   1.00
C9     C     0.06400   0.82050   0.92280   0.00000  Uiso   1.00
H10    H     0.03080   0.79440   0.01940   0.00000  Uiso   1.00
N11    N     0.22360   0.72210   0.58060   0.00000  Uiso   1.00
O12    O     0.27520   0.65490   0.65750   0.00000  Uiso   1.00
C13    C     0.94230   0.07590   0.88910   0.00000  Uiso   1.00
C14    C     0.89400   0.04270   0.74230   0.00000  Uiso   1.00
H15    H     0.89760   0.97250   0.71520   0.00000  Uiso   1.00
C16    C     0.84250   0.10460   0.63690   0.00000  Uiso   1.00
H17    H     0.81010   0.07840   0.53970   0.00000  Uiso   1.00
C18    C     0.83810   0.20970   0.67540   0.00000  Uiso   1.00
C19    C     0.88320   0.24550   0.82040   0.00000  Uiso   1.00
H20    H     0.87780   0.31530   0.84950   0.00000  Uiso   1.00
C21    C     0.93600   0.17950   0.92280   0.00000  Uiso   1.00
H22    H     0.96920   0.20560   0.01940   0.00000  Uiso   1.00
N23    N     0.77640   0.27790   0.58060   0.00000  Uiso   1.00
O24    O     0.72480   0.34510   0.65750   0.00000  Uiso   1.00
C25    C     0.92410   0.94230   0.11090   0.00000  Uiso   1.00
C26    C     0.95730   0.89400   0.25770   0.00000  Uiso   1.00
H27    H     0.02750   0.89760   0.28480   0.00000  Uiso   1.00
C28    C     0.89540   0.84250   0.36310   0.00000  Uiso   1.00
H29    H     0.92160   0.81010   0.46030   0.00000  Uiso   1.00
C30    C     0.79030   0.83810   0.32460   0.00000  Uiso   1.00
C31    C     0.75450   0.88320   0.17960   0.00000  Uiso   1.00
H32    H     0.68470   0.87780   0.15050   0.00000  Uiso   1.00
C33    C     0.82050   0.93600   0.07720   0.00000  Uiso   1.00
H34    H     0.79440   0.96920   0.98060   0.00000  Uiso   1.00
N35    N     0.72210   0.77640   0.41940   0.00000  Uiso   1.00
O36    O     0.65490   0.72480   0.34250   0.00000  Uiso   1.00
C37    C     0.07590   0.05770   0.11090   0.00000  Uiso   1.00
C38    C     0.04270   0.10600   0.25770   0.00000  Uiso   1.00
H39    H     0.97250   0.10240   0.28480   0.00000  Uiso   1.00
C40    C     0.10460   0.15750   0.36310   0.00000  Uiso   1.00
H41    H     0.07840   0.18990   0.46030   0.00000  Uiso   1.00
C42    C     0.20970   0.16190   0.32460   0.00000  Uiso   1.00
C43    C     0.24550   0.11680   0.17960   0.00000  Uiso   1.00
H44    H     0.31530   0.12220   0.15050   0.00000  Uiso   1.00
C45    C     0.17950   0.06400   0.07720   0.00000  Uiso   1.00
H46    H     0.20560   0.03080   0.98060   0.00000  Uiso   1.00
N47    N     0.27790   0.22360   0.41940   0.00000  Uiso   1.00
O48    O     0.34510   0.27520   0.34250   0.00000  Uiso   1.00
C49    C     0.55770   0.57590   0.88910   0.00000  Uiso   1.00
C50    C     0.60600   0.54270   0.74230   0.00000  Uiso   1.00
H51    H     0.60240   0.47250   0.71520   0.00000  Uiso   1.00
C52    C     0.65750   0.60460   0.63690   0.00000  Uiso   1.00
H53    H     0.68990   0.57840   0.53970   0.00000  Uiso   1.00
C54    C     0.66190   0.70970   0.67540   0.00000  Uiso   1.00
C55    C     0.61680   0.74550   0.82040   0.00000  Uiso   1.00
H56    H     0.62220   0.81530   0.84950   0.00000  Uiso   1.00
C57    C     0.56400   0.67950   0.92280   0.00000  Uiso   1.00
H58    H     0.53080   0.70560   0.01940   0.00000  Uiso   1.00
N59    N     0.72360   0.77790   0.58060   0.00000  Uiso   1.00
O60    O     0.77520   0.84510   0.65750   0.00000  Uiso   1.00
C61    C     0.44230   0.42410   0.88910   0.00000  Uiso   1.00
C62    C     0.39400   0.45730   0.74230   0.00000  Uiso   1.00
H63    H     0.39760   0.52750   0.71520   0.00000  Uiso   1.00
C64    C     0.34250   0.39540   0.63690   0.00000  Uiso   1.00
H65    H     0.31010   0.42160   0.53970   0.00000  Uiso   1.00
C66    C     0.33810   0.29030   0.67540   0.00000  Uiso   1.00
C67    C     0.38320   0.25450   0.82040   0.00000  Uiso   1.00
H68    H     0.37780   0.18470   0.84950   0.00000  Uiso   1.00
C69    C     0.43600   0.32050   0.92280   0.00000  Uiso   1.00
H70    H     0.46920   0.29440   0.01940   0.00000  Uiso   1.00
N71    N     0.27640   0.22210   0.58060   0.00000  Uiso   1.00
O72    O     0.22480   0.15490   0.65750   0.00000  Uiso   1.00
C73    C     0.42410   0.55770   0.11090   0.00000  Uiso   1.00
C74    C     0.45730   0.60600   0.25770   0.00000  Uiso   1.00
H75    H     0.52750   0.60240   0.28480   0.00000  Uiso   1.00
C76    C     0.39540   0.65750   0.36310   0.00000  Uiso   1.00
H77    H     0.42160   0.68990   0.46030   0.00000  Uiso   1.00
C78    C     0.29030   0.66190   0.32460   0.00000  Uiso   1.00
C79    C     0.25450   0.61680   0.17960   0.00000  Uiso   1.00
H80    H     0.18470   0.62220   0.15050   0.00000  Uiso   1.00
C81    C     0.32050   0.56400   0.07720   0.00000  Uiso   1.00
H82    H     0.29440   0.53080   0.98060   0.00000  Uiso   1.00
N83    N     0.22210   0.72360   0.41940   0.00000  Uiso   1.00
O84    O     0.15490   0.77520   0.34250   0.00000  Uiso   1.00
C85    C     0.57590   0.44230   0.11090   0.00000  Uiso   1.00
C86    C     0.54270   0.39400   0.25770   0.00000  Uiso   1.00
H87    H     0.47250   0.39760   0.28480   0.00000  Uiso   1.00
C88    C     0.60460   0.34250   0.36310   0.00000  Uiso   1.00
H89    H     0.57840   0.31010   0.46030   0.00000  Uiso   1.00
C90    C     0.70970   0.33810   0.32460   0.00000  Uiso   1.00
C91    C     0.74550   0.38320   0.17960   0.00000  Uiso   1.00
H92    H     0.81530   0.37780   0.15050   0.00000  Uiso   1.00
C93    C     0.67950   0.43600   0.07720   0.00000  Uiso   1.00
H94    H     0.70560   0.46920   0.98060   0.00000  Uiso   1.00
N95    N     0.77790   0.27640   0.41940   0.00000  Uiso   1.00
O96    O     0.84510   0.22480   0.34250   0.00000  Uiso   1.00
C97    C     0.00000   0.00000   0.00000   0.00000  Uiso   1.00
C98    C     0.50000   0.50000   0.00000   0.00000  Uiso   1.00
loop_
_geom_bond_atom_site_label_1
_geom_bond_atom_site_label_2
_geom_bond_distance
_geom_bond_site_symmetry_2
_ccdc_geom_bond_type
C1     C2      1.403   .     D
C1     C9      1.392   .     S
C1     C97     1.535   1_566 S
C2     H3      0.950   1_565 S
C2     C4      1.353   .     S
H3     C2      0.950   1_545 S
C4     H5      0.950   .     S
C4     C6      1.417   .     D
C6     C7      1.383   .     S
C6     N11     1.427   .     S
C7     H8      0.950   .     S
C7     C9      1.380   .     D
C9     H10     0.950   1_556 S
H10    C9      0.950   1_554 S
N11    O12     1.272   .     D
N11    N83     1.287   .     S
C13    C14     1.403   .     D
C13    C21     1.392   .     S
C13    C97     1.535   1_656 S
C14    H15     0.950   1_545 S
C14    C16     1.353   .     S
H15    C14     0.950   1_565 S
C16    H17     0.950   .     S
C16    C18     1.417   .     D
C18    C19     1.383   .     S
C18    N23     1.427   .     S
C19    H20     0.950   .     S
C19    C21     1.380   .     D
C21    H22     0.950   1_556 S
H22    C21     0.950   1_554 S
N23    O24     1.272   .     D
N23    N95     1.287   .     S
C25    C26     1.403   .     D
C25    C33     1.392   .     S
C25    C97     1.535   1_665 S
C26    H27     0.950   1_655 S
C26    C28     1.353   .     S
H27    C26     0.950   1_455 S
C28    H29     0.950   .     S
C28    C30     1.417   .     D
C30    C31     1.383   .     S
C30    N35     1.427   .     S
C31    H32     0.950   .     S
C31    C33     1.380   .     D
C33    H34     0.950   1_554 S
H34    C33     0.950   1_556 S
N35    O36     1.272   .     D
N35    N59     1.287   .     S
C37    C38     1.403   .     D
C37    C45     1.392   .     S
C37    C97     1.535   .     S
C38    H39     0.950   1_455 S
C38    C40     1.353   .     S
H39    C38     0.950   1_655 S
C40    H41     0.950   .     S
C40    C42     1.417   .     D
C42    C43     1.383   .     S
C42    N47     1.427   .     S
C43    H44     0.950   .     S
C43    C45     1.380   .     D
C45    H46     0.950   1_554 S
H46    C45     0.950   1_556 S
N47    O48     1.272   .     D
N47    N71     1.287   .     S
C49    C50     1.403   .     D
C49    C57     1.392   .     S
C49    C98     1.535   1_556 S
C50    H51     0.950   .     S
C50    C52     1.353   .     S
C52    H53     0.950   .     S
C52    C54     1.417   .     D
C54    C55     1.383   .     S
C54    N59     1.427   .     S
C55    H56     0.950   .     S
C55    C57     1.380   .     D
C57    H58     0.950   1_556 S
H58    C57     0.950   1_554 S
N59    O60     1.272   .     D
C61    C62     1.403   .     D
C61    C69     1.392   .     S
C61    C98     1.535   1_556 S
C62    H63     0.950   .     S
C62    C64     1.353   .     S
C64    H65     0.950   .     S
C64    C66     1.417   .     D
C66    C67     1.383   .     S
C66    N71     1.427   .     S
C67    H68     0.950   .     S
C67    C69     1.380   .     D
C69    H70     0.950   1_556 S
H70    C69     0.950   1_554 S
N71    O72     1.272   .     D
C73    C74     1.403   .     D
C73    C81     1.392   .     S
C73    C98     1.535   .     S
C74    H75     0.950   .     S
C74    C76     1.353   .     S
C76    H77     0.950   .     S
C76    C78     1.417   .     D
C78    C79     1.383   .     S
C78    N83     1.427   .     S
C79    H80     0.950   .     S
C79    C81     1.380   .     D
C81    H82     0.950   1_554 S
H82    C81     0.950   1_556 S
N83    O84     1.272   .     D
C85    C86     1.403   .     D
C85    C93     1.392   .     S
C85    C98     1.535   .     S
C86    H87     0.950   .     S
C86    C88     1.353   .     S
C88    H89     0.950   .     S
C88    C90     1.417   .     D
C90    C91     1.383   .     S
C90    N95     1.427   .     S
C91    H92     0.950   .     S
C91    C93     1.380   .     D
C93    H94     0.950   1_554 S
H94    C93     0.950   1_556 S
N95    O96     1.272   .     D
C97    C25     1.535   1_445 S
C97    C13     1.535   1_454 S
C97    C1      1.535   1_544 S
C98    C49     1.535   1_554 S
C98    C61     1.535   1_554 S
