data_322
_audit_creation_date              2023-09-08
_audit_creation_method            'Materials Studio'
_symmetry_space_group_name_H-M    'P1'
_symmetry_Int_Tables_number       1
_symmetry_cell_setting            triclinic
loop_
_symmetry_equiv_pos_as_xyz
  x,y,z
_cell_length_a                    13.4210
_cell_length_b                    13.4210
_cell_length_c                    8.5280
_cell_angle_alpha                 90.0000
_cell_angle_beta                  90.0000
_cell_angle_gamma                 90.0000
loop_
_atom_site_label
_atom_site_type_symbol
_atom_site_fract_x
_atom_site_fract_y
_atom_site_fract_z
_atom_site_U_iso_or_equiv
_atom_site_adp_type
_atom_site_occupancy
C1     C     0.93460   0.91140   0.87200   0.00000  Uiso   1.00
C2     C     0.88810   0.94770   0.73520   0.00000  Uiso   1.00
H3     H     0.88960   0.01680   0.71130   0.00000  Uiso   1.00
C4     C     0.83920   0.88020   0.63420   0.00000  Uiso   1.00
H5     H     0.80810   0.90320   0.54090   0.00000  Uiso   1.00
C6     C     0.83730   0.78230   0.67210   0.00000  Uiso   1.00
C7     C     0.87730   0.74510   0.80840   0.00000  Uiso   1.00
H8     H     0.87150   0.67660   0.83530   0.00000  Uiso   1.00
C9     C     0.92640   0.81190   0.90420   0.00000  Uiso   1.00
H10    H     0.95620   0.78740   0.99760   0.00000  Uiso   1.00
N11    N     0.78130   0.71180   0.57770   0.00000  Uiso   1.00
O12    O     0.73260   0.64620   0.64290   0.00000  Uiso   1.00
C13    C     0.06540   0.08860   0.87200   0.00000  Uiso   1.00
C14    C     0.11190   0.05230   0.73520   0.00000  Uiso   1.00
H15    H     0.11040   0.98320   0.71130   0.00000  Uiso   1.00
C16    C     0.16080   0.11980   0.63420   0.00000  Uiso   1.00
H17    H     0.19190   0.09680   0.54090   0.00000  Uiso   1.00
C18    C     0.16270   0.21770   0.67210   0.00000  Uiso   1.00
C19    C     0.12270   0.25490   0.80840   0.00000  Uiso   1.00
H20    H     0.12850   0.32340   0.83530   0.00000  Uiso   1.00
C21    C     0.07360   0.18810   0.90420   0.00000  Uiso   1.00
H22    H     0.04380   0.21260   0.99760   0.00000  Uiso   1.00
N23    N     0.21870   0.28820   0.57770   0.00000  Uiso   1.00
O24    O     0.26740   0.35380   0.64290   0.00000  Uiso   1.00
C25    C     0.91140   0.06540   0.12800   0.00000  Uiso   1.00
C26    C     0.94770   0.11190   0.26480   0.00000  Uiso   1.00
H27    H     0.01680   0.11040   0.28870   0.00000  Uiso   1.00
C28    C     0.88020   0.16080   0.36580   0.00000  Uiso   1.00
H29    H     0.90320   0.19190   0.45910   0.00000  Uiso   1.00
C30    C     0.78230   0.16270   0.32790   0.00000  Uiso   1.00
C31    C     0.74510   0.12270   0.19160   0.00000  Uiso   1.00
H32    H     0.67660   0.12850   0.16470   0.00000  Uiso   1.00
C33    C     0.81190   0.07360   0.09580   0.00000  Uiso   1.00
H34    H     0.78740   0.04380   0.00240   0.00000  Uiso   1.00
N35    N     0.71180   0.21870   0.42230   0.00000  Uiso   1.00
O36    O     0.64620   0.26740   0.35710   0.00000  Uiso   1.00
C37    C     0.08860   0.93460   0.12800   0.00000  Uiso   1.00
C38    C     0.05230   0.88810   0.26480   0.00000  Uiso   1.00
H39    H     0.98320   0.88960   0.28870   0.00000  Uiso   1.00
C40    C     0.11980   0.83920   0.36580   0.00000  Uiso   1.00
H41    H     0.09680   0.80810   0.45910   0.00000  Uiso   1.00
C42    C     0.21770   0.83730   0.32790   0.00000  Uiso   1.00
C43    C     0.25490   0.87730   0.19160   0.00000  Uiso   1.00
H44    H     0.32340   0.87150   0.16470   0.00000  Uiso   1.00
C45    C     0.18810   0.92640   0.09580   0.00000  Uiso   1.00
H46    H     0.21260   0.95620   0.00240   0.00000  Uiso   1.00
N47    N     0.28820   0.78130   0.42230   0.00000  Uiso   1.00
O48    O     0.35380   0.73260   0.35710   0.00000  Uiso   1.00
C49    C     0.43460   0.58860   0.87200   0.00000  Uiso   1.00
C50    C     0.38810   0.55230   0.73520   0.00000  Uiso   1.00
H51    H     0.38960   0.48320   0.71130   0.00000  Uiso   1.00
C52    C     0.33920   0.61980   0.63420   0.00000  Uiso   1.00
H53    H     0.30810   0.59680   0.54090   0.00000  Uiso   1.00
C54    C     0.33730   0.71770   0.67210   0.00000  Uiso   1.00
C55    C     0.37730   0.75490   0.80840   0.00000  Uiso   1.00
H56    H     0.37150   0.82340   0.83530   0.00000  Uiso   1.00
C57    C     0.42640   0.68810   0.90420   0.00000  Uiso   1.00
H58    H     0.45620   0.71260   0.99760   0.00000  Uiso   1.00
N59    N     0.28130   0.78820   0.57770   0.00000  Uiso   1.00
O60    O     0.23260   0.85380   0.64290   0.00000  Uiso   1.00
C61    C     0.56540   0.41140   0.87200   0.00000  Uiso   1.00
C62    C     0.61190   0.44770   0.73520   0.00000  Uiso   1.00
H63    H     0.61040   0.51680   0.71130   0.00000  Uiso   1.00
C64    C     0.66080   0.38020   0.63420   0.00000  Uiso   1.00
H65    H     0.69190   0.40320   0.54090   0.00000  Uiso   1.00
C66    C     0.66270   0.28230   0.67210   0.00000  Uiso   1.00
C67    C     0.62270   0.24510   0.80840   0.00000  Uiso   1.00
H68    H     0.62850   0.17660   0.83530   0.00000  Uiso   1.00
C69    C     0.57360   0.31190   0.90420   0.00000  Uiso   1.00
H70    H     0.54380   0.28740   0.99760   0.00000  Uiso   1.00
N71    N     0.71870   0.21180   0.57770   0.00000  Uiso   1.00
O72    O     0.76740   0.14620   0.64290   0.00000  Uiso   1.00
C73    C     0.41140   0.43460   0.12800   0.00000  Uiso   1.00
C74    C     0.44770   0.38810   0.26480   0.00000  Uiso   1.00
H75    H     0.51680   0.38960   0.28870   0.00000  Uiso   1.00
C76    C     0.38020   0.33920   0.36580   0.00000  Uiso   1.00
H77    H     0.40320   0.30810   0.45910   0.00000  Uiso   1.00
C78    C     0.28230   0.33730   0.32790   0.00000  Uiso   1.00
C79    C     0.24510   0.37730   0.19160   0.00000  Uiso   1.00
H80    H     0.17660   0.37150   0.16470   0.00000  Uiso   1.00
C81    C     0.31190   0.42640   0.09580   0.00000  Uiso   1.00
H82    H     0.28740   0.45620   0.00240   0.00000  Uiso   1.00
N83    N     0.21180   0.28130   0.42230   0.00000  Uiso   1.00
O84    O     0.14620   0.23260   0.35710   0.00000  Uiso   1.00
C85    C     0.58860   0.56540   0.12800   0.00000  Uiso   1.00
C86    C     0.55230   0.61190   0.26480   0.00000  Uiso   1.00
H87    H     0.48320   0.61040   0.28870   0.00000  Uiso   1.00
C88    C     0.61980   0.66080   0.36580   0.00000  Uiso   1.00
H89    H     0.59680   0.69190   0.45910   0.00000  Uiso   1.00
C90    C     0.71770   0.66270   0.32790   0.00000  Uiso   1.00
C91    C     0.75490   0.62270   0.19160   0.00000  Uiso   1.00
H92    H     0.82340   0.62850   0.16470   0.00000  Uiso   1.00
C93    C     0.68810   0.57360   0.09580   0.00000  Uiso   1.00
H94    H     0.71260   0.54380   0.00240   0.00000  Uiso   1.00
N95    N     0.78820   0.71870   0.42230   0.00000  Uiso   1.00
O96    O     0.85380   0.76740   0.35710   0.00000  Uiso   1.00
Si97   Si    0.00000   0.00000   0.00000   0.00000  Uiso   1.00
Si98   Si    0.50000   0.50000   0.00000   0.00000  Uiso   1.00
loop_
_geom_bond_atom_site_label_1
_geom_bond_atom_site_label_2
_geom_bond_distance
_geom_bond_site_symmetry_2
_ccdc_geom_bond_type
C1     C2      1.410   .     D
C1     C9      1.368   .     S
C1     Si97    1.837   1_666 S
C2     H3      0.950   1_565 S
C2     C4      1.412   .     S
H3     C2      0.950   1_545 S
C4     H5      0.950   .     S
C4     C6      1.353   .     D
C6     C7      1.374   .     S
C6     N11     1.452   .     S
C7     H8      0.951   .     S
C7     C9      1.380   .     D
C9     H10     0.950   .     S
N11    O12     1.229   .     D
N11    N95     1.332   .     S
C13    C14     1.410   .     D
C13    C21     1.368   .     S
C13    Si97    1.837   1_556 S
C14    H15     0.950   1_545 S
C14    C16     1.412   .     S
H15    C14     0.950   1_565 S
C16    H17     0.950   .     S
C16    C18     1.353   .     D
C18    C19     1.374   .     S
C18    N23     1.452   .     S
C19    H20     0.951   .     S
C19    C21     1.380   .     D
C21    H22     0.950   .     S
N23    O24     1.229   .     D
N23    N83     1.332   .     S
C25    C26     1.410   .     D
C25    C33     1.368   .     S
C25    Si97    1.837   1_655 S
C26    H27     0.950   1_655 S
C26    C28     1.412   .     S
H27    C26     0.950   1_455 S
C28    H29     0.950   .     S
C28    C30     1.353   .     D
C30    C31     1.374   .     S
C30    N35     1.452   .     S
C31    H32     0.951   .     S
C31    C33     1.380   .     D
C33    H34     0.950   .     S
N35    O36     1.229   .     D
N35    N71     1.332   .     S
C37    C38     1.410   .     D
C37    C45     1.368   .     S
C37    Si97    1.837   1_565 S
C38    H39     0.950   1_455 S
C38    C40     1.412   .     S
H39    C38     0.950   1_655 S
C40    H41     0.950   .     S
C40    C42     1.353   .     D
C42    C43     1.374   .     S
C42    N47     1.452   .     S
C43    H44     0.951   .     S
C43    C45     1.380   .     D
C45    H46     0.950   .     S
N47    O48     1.229   .     D
N47    N59     1.332   .     S
C49    C50     1.410   .     D
C49    C57     1.368   .     S
C49    Si98    1.837   1_556 S
C50    H51     0.950   .     S
C50    C52     1.412   .     S
C52    H53     0.950   .     S
C52    C54     1.353   .     D
C54    C55     1.374   .     S
C54    N59     1.452   .     S
C55    H56     0.951   .     S
C55    C57     1.380   .     D
C57    H58     0.950   .     S
N59    O60     1.229   .     D
C61    C62     1.410   .     D
C61    C69     1.368   .     S
C61    Si98    1.837   1_556 S
C62    H63     0.950   .     S
C62    C64     1.412   .     S
C64    H65     0.950   .     S
C64    C66     1.353   .     D
C66    C67     1.374   .     S
C66    N71     1.452   .     S
C67    H68     0.951   .     S
C67    C69     1.380   .     D
C69    H70     0.950   .     S
N71    O72     1.229   .     D
C73    C74     1.410   .     D
C73    C81     1.368   .     S
C73    Si98    1.837   .     S
C74    H75     0.950   .     S
C74    C76     1.412   .     S
C76    H77     0.950   .     S
C76    C78     1.353   .     D
C78    C79     1.374   .     S
C78    N83     1.452   .     S
C79    H80     0.951   .     S
C79    C81     1.380   .     D
C81    H82     0.950   .     S
N83    O84     1.229   .     D
C85    C86     1.410   .     D
C85    C93     1.368   .     S
C85    Si98    1.837   .     S
C86    H87     0.950   .     S
C86    C88     1.412   .     S
C88    H89     0.950   .     S
C88    C90     1.353   .     D
C90    C91     1.374   .     S
C90    N95     1.452   .     S
C91    H92     0.951   .     S
C91    C93     1.380   .     D
C93    H94     0.950   .     S
N95    O96     1.229   .     D
Si97   C25     1.837   1_455 S
Si97   C37     1.837   1_545 S
Si97   C13     1.837   1_554 S
Si97   C1      1.837   1_444 S
Si98   C49     1.837   1_554 S
Si98   C61     1.837   1_554 S
