data_323
_audit_creation_date              2023-09-08
_audit_creation_method            'Materials Studio'
_symmetry_space_group_name_H-M    'P1'
_symmetry_Int_Tables_number       1
_symmetry_cell_setting            triclinic
loop_
_symmetry_equiv_pos_as_xyz
  x,y,z
_cell_length_a                    15.7703
_cell_length_b                    15.7703
_cell_length_c                    7.0717
_cell_angle_alpha                 90.0000
_cell_angle_beta                  90.0000
_cell_angle_gamma                 90.0000
loop_
_atom_site_label
_atom_site_type_symbol
_atom_site_fract_x
_atom_site_fract_y
_atom_site_fract_z
_atom_site_U_iso_or_equiv
_atom_site_adp_type
_atom_site_occupancy
H1     H     0.78480   0.78700   0.08140   0.00000  Uiso   1.00
C2     C     0.80870   0.69472   0.87690   0.00000  Uiso   1.00
C3     C     0.86245   0.75327   0.74960   0.00000  Uiso   1.00
H4     H     0.89840   0.79020   0.82960   0.00000  Uiso   1.00
H5     H     0.90020   0.71840   0.66920   0.00000  Uiso   1.00
C6     C     0.86363   0.64120   0.00960   0.00000  Uiso   1.00
C7     C     0.95172   0.64814   0.01840   0.00000  Uiso   1.00
H8     H     0.98010   0.68500   0.93300   0.00000  Uiso   1.00
C9     C     0.99880   0.60261   0.14870   0.00000  Uiso   1.00
H10    H     0.05890   0.60660   0.14840   0.00000  Uiso   1.00
C11    C     0.95822   0.55107   0.28000   0.00000  Uiso   1.00
C12    C     0.87062   0.54087   0.27270   0.00000  Uiso   1.00
H13    H     0.84250   0.50430   0.35900   0.00000  Uiso   1.00
C14    C     0.82515   0.58511   0.13690   0.00000  Uiso   1.00
H15    H     0.76550   0.57700   0.13000   0.00000  Uiso   1.00
N16    N     0.01227   0.50620   0.41300   0.00000  Uiso   1.00
O17    O     0.08391   0.48190   0.35230   0.00000  Uiso   1.00
H18    H     0.71520   0.71300   0.08140   0.00000  Uiso   1.00
C19    C     0.69130   0.80528   0.87690   0.00000  Uiso   1.00
C20    C     0.63755   0.74673   0.74960   0.00000  Uiso   1.00
H21    H     0.60160   0.70980   0.82960   0.00000  Uiso   1.00
H22    H     0.59980   0.78160   0.66920   0.00000  Uiso   1.00
C23    C     0.63637   0.85880   0.00960   0.00000  Uiso   1.00
C24    C     0.54828   0.85186   0.01840   0.00000  Uiso   1.00
H25    H     0.51990   0.81500   0.93300   0.00000  Uiso   1.00
C26    C     0.50120   0.89739   0.14870   0.00000  Uiso   1.00
H27    H     0.44110   0.89340   0.14840   0.00000  Uiso   1.00
C28    C     0.54178   0.94893   0.28000   0.00000  Uiso   1.00
C29    C     0.62938   0.95913   0.27270   0.00000  Uiso   1.00
H30    H     0.65750   0.99570   0.35900   0.00000  Uiso   1.00
C31    C     0.67485   0.91489   0.13690   0.00000  Uiso   1.00
H32    H     0.73450   0.92300   0.13000   0.00000  Uiso   1.00
N33    N     0.48773   0.99380   0.41300   0.00000  Uiso   1.00
O34    O     0.41609   0.01810   0.35230   0.00000  Uiso   1.00
H35    H     0.21300   0.28480   0.58140   0.00000  Uiso   1.00
C36    C     0.30528   0.30870   0.37690   0.00000  Uiso   1.00
C37    C     0.24673   0.36245   0.24960   0.00000  Uiso   1.00
H38    H     0.20980   0.39840   0.32960   0.00000  Uiso   1.00
H39    H     0.28160   0.40020   0.16920   0.00000  Uiso   1.00
C40    C     0.35880   0.36363   0.50960   0.00000  Uiso   1.00
C41    C     0.35186   0.45172   0.51840   0.00000  Uiso   1.00
H42    H     0.31500   0.48010   0.43300   0.00000  Uiso   1.00
C43    C     0.39739   0.49880   0.64870   0.00000  Uiso   1.00
H44    H     0.39340   0.55890   0.64840   0.00000  Uiso   1.00
C45    C     0.44893   0.45822   0.78000   0.00000  Uiso   1.00
C46    C     0.45913   0.37062   0.77270   0.00000  Uiso   1.00
H47    H     0.49570   0.34250   0.85900   0.00000  Uiso   1.00
C48    C     0.41489   0.32515   0.63690   0.00000  Uiso   1.00
H49    H     0.42300   0.26550   0.63000   0.00000  Uiso   1.00
N50    N     0.49380   0.51227   0.91300   0.00000  Uiso   1.00
O51    O     0.51810   0.58391   0.85230   0.00000  Uiso   1.00
H52    H     0.28700   0.21520   0.58140   0.00000  Uiso   1.00
C53    C     0.19472   0.19130   0.37690   0.00000  Uiso   1.00
C54    C     0.25327   0.13755   0.24960   0.00000  Uiso   1.00
H55    H     0.29020   0.10160   0.32960   0.00000  Uiso   1.00
H56    H     0.21840   0.09980   0.16920   0.00000  Uiso   1.00
C57    C     0.14120   0.13637   0.50960   0.00000  Uiso   1.00
C58    C     0.14814   0.04828   0.51840   0.00000  Uiso   1.00
H59    H     0.18500   0.01990   0.43300   0.00000  Uiso   1.00
C60    C     0.10261   0.00120   0.64870   0.00000  Uiso   1.00
H61    H     0.10660   0.94110   0.64840   0.00000  Uiso   1.00
C62    C     0.05107   0.04178   0.78000   0.00000  Uiso   1.00
C63    C     0.04087   0.12938   0.77270   0.00000  Uiso   1.00
H64    H     0.00430   0.15750   0.85900   0.00000  Uiso   1.00
C65    C     0.08511   0.17485   0.63690   0.00000  Uiso   1.00
H66    H     0.07700   0.23450   0.63000   0.00000  Uiso   1.00
N67    N     0.00620   0.98773   0.91300   0.00000  Uiso   1.00
O68    O     0.98190   0.91609   0.85230   0.00000  Uiso   1.00
H69    H     0.21520   0.21300   0.91860   0.00000  Uiso   1.00
C70    C     0.19130   0.30528   0.12310   0.00000  Uiso   1.00
C71    C     0.13755   0.24673   0.25040   0.00000  Uiso   1.00
H72    H     0.10160   0.20980   0.17040   0.00000  Uiso   1.00
H73    H     0.09980   0.28160   0.33080   0.00000  Uiso   1.00
C74    C     0.13637   0.35880   0.99040   0.00000  Uiso   1.00
C75    C     0.04828   0.35186   0.98160   0.00000  Uiso   1.00
H76    H     0.01990   0.31500   0.06700   0.00000  Uiso   1.00
C77    C     0.00120   0.39739   0.85130   0.00000  Uiso   1.00
H78    H     0.94110   0.39340   0.85160   0.00000  Uiso   1.00
C79    C     0.04178   0.44893   0.72000   0.00000  Uiso   1.00
C80    C     0.12938   0.45913   0.72730   0.00000  Uiso   1.00
H81    H     0.15750   0.49570   0.64100   0.00000  Uiso   1.00
C82    C     0.17485   0.41489   0.86310   0.00000  Uiso   1.00
H83    H     0.23450   0.42300   0.87000   0.00000  Uiso   1.00
N84    N     0.98773   0.49380   0.58700   0.00000  Uiso   1.00
O85    O     0.91609   0.51810   0.64770   0.00000  Uiso   1.00
H86    H     0.28480   0.28700   0.91860   0.00000  Uiso   1.00
C87    C     0.30870   0.19472   0.12310   0.00000  Uiso   1.00
C88    C     0.36245   0.25327   0.25040   0.00000  Uiso   1.00
H89    H     0.39840   0.29020   0.17040   0.00000  Uiso   1.00
H90    H     0.40020   0.21840   0.33080   0.00000  Uiso   1.00
C91    C     0.36363   0.14120   0.99040   0.00000  Uiso   1.00
C92    C     0.45172   0.14814   0.98160   0.00000  Uiso   1.00
H93    H     0.48010   0.18500   0.06700   0.00000  Uiso   1.00
C94    C     0.49880   0.10261   0.85130   0.00000  Uiso   1.00
H95    H     0.55890   0.10660   0.85160   0.00000  Uiso   1.00
C96    C     0.45822   0.05107   0.72000   0.00000  Uiso   1.00
C97    C     0.37062   0.04087   0.72730   0.00000  Uiso   1.00
H98    H     0.34250   0.00430   0.64100   0.00000  Uiso   1.00
C99    C     0.32515   0.08511   0.86310   0.00000  Uiso   1.00
H100   H     0.26550   0.07700   0.87000   0.00000  Uiso   1.00
N101   N     0.51227   0.00620   0.58700   0.00000  Uiso   1.00
O102   O     0.58391   0.98190   0.64770   0.00000  Uiso   1.00
H103   H     0.78700   0.71520   0.41860   0.00000  Uiso   1.00
C104   C     0.69472   0.69130   0.62310   0.00000  Uiso   1.00
C105   C     0.75327   0.63755   0.75040   0.00000  Uiso   1.00
H106   H     0.79020   0.60160   0.67040   0.00000  Uiso   1.00
H107   H     0.71840   0.59980   0.83080   0.00000  Uiso   1.00
C108   C     0.64120   0.63637   0.49040   0.00000  Uiso   1.00
C109   C     0.64814   0.54828   0.48160   0.00000  Uiso   1.00
H110   H     0.68500   0.51990   0.56700   0.00000  Uiso   1.00
C111   C     0.60261   0.50120   0.35130   0.00000  Uiso   1.00
H112   H     0.60660   0.44110   0.35160   0.00000  Uiso   1.00
C113   C     0.55107   0.54178   0.22000   0.00000  Uiso   1.00
C114   C     0.54087   0.62938   0.22730   0.00000  Uiso   1.00
H115   H     0.50430   0.65750   0.14100   0.00000  Uiso   1.00
C116   C     0.58511   0.67485   0.36310   0.00000  Uiso   1.00
H117   H     0.57700   0.73450   0.37000   0.00000  Uiso   1.00
N118   N     0.50620   0.48773   0.08700   0.00000  Uiso   1.00
O119   O     0.48190   0.41609   0.14770   0.00000  Uiso   1.00
H120   H     0.71300   0.78480   0.41860   0.00000  Uiso   1.00
C121   C     0.80528   0.80870   0.62310   0.00000  Uiso   1.00
C122   C     0.74673   0.86245   0.75040   0.00000  Uiso   1.00
H123   H     0.70980   0.89840   0.67040   0.00000  Uiso   1.00
H124   H     0.78160   0.90020   0.83080   0.00000  Uiso   1.00
C125   C     0.85880   0.86363   0.49040   0.00000  Uiso   1.00
C126   C     0.85186   0.95172   0.48160   0.00000  Uiso   1.00
H127   H     0.81500   0.98010   0.56700   0.00000  Uiso   1.00
C128   C     0.89739   0.99880   0.35130   0.00000  Uiso   1.00
H129   H     0.89340   0.05890   0.35160   0.00000  Uiso   1.00
C130   C     0.94893   0.95822   0.22000   0.00000  Uiso   1.00
C131   C     0.95913   0.87062   0.22730   0.00000  Uiso   1.00
H132   H     0.99570   0.84250   0.14100   0.00000  Uiso   1.00
C133   C     0.91489   0.82515   0.36310   0.00000  Uiso   1.00
H134   H     0.92300   0.76550   0.37000   0.00000  Uiso   1.00
N135   N     0.99380   0.01227   0.08700   0.00000  Uiso   1.00
O136   O     0.01810   0.08391   0.14770   0.00000  Uiso   1.00
C137   C     0.75000   0.75000   0.99900   0.00000  Uiso   1.00
C138   C     0.25000   0.25000   0.49900   0.00000  Uiso   1.00
C139   C     0.25000   0.25000   0.00100   0.00000  Uiso   1.00
C140   C     0.75000   0.75000   0.50100   0.00000  Uiso   1.00
loop_
_geom_bond_atom_site_label_1
_geom_bond_atom_site_label_2
_geom_bond_distance
_geom_bond_site_symmetry_2
_ccdc_geom_bond_type
H1     C137    0.991   1_554 S
C2     C3      1.543   .     S
C2     C6      1.531   1_556 S
C2     C105    1.542   .     S
C2     C137    1.537   .     S
C3     H4      0.990   .     S
C3     H5      0.990   .     S
C3     C121    1.542   .     S
C6     C2      1.531   1_554 S
C6     C7      1.395   .     D
C6     C14     1.400   .     S
C7     H8      0.950   1_554 S
C7     C9      1.384   .     S
H8     C7      0.950   1_556 S
C9     H10     0.950   1_655 S
C9     C11     1.390   .     D
H10    C9      0.950   1_455 S
C11    C12     1.392   .     S
C11    N16     1.453   1_655 S
C12    H13     0.950   .     S
C12    C14     1.387   .     D
C14    H15     0.951   .     S
N16    C11     1.453   1_455 S
N16    O17     1.268   .     D
N16    N84     1.305   1_455 S
H18    C137    0.991   1_554 S
C19    C20     1.543   .     S
C19    C23     1.531   1_556 S
C19    C122    1.542   .     S
C19    C137    1.537   .     S
C20    H21     0.990   .     S
C20    H22     0.990   .     S
C20    C104    1.542   .     S
C23    C19     1.531   1_554 S
C23    C24     1.395   .     D
C23    C31     1.400   .     S
C24    H25     0.950   1_554 S
C24    C26     1.384   .     S
H25    C24     0.950   1_556 S
C26    H27     0.950   .     S
C26    C28     1.390   .     D
C28    C29     1.392   .     S
C28    N33     1.453   .     S
C29    H30     0.950   .     S
C29    C31     1.387   .     D
C31    H32     0.951   .     S
N33    O34     1.268   1_565 D
N33    N101    1.305   1_565 S
O34    N33     1.268   1_545 D
H35    C138    0.991   .     S
C36    C37     1.543   .     S
C36    C40     1.531   .     S
C36    C88     1.542   .     S
C36    C138    1.537   .     S
C37    H38     0.990   .     S
C37    H39     0.990   .     S
C37    C70     1.542   .     S
C40    C41     1.395   .     D
C40    C48     1.400   .     S
C41    H42     0.950   .     S
C41    C43     1.384   .     S
C43    H44     0.950   .     S
C43    C45     1.390   .     D
C45    C46     1.392   .     S
C45    N50     1.453   .     S
C46    H47     0.950   .     S
C46    C48     1.387   .     D
C48    H49     0.951   .     S
N50    O51     1.268   .     D
N50    N118    1.305   1_556 S
H52    C138    0.991   .     S
C53    C54     1.543   .     S
C53    C57     1.531   .     S
C53    C71     1.542   .     S
C53    C138    1.537   .     S
C54    H55     0.990   .     S
C54    H56     0.990   .     S
C54    C87     1.542   .     S
C57    C58     1.395   .     D
C57    C65     1.400   .     S
C58    H59     0.950   .     S
C58    C60     1.384   .     S
C60    H61     0.950   1_545 S
C60    C62     1.390   .     D
H61    C60     0.950   1_565 S
C62    C63     1.392   .     S
C62    N67     1.453   1_545 S
C63    H64     0.950   .     S
C63    C65     1.387   .     D
C65    H66     0.951   .     S
N67    C62     1.453   1_565 S
N67    O68     1.268   1_455 D
N67    N135    1.305   1_466 S
O68    N67     1.268   1_655 D
H69    C139    0.991   1_556 S
C70    C71     1.543   .     S
C70    C74     1.531   1_554 S
C70    C139    1.537   .     S
C71    H72     0.990   .     S
C71    H73     0.990   .     S
C74    C70     1.531   1_556 S
C74    C75     1.395   .     D
C74    C82     1.400   .     S
C75    H76     0.950   1_556 S
C75    C77     1.384   .     S
H76    C75     0.950   1_554 S
C77    H78     0.950   1_455 S
C77    C79     1.390   .     D
H78    C77     0.950   1_655 S
C79    C80     1.392   .     S
C79    N84     1.453   1_455 S
C80    H81     0.950   .     S
C80    C82     1.387   .     D
C82    H83     0.951   .     S
N84    C79     1.453   1_655 S
N84    N16     1.305   1_655 S
N84    O85     1.268   .     D
H86    C139    0.991   1_556 S
C87    C88     1.543   .     S
C87    C91     1.531   1_554 S
C87    C139    1.537   .     S
C88    H89     0.990   .     S
C88    H90     0.990   .     S
C91    C87     1.531   1_556 S
C91    C92     1.395   .     D
C91    C99     1.400   .     S
C92    H93     0.950   1_556 S
C92    C94     1.384   .     S
H93    C92     0.950   1_554 S
C94    H95     0.950   .     S
C94    C96     1.390   .     D
C96    C97     1.392   .     S
C96    N101    1.453   .     S
C97    H98     0.950   .     S
C97    C99     1.387   .     D
C99    H100    0.951   .     S
N101   N33     1.305   1_545 S
N101   O102    1.268   1_545 D
O102   N101    1.268   1_565 D
H103   C140    0.991   .     S
C104   C105    1.543   .     S
C104   C108    1.531   .     S
C104   C140    1.537   .     S
C105   H106    0.990   .     S
C105   H107    0.990   .     S
C108   C109    1.395   .     D
C108   C116    1.400   .     S
C109   H110    0.950   .     S
C109   C111    1.384   .     S
C111   H112    0.950   .     S
C111   C113    1.390   .     D
C113   C114    1.392   .     S
C113   N118    1.453   .     S
C114   H115    0.950   .     S
C114   C116    1.387   .     D
C116   H117    0.951   .     S
N118   N50     1.305   1_554 S
N118   O119    1.268   .     D
H120   C140    0.991   .     S
C121   C122    1.543   .     S
C121   C125    1.531   .     S
C121   C140    1.537   .     S
C122   H123    0.990   .     S
C122   H124    0.990   .     S
C125   C126    1.395   .     D
C125   C133    1.400   .     S
C126   H127    0.950   .     S
C126   C128    1.384   .     S
C128   H129    0.950   1_565 S
C128   C130    1.390   .     D
H129   C128    0.950   1_545 S
C130   C131    1.392   .     S
C130   N135    1.453   1_565 S
C131   H132    0.950   .     S
C131   C133    1.387   .     D
C133   H134    0.951   .     S
N135   C130    1.453   1_545 S
N135   N67     1.305   1_644 S
N135   O136    1.268   1_655 D
O136   N135    1.268   1_455 D
C137   H1      0.991   1_556 S
C137   H18     0.991   1_556 S
C139   H86     0.991   1_554 S
C139   H69     0.991   1_554 S
