data_324
_audit_creation_date              2023-09-08
_audit_creation_method            'Materials Studio'
_symmetry_space_group_name_H-M    'P1'
_symmetry_Int_Tables_number       1
_symmetry_cell_setting            triclinic
loop_
_symmetry_equiv_pos_as_xyz
  x,y,z
_cell_length_a                    30.8000
_cell_length_b                    30.8000
_cell_length_c                    9.9000
_cell_angle_alpha                 90.0000
_cell_angle_beta                  90.0000
_cell_angle_gamma                 120.0000
loop_
_atom_site_label
_atom_site_type_symbol
_atom_site_fract_x
_atom_site_fract_y
_atom_site_fract_z
_atom_site_U_iso_or_equiv
_atom_site_adp_type
_atom_site_occupancy
C1     C     0.36488   0.72312   0.00000   0.00000  Uiso   1.00
C2     C     0.30897   0.69756   0.00000   0.00000  Uiso   1.00
O3     O     0.43408   0.71173   0.00000   0.00000  Uiso   1.00
C4     C     0.37784   0.60381   0.00000   0.00000  Uiso   1.00
N5     N     0.43033   0.61837   0.00000   0.00000  Uiso   1.00
C6     C     0.44940   0.58384   0.00000   0.00000  Uiso   1.00
C7     C     0.41779   0.53155   0.00000   0.00000  Uiso   1.00
C8     C     0.43731   0.49934   0.00000   0.00000  Uiso   1.00
C9     C     0.48942   0.51758   0.00000   0.00000  Uiso   1.00
C10    C     0.52090   0.57019   0.00000   0.00000  Uiso   1.00
C11    C     0.50153   0.60288   0.00000   0.00000  Uiso   1.00
O12    O     0.53411   0.65472   0.00000   0.00000  Uiso   1.00
H13    H     0.57089   0.66506   0.00000   0.00000  Uiso   1.00
H14    H     0.80188   0.45764   0.00000   0.00000  Uiso   1.00
H15    H     0.41263   0.97362   0.00000   0.00000  Uiso   1.00
H16    H     0.53995   0.95005   0.00000   0.00000  Uiso   1.00
H17    H     0.48587   0.86349   0.00000   0.00000  Uiso   1.00
H18    H     0.43565   0.78718   0.00000   0.00000  Uiso   1.00
C19    C     0.03155   0.05645   0.33333   0.00000  Uiso   1.00
C20    C     0.97564   0.03089   0.33333   0.00000  Uiso   1.00
O21    O     0.10075   0.04506   0.33333   0.00000  Uiso   1.00
C22    C     0.04451   0.93714   0.33333   0.00000  Uiso   1.00
N23    N     0.09700   0.95170   0.33333   0.00000  Uiso   1.00
C24    C     0.11607   0.91717   0.33333   0.00000  Uiso   1.00
C25    C     0.08446   0.86488   0.33333   0.00000  Uiso   1.00
C26    C     0.10398   0.83267   0.33333   0.00000  Uiso   1.00
C27    C     0.15609   0.85091   0.33333   0.00000  Uiso   1.00
C28    C     0.18757   0.90352   0.33333   0.00000  Uiso   1.00
C29    C     0.16820   0.93621   0.33333   0.00000  Uiso   1.00
O30    O     0.20078   0.98805   0.33333   0.00000  Uiso   1.00
H31    H     0.23756   0.99839   0.33333   0.00000  Uiso   1.00
H32    H     0.46855   0.79097   0.33333   0.00000  Uiso   1.00
H33    H     0.07930   0.30695   0.33333   0.00000  Uiso   1.00
H34    H     0.20662   0.28338   0.33333   0.00000  Uiso   1.00
H35    H     0.15254   0.19682   0.33333   0.00000  Uiso   1.00
H36    H     0.10232   0.12051   0.33333   0.00000  Uiso   1.00
C37    C     0.69821   0.38979   0.66667   0.00000  Uiso   1.00
C38    C     0.64230   0.36423   0.66667   0.00000  Uiso   1.00
O39    O     0.76741   0.37840   0.66667   0.00000  Uiso   1.00
C40    C     0.71117   0.27048   0.66667   0.00000  Uiso   1.00
N41    N     0.76366   0.28504   0.66667   0.00000  Uiso   1.00
C42    C     0.78273   0.25051   0.66667   0.00000  Uiso   1.00
C43    C     0.75112   0.19822   0.66667   0.00000  Uiso   1.00
C44    C     0.77064   0.16601   0.66667   0.00000  Uiso   1.00
C45    C     0.82275   0.18425   0.66667   0.00000  Uiso   1.00
C46    C     0.85423   0.23686   0.66667   0.00000  Uiso   1.00
C47    C     0.83486   0.26955   0.66667   0.00000  Uiso   1.00
O48    O     0.86744   0.32139   0.66667   0.00000  Uiso   1.00
H49    H     0.90422   0.33173   0.66667   0.00000  Uiso   1.00
H50    H     0.13521   0.12431   0.66667   0.00000  Uiso   1.00
H51    H     0.74596   0.64029   0.66667   0.00000  Uiso   1.00
H52    H     0.87328   0.61672   0.66667   0.00000  Uiso   1.00
H53    H     0.81920   0.53016   0.66667   0.00000  Uiso   1.00
H54    H     0.76898   0.45385   0.66667   0.00000  Uiso   1.00
C55    C     0.27688   0.64176   0.00000   0.00000  Uiso   1.00
C56    C     0.30244   0.61141   0.00000   0.00000  Uiso   1.00
O57    O     0.28827   0.72235   0.00000   0.00000  Uiso   1.00
C58    C     0.39619   0.77403   0.00000   0.00000  Uiso   1.00
N59    N     0.38163   0.81196   0.00000   0.00000  Uiso   1.00
C60    C     0.41616   0.86556   0.00000   0.00000  Uiso   1.00
C61    C     0.46845   0.88624   0.00000   0.00000  Uiso   1.00
C62    C     0.50066   0.93797   0.00000   0.00000  Uiso   1.00
C63    C     0.48242   0.97184   0.00000   0.00000  Uiso   1.00
C64    C     0.42981   0.95071   0.00000   0.00000  Uiso   1.00
C65    C     0.39712   0.89865   0.00000   0.00000  Uiso   1.00
O66    O     0.34528   0.87939   0.00000   0.00000  Uiso   1.00
H67    H     0.33494   0.90583   0.00000   0.00000  Uiso   1.00
H68    H     0.54236   0.34424   0.00000   0.00000  Uiso   1.00
H69    H     0.02638   0.43901   0.00000   0.00000  Uiso   1.00
H70    H     0.04995   0.58990   0.00000   0.00000  Uiso   1.00
H71    H     0.13651   0.62238   0.00000   0.00000  Uiso   1.00
H72    H     0.21282   0.64847   0.00000   0.00000  Uiso   1.00
C73    C     0.94355   0.97509   0.33333   0.00000  Uiso   1.00
C74    C     0.96911   0.94474   0.33333   0.00000  Uiso   1.00
O75    O     0.95494   0.05568   0.33333   0.00000  Uiso   1.00
C76    C     0.06286   0.10736   0.33333   0.00000  Uiso   1.00
N77    N     0.04830   0.14529   0.33333   0.00000  Uiso   1.00
C78    C     0.08283   0.19889   0.33333   0.00000  Uiso   1.00
C79    C     0.13512   0.21957   0.33333   0.00000  Uiso   1.00
C80    C     0.16733   0.27130   0.33333   0.00000  Uiso   1.00
C81    C     0.14909   0.30517   0.33333   0.00000  Uiso   1.00
C82    C     0.09648   0.28404   0.33333   0.00000  Uiso   1.00
C83    C     0.06379   0.23198   0.33333   0.00000  Uiso   1.00
O84    O     0.01195   0.21272   0.33333   0.00000  Uiso   1.00
H85    H     0.00161   0.23916   0.33333   0.00000  Uiso   1.00
H86    H     0.20903   0.67757   0.33333   0.00000  Uiso   1.00
H87    H     0.69305   0.77234   0.33333   0.00000  Uiso   1.00
H88    H     0.71662   0.92323   0.33333   0.00000  Uiso   1.00
H89    H     0.80318   0.95571   0.33333   0.00000  Uiso   1.00
H90    H     0.87949   0.98180   0.33333   0.00000  Uiso   1.00
C91    C     0.61021   0.30843   0.66667   0.00000  Uiso   1.00
C92    C     0.63577   0.27808   0.66667   0.00000  Uiso   1.00
O93    O     0.62160   0.38902   0.66667   0.00000  Uiso   1.00
C94    C     0.72952   0.44070   0.66667   0.00000  Uiso   1.00
N95    N     0.71496   0.47863   0.66667   0.00000  Uiso   1.00
C96    C     0.74949   0.53223   0.66667   0.00000  Uiso   1.00
C97    C     0.80178   0.55291   0.66667   0.00000  Uiso   1.00
C98    C     0.83399   0.60464   0.66667   0.00000  Uiso   1.00
C99    C     0.81575   0.63851   0.66667   0.00000  Uiso   1.00
C100   C     0.76314   0.61738   0.66667   0.00000  Uiso   1.00
C101   C     0.73045   0.56532   0.66667   0.00000  Uiso   1.00
O102   O     0.67861   0.54606   0.66667   0.00000  Uiso   1.00
H103   H     0.66827   0.57250   0.66667   0.00000  Uiso   1.00
H104   H     0.87569   0.01091   0.66667   0.00000  Uiso   1.00
H105   H     0.35971   0.10568   0.66667   0.00000  Uiso   1.00
H106   H     0.38328   0.25657   0.66667   0.00000  Uiso   1.00
H107   H     0.46984   0.28905   0.66667   0.00000  Uiso   1.00
H108   H     0.54615   0.31514   0.66667   0.00000  Uiso   1.00
C109   C     0.35824   0.63512   0.00000   0.00000  Uiso   1.00
C110   C     0.38859   0.69103   0.00000   0.00000  Uiso   1.00
O111   O     0.27765   0.56592   0.00000   0.00000  Uiso   1.00
C112   C     0.22597   0.62216   0.00000   0.00000  Uiso   1.00
N113   N     0.18804   0.56967   0.00000   0.00000  Uiso   1.00
C114   C     0.13444   0.55060   0.00000   0.00000  Uiso   1.00
C115   C     0.11376   0.58221   0.00000   0.00000  Uiso   1.00
C116   C     0.06203   0.56269   0.00000   0.00000  Uiso   1.00
C117   C     0.02816   0.51058   0.00000   0.00000  Uiso   1.00
C118   C     0.04929   0.47910   0.00000   0.00000  Uiso   1.00
C119   C     0.10135   0.49847   0.00000   0.00000  Uiso   1.00
O120   O     0.12061   0.46589   0.00000   0.00000  Uiso   1.00
H121   H     0.09417   0.42911   0.00000   0.00000  Uiso   1.00
H122   H     0.65576   0.19812   0.00000   0.00000  Uiso   1.00
H123   H     0.56099   0.58737   0.00000   0.00000  Uiso   1.00
H124   H     0.41010   0.46005   0.00000   0.00000  Uiso   1.00
H125   H     0.37762   0.51413   0.00000   0.00000  Uiso   1.00
H126   H     0.35153   0.56435   0.00000   0.00000  Uiso   1.00
C127   C     0.02491   0.96845   0.33333   0.00000  Uiso   1.00
C128   C     0.05526   0.02436   0.33333   0.00000  Uiso   1.00
O129   O     0.94432   0.89925   0.33333   0.00000  Uiso   1.00
C130   C     0.89264   0.95549   0.33333   0.00000  Uiso   1.00
N131   N     0.85471   0.90300   0.33333   0.00000  Uiso   1.00
C132   C     0.80111   0.88393   0.33333   0.00000  Uiso   1.00
C133   C     0.78043   0.91554   0.33333   0.00000  Uiso   1.00
C134   C     0.72870   0.89602   0.33333   0.00000  Uiso   1.00
C135   C     0.69483   0.84391   0.33333   0.00000  Uiso   1.00
C136   C     0.71596   0.81243   0.33333   0.00000  Uiso   1.00
C137   C     0.76802   0.83180   0.33333   0.00000  Uiso   1.00
O138   O     0.78728   0.79922   0.33333   0.00000  Uiso   1.00
H139   H     0.76084   0.76244   0.33333   0.00000  Uiso   1.00
H140   H     0.32243   0.53145   0.33333   0.00000  Uiso   1.00
H141   H     0.22766   0.92070   0.33333   0.00000  Uiso   1.00
H142   H     0.07677   0.79338   0.33333   0.00000  Uiso   1.00
H143   H     0.04429   0.84746   0.33333   0.00000  Uiso   1.00
H144   H     0.01820   0.89768   0.33333   0.00000  Uiso   1.00
C145   C     0.69157   0.30179   0.66667   0.00000  Uiso   1.00
C146   C     0.72192   0.35770   0.66667   0.00000  Uiso   1.00
O147   O     0.61098   0.23259   0.66667   0.00000  Uiso   1.00
C148   C     0.55930   0.28883   0.66667   0.00000  Uiso   1.00
N149   N     0.52137   0.23634   0.66667   0.00000  Uiso   1.00
C150   C     0.46777   0.21727   0.66667   0.00000  Uiso   1.00
C151   C     0.44709   0.24888   0.66667   0.00000  Uiso   1.00
C152   C     0.39536   0.22936   0.66667   0.00000  Uiso   1.00
C153   C     0.36149   0.17725   0.66667   0.00000  Uiso   1.00
C154   C     0.38262   0.14577   0.66667   0.00000  Uiso   1.00
C155   C     0.43468   0.16514   0.66667   0.00000  Uiso   1.00
O156   O     0.45394   0.13256   0.66667   0.00000  Uiso   1.00
H157   H     0.42750   0.09578   0.66667   0.00000  Uiso   1.00
H158   H     0.98909   0.86479   0.66667   0.00000  Uiso   1.00
H159   H     0.89432   0.25404   0.66667   0.00000  Uiso   1.00
H160   H     0.74343   0.12672   0.66667   0.00000  Uiso   1.00
H161   H     0.71095   0.18080   0.66667   0.00000  Uiso   1.00
H162   H     0.68486   0.23102   0.66667   0.00000  Uiso   1.00
C163   C     0.63512   0.27688   0.00000   0.00000  Uiso   1.00
C164   C     0.69103   0.30244   0.00000   0.00000  Uiso   1.00
O165   O     0.56592   0.28827   0.00000   0.00000  Uiso   1.00
C166   C     0.62216   0.39619   0.00000   0.00000  Uiso   1.00
N167   N     0.56967   0.38163   0.00000   0.00000  Uiso   1.00
C168   C     0.55060   0.41616   0.00000   0.00000  Uiso   1.00
C169   C     0.58221   0.46845   0.00000   0.00000  Uiso   1.00
C170   C     0.56269   0.50066   0.00000   0.00000  Uiso   1.00
C171   C     0.51058   0.48242   0.00000   0.00000  Uiso   1.00
C172   C     0.47910   0.42981   0.00000   0.00000  Uiso   1.00
C173   C     0.49847   0.39712   0.00000   0.00000  Uiso   1.00
O174   O     0.46589   0.34528   0.00000   0.00000  Uiso   1.00
H175   H     0.42911   0.33494   0.00000   0.00000  Uiso   1.00
H176   H     0.19812   0.54236   0.00000   0.00000  Uiso   1.00
H177   H     0.58737   0.02638   0.00000   0.00000  Uiso   1.00
H178   H     0.46005   0.04995   0.00000   0.00000  Uiso   1.00
H179   H     0.51413   0.13651   0.00000   0.00000  Uiso   1.00
H180   H     0.56435   0.21282   0.00000   0.00000  Uiso   1.00
C181   C     0.30179   0.61021   0.33333   0.00000  Uiso   1.00
C182   C     0.35770   0.63577   0.33333   0.00000  Uiso   1.00
O183   O     0.23259   0.62160   0.33333   0.00000  Uiso   1.00
C184   C     0.28883   0.72952   0.33333   0.00000  Uiso   1.00
N185   N     0.23634   0.71496   0.33333   0.00000  Uiso   1.00
C186   C     0.21727   0.74949   0.33333   0.00000  Uiso   1.00
C187   C     0.24888   0.80178   0.33333   0.00000  Uiso   1.00
C188   C     0.22936   0.83399   0.33333   0.00000  Uiso   1.00
C189   C     0.17725   0.81575   0.33333   0.00000  Uiso   1.00
C190   C     0.14577   0.76314   0.33333   0.00000  Uiso   1.00
C191   C     0.16514   0.73045   0.33333   0.00000  Uiso   1.00
O192   O     0.13256   0.67861   0.33333   0.00000  Uiso   1.00
H193   H     0.09578   0.66827   0.33333   0.00000  Uiso   1.00
H194   H     0.86479   0.87569   0.33333   0.00000  Uiso   1.00
H195   H     0.25404   0.35971   0.33333   0.00000  Uiso   1.00
H196   H     0.12672   0.38328   0.33333   0.00000  Uiso   1.00
H197   H     0.18080   0.46984   0.33333   0.00000  Uiso   1.00
H198   H     0.23102   0.54615   0.33333   0.00000  Uiso   1.00
C199   C     0.96845   0.94355   0.66667   0.00000  Uiso   1.00
C200   C     0.02436   0.96911   0.66667   0.00000  Uiso   1.00
O201   O     0.89925   0.95494   0.66667   0.00000  Uiso   1.00
C202   C     0.95549   0.06286   0.66667   0.00000  Uiso   1.00
N203   N     0.90300   0.04830   0.66667   0.00000  Uiso   1.00
C204   C     0.88393   0.08283   0.66667   0.00000  Uiso   1.00
C205   C     0.91554   0.13512   0.66667   0.00000  Uiso   1.00
C206   C     0.89602   0.16733   0.66667   0.00000  Uiso   1.00
C207   C     0.84391   0.14909   0.66667   0.00000  Uiso   1.00
C208   C     0.81243   0.09648   0.66667   0.00000  Uiso   1.00
C209   C     0.83180   0.06379   0.66667   0.00000  Uiso   1.00
O210   O     0.79922   0.01195   0.66667   0.00000  Uiso   1.00
H211   H     0.76244   0.00161   0.66667   0.00000  Uiso   1.00
H212   H     0.53145   0.20903   0.66667   0.00000  Uiso   1.00
H213   H     0.92070   0.69305   0.66667   0.00000  Uiso   1.00
H214   H     0.79338   0.71662   0.66667   0.00000  Uiso   1.00
H215   H     0.84746   0.80318   0.66667   0.00000  Uiso   1.00
H216   H     0.89768   0.87949   0.66667   0.00000  Uiso   1.00
C217   C     0.72312   0.35824   0.00000   0.00000  Uiso   1.00
C218   C     0.69756   0.38859   0.00000   0.00000  Uiso   1.00
O219   O     0.71173   0.27765   0.00000   0.00000  Uiso   1.00
C220   C     0.60381   0.22597   0.00000   0.00000  Uiso   1.00
N221   N     0.61837   0.18804   0.00000   0.00000  Uiso   1.00
C222   C     0.58384   0.13444   0.00000   0.00000  Uiso   1.00
C223   C     0.53155   0.11376   0.00000   0.00000  Uiso   1.00
C224   C     0.49934   0.06203   0.00000   0.00000  Uiso   1.00
C225   C     0.51758   0.02816   0.00000   0.00000  Uiso   1.00
C226   C     0.57019   0.04929   0.00000   0.00000  Uiso   1.00
C227   C     0.60288   0.10135   0.00000   0.00000  Uiso   1.00
O228   O     0.65472   0.12061   0.00000   0.00000  Uiso   1.00
H229   H     0.66506   0.09417   0.00000   0.00000  Uiso   1.00
H230   H     0.45764   0.65576   0.00000   0.00000  Uiso   1.00
H231   H     0.97362   0.56099   0.00000   0.00000  Uiso   1.00
H232   H     0.95005   0.41010   0.00000   0.00000  Uiso   1.00
H233   H     0.86349   0.37762   0.00000   0.00000  Uiso   1.00
H234   H     0.78718   0.35153   0.00000   0.00000  Uiso   1.00
C235   C     0.38979   0.69157   0.33333   0.00000  Uiso   1.00
C236   C     0.36423   0.72192   0.33333   0.00000  Uiso   1.00
O237   O     0.37840   0.61098   0.33333   0.00000  Uiso   1.00
C238   C     0.27048   0.55930   0.33333   0.00000  Uiso   1.00
N239   N     0.28504   0.52137   0.33333   0.00000  Uiso   1.00
C240   C     0.25051   0.46777   0.33333   0.00000  Uiso   1.00
C241   C     0.19822   0.44709   0.33333   0.00000  Uiso   1.00
C242   C     0.16601   0.39536   0.33333   0.00000  Uiso   1.00
C243   C     0.18425   0.36149   0.33333   0.00000  Uiso   1.00
C244   C     0.23686   0.38262   0.33333   0.00000  Uiso   1.00
C245   C     0.26955   0.43468   0.33333   0.00000  Uiso   1.00
O246   O     0.32139   0.45394   0.33333   0.00000  Uiso   1.00
H247   H     0.33173   0.42750   0.33333   0.00000  Uiso   1.00
H248   H     0.12431   0.98909   0.33333   0.00000  Uiso   1.00
H249   H     0.64029   0.89432   0.33333   0.00000  Uiso   1.00
H250   H     0.61672   0.74343   0.33333   0.00000  Uiso   1.00
H251   H     0.53016   0.71095   0.33333   0.00000  Uiso   1.00
H252   H     0.45385   0.68486   0.33333   0.00000  Uiso   1.00
C253   C     0.05645   0.02491   0.66667   0.00000  Uiso   1.00
C254   C     0.03089   0.05526   0.66667   0.00000  Uiso   1.00
O255   O     0.04506   0.94432   0.66667   0.00000  Uiso   1.00
C256   C     0.93714   0.89264   0.66667   0.00000  Uiso   1.00
N257   N     0.95170   0.85471   0.66667   0.00000  Uiso   1.00
C258   C     0.91717   0.80111   0.66667   0.00000  Uiso   1.00
C259   C     0.86488   0.78043   0.66667   0.00000  Uiso   1.00
C260   C     0.83267   0.72870   0.66667   0.00000  Uiso   1.00
C261   C     0.85091   0.69483   0.66667   0.00000  Uiso   1.00
C262   C     0.90352   0.71596   0.66667   0.00000  Uiso   1.00
C263   C     0.93621   0.76802   0.66667   0.00000  Uiso   1.00
O264   O     0.98805   0.78728   0.66667   0.00000  Uiso   1.00
H265   H     0.99839   0.76084   0.66667   0.00000  Uiso   1.00
H266   H     0.79097   0.32243   0.66667   0.00000  Uiso   1.00
H267   H     0.30695   0.22766   0.66667   0.00000  Uiso   1.00
H268   H     0.28338   0.07677   0.66667   0.00000  Uiso   1.00
H269   H     0.19682   0.04429   0.66667   0.00000  Uiso   1.00
H270   H     0.12051   0.01820   0.66667   0.00000  Uiso   1.00
C271   C     0.64176   0.36488   0.00000   0.00000  Uiso   1.00
C272   C     0.61141   0.30897   0.00000   0.00000  Uiso   1.00
O273   O     0.72235   0.43408   0.00000   0.00000  Uiso   1.00
C274   C     0.77403   0.37784   0.00000   0.00000  Uiso   1.00
N275   N     0.81196   0.43033   0.00000   0.00000  Uiso   1.00
C276   C     0.86556   0.44940   0.00000   0.00000  Uiso   1.00
C277   C     0.88624   0.41779   0.00000   0.00000  Uiso   1.00
C278   C     0.93797   0.43731   0.00000   0.00000  Uiso   1.00
C279   C     0.97184   0.48942   0.00000   0.00000  Uiso   1.00
C280   C     0.95071   0.52090   0.00000   0.00000  Uiso   1.00
C281   C     0.89865   0.50153   0.00000   0.00000  Uiso   1.00
O282   O     0.87939   0.53411   0.00000   0.00000  Uiso   1.00
H283   H     0.90583   0.57089   0.00000   0.00000  Uiso   1.00
H284   H     0.34424   0.80188   0.00000   0.00000  Uiso   1.00
H285   H     0.43901   0.41263   0.00000   0.00000  Uiso   1.00
H286   H     0.58990   0.53995   0.00000   0.00000  Uiso   1.00
H287   H     0.62238   0.48587   0.00000   0.00000  Uiso   1.00
H288   H     0.64847   0.43565   0.00000   0.00000  Uiso   1.00
C289   C     0.30843   0.69821   0.33333   0.00000  Uiso   1.00
C290   C     0.27808   0.64230   0.33333   0.00000  Uiso   1.00
O291   O     0.38902   0.76741   0.33333   0.00000  Uiso   1.00
C292   C     0.44070   0.71117   0.33333   0.00000  Uiso   1.00
N293   N     0.47863   0.76366   0.33333   0.00000  Uiso   1.00
C294   C     0.53223   0.78273   0.33333   0.00000  Uiso   1.00
C295   C     0.55291   0.75112   0.33333   0.00000  Uiso   1.00
C296   C     0.60464   0.77064   0.33333   0.00000  Uiso   1.00
C297   C     0.63851   0.82275   0.33333   0.00000  Uiso   1.00
C298   C     0.61738   0.85423   0.33333   0.00000  Uiso   1.00
C299   C     0.56532   0.83486   0.33333   0.00000  Uiso   1.00
O300   O     0.54606   0.86744   0.33333   0.00000  Uiso   1.00
H301   H     0.57250   0.90422   0.33333   0.00000  Uiso   1.00
H302   H     0.01091   0.13521   0.33333   0.00000  Uiso   1.00
H303   H     0.10568   0.74596   0.33333   0.00000  Uiso   1.00
H304   H     0.25657   0.87328   0.33333   0.00000  Uiso   1.00
H305   H     0.28905   0.81920   0.33333   0.00000  Uiso   1.00
H306   H     0.31514   0.76898   0.33333   0.00000  Uiso   1.00
C307   C     0.97509   0.03155   0.66667   0.00000  Uiso   1.00
C308   C     0.94474   0.97564   0.66667   0.00000  Uiso   1.00
O309   O     0.05568   0.10075   0.66667   0.00000  Uiso   1.00
C310   C     0.10736   0.04451   0.66667   0.00000  Uiso   1.00
N311   N     0.14529   0.09700   0.66667   0.00000  Uiso   1.00
C312   C     0.19889   0.11607   0.66667   0.00000  Uiso   1.00
C313   C     0.21957   0.08446   0.66667   0.00000  Uiso   1.00
C314   C     0.27130   0.10398   0.66667   0.00000  Uiso   1.00
C315   C     0.30517   0.15609   0.66667   0.00000  Uiso   1.00
C316   C     0.28404   0.18757   0.66667   0.00000  Uiso   1.00
C317   C     0.23198   0.16820   0.66667   0.00000  Uiso   1.00
O318   O     0.21272   0.20078   0.66667   0.00000  Uiso   1.00
H319   H     0.23916   0.23756   0.66667   0.00000  Uiso   1.00
H320   H     0.67757   0.46855   0.66667   0.00000  Uiso   1.00
H321   H     0.77234   0.07930   0.66667   0.00000  Uiso   1.00
H322   H     0.92323   0.20662   0.66667   0.00000  Uiso   1.00
H323   H     0.95571   0.15254   0.66667   0.00000  Uiso   1.00
H324   H     0.98180   0.10232   0.66667   0.00000  Uiso   1.00
loop_
_geom_bond_atom_site_label_1
_geom_bond_atom_site_label_2
_geom_bond_distance
_geom_bond_site_symmetry_2
_ccdc_geom_bond_type
C1     C2      1.493   .     S
C1     C58     1.370   .     D
C1     C110    1.494   .     S
C2     C55     1.494   .     S
C2     O57     1.215   .     D
O3     C110    1.215   .     D
C4     N5      1.446   .     S
C4     C109    1.370   .     D
C4     H126    1.072   .     S
N5     C6      1.449   .     S
N5     H230    1.032   .     S
C6     C7      1.405   .     D
C6     C11     1.407   .     S
C7     C8      1.394   .     S
C7     H125    1.075   .     S
C8     C9      1.411   .     D
C8     H124    1.074   .     S
C9     C10     1.412   .     S
C9     C171    1.518   .     S
C10    C11     1.404   .     D
C10    H123    1.073   .     S
C11    O12     1.398   .     S
O12    H13     1.012   .     S
H14    N275    1.032   .     S
H15    C64     1.073   .     S
H16    C62     1.074   .     S
H17    C61     1.075   .     S
H18    C58     1.072   .     S
C19    C20     1.493   1_455 S
C19    C76     1.370   .     D
C19    C128    1.494   .     S
C20    C19     1.493   1_655 S
C20    C73     1.494   1_545 S
C20    O75     1.215   .     D
O21    C128    1.215   .     D
C22    N23     1.446   .     S
C22    C127    1.370   .     D
C22    H144    1.072   .     S
N23    C24     1.449   .     S
N23    H248    1.032   .     S
C24    C25     1.405   .     D
C24    C29     1.407   .     S
C25    C26     1.394   .     S
C25    H143    1.075   .     S
C26    C27     1.411   .     D
C26    H142    1.074   .     S
C27    C28     1.412   .     S
C27    C189    1.518   .     S
C28    C29     1.404   .     D
C28    H141    1.073   .     S
C29    O30     1.398   .     S
O30    H31     1.012   .     S
H32    N293    1.032   .     S
H33    C82     1.073   .     S
H34    C80     1.074   .     S
H35    C79     1.075   .     S
H36    C76     1.072   .     S
C37    C38     1.493   .     S
C37    C94     1.370   .     D
C37    C146    1.494   .     S
C38    C91     1.494   .     S
C38    O93     1.215   .     D
O39    C146    1.215   .     D
C40    N41     1.446   .     S
C40    C145    1.370   .     D
C40    H162    1.072   .     S
N41    C42     1.449   .     S
N41    H266    1.032   .     S
C42    C43     1.405   .     D
C42    C47     1.407   .     S
C43    C44     1.394   .     S
C43    H161    1.075   .     S
C44    C45     1.411   .     D
C44    H160    1.074   .     S
C45    C46     1.412   .     S
C45    C207    1.518   .     S
C46    C47     1.404   .     D
C46    H159    1.073   .     S
C47    O48     1.398   .     S
O48    H49     1.012   .     S
H50    N311    1.032   .     S
H51    C100    1.073   .     S
H52    C98     1.074   .     S
H53    C97     1.075   .     S
H54    C94     1.072   .     S
C55    C56     1.493   .     S
C55    C112    1.370   .     D
C56    C109    1.494   .     S
C56    O111    1.215   .     D
C58    N59     1.446   .     S
N59    C60     1.449   .     S
N59    H284    1.032   .     S
C60    C61     1.405   .     D
C60    C65     1.407   .     S
C61    C62     1.394   .     S
C62    C63     1.411   .     D
C63    C64     1.412   .     S
C63    C225    1.518   1_565 S
C64    C65     1.404   .     D
C65    O66     1.398   .     S
O66    H67     1.012   .     S
H68    N167    1.032   .     S
H69    C118    1.073   .     S
H70    C116    1.074   .     S
H71    C115    1.075   .     S
H72    C112    1.072   .     S
C73    C20     1.494   1_565 S
C73    C74     1.493   .     S
C73    C130    1.370   .     D
C74    C127    1.494   1_655 S
C74    O129    1.215   .     D
C76    N77     1.446   .     S
N77    C78     1.449   .     S
N77    H302    1.032   .     S
C78    C79     1.405   .     D
C78    C83     1.407   .     S
C79    C80     1.394   .     S
C80    C81     1.411   .     D
C81    C82     1.412   .     S
C81    C243    1.518   .     S
C82    C83     1.404   .     D
C83    O84     1.398   .     S
O84    H85     1.012   .     S
H86    N185    1.032   .     S
H87    C136    1.073   .     S
H88    C134    1.074   .     S
H89    C133    1.075   .     S
H90    C130    1.072   .     S
C91    C92     1.493   .     S
C91    C148    1.370   .     D
C92    C145    1.494   .     S
C92    O147    1.215   .     D
C94    N95     1.446   .     S
N95    C96     1.449   .     S
N95    H320    1.032   .     S
C96    C97     1.405   .     D
C96    C101    1.407   .     S
C97    C98     1.394   .     S
C98    C99     1.411   .     D
C99    C100    1.412   .     S
C99    C261    1.518   .     S
C100   C101    1.404   .     D
C101   O102    1.398   .     S
O102   H103    1.012   .     S
H104   N203    1.032   .     S
H105   C154    1.073   .     S
H106   C152    1.074   .     S
H107   C151    1.075   .     S
H108   C148    1.072   .     S
C109   C110    1.493   .     S
C112   N113    1.446   .     S
N113   C114    1.449   .     S
N113   H176    1.032   .     S
C114   C115    1.405   .     D
C114   C119    1.407   .     S
C115   C116    1.394   .     S
C116   C117    1.411   .     D
C117   C118    1.412   .     S
C117   C279    1.518   1_455 S
C118   C119    1.404   .     D
C119   O120    1.398   .     S
O120   H121    1.012   .     S
H122   N221    1.032   .     S
C127   C74     1.494   1_455 S
C127   C128    1.493   1_565 S
C128   C127    1.493   1_545 S
C130   N131    1.446   .     S
N131   C132    1.449   .     S
N131   H194    1.032   .     S
C132   C133    1.405   .     D
C132   C137    1.407   .     S
C133   C134    1.394   .     S
C134   C135    1.411   .     D
C135   C136    1.412   .     S
C135   C297    1.518   .     S
C136   C137    1.404   .     D
C137   O138    1.398   .     S
O138   H139    1.012   .     S
H140   N239    1.032   .     S
C145   C146    1.493   .     S
C148   N149    1.446   .     S
N149   C150    1.449   .     S
N149   H212    1.032   .     S
C150   C151    1.405   .     D
C150   C155    1.407   .     S
C151   C152    1.394   .     S
C152   C153    1.411   .     D
C153   C154    1.412   .     S
C153   C315    1.518   .     S
C154   C155    1.404   .     D
C155   O156    1.398   .     S
O156   H157    1.012   .     S
H158   N257    1.032   .     S
C163   C164    1.493   .     S
C163   C220    1.370   .     D
C163   C272    1.494   .     S
C164   C217    1.494   .     S
C164   O219    1.215   .     D
O165   C272    1.215   .     D
C166   N167    1.446   .     S
C166   C271    1.370   .     D
C166   H288    1.072   .     S
N167   C168    1.449   .     S
C168   C169    1.405   .     D
C168   C173    1.407   .     S
C169   C170    1.394   .     S
C169   H287    1.075   .     S
C170   C171    1.411   .     D
C170   H286    1.074   .     S
C171   C172    1.412   .     S
C172   C173    1.404   .     D
C172   H285    1.073   .     S
C173   O174    1.398   .     S
O174   H175    1.012   .     S
H177   C226    1.073   .     S
H178   C224    1.074   .     S
H179   C223    1.075   .     S
H180   C220    1.072   .     S
C181   C182    1.493   .     S
C181   C238    1.370   .     D
C181   C290    1.494   .     S
C182   C235    1.494   .     S
C182   O237    1.215   .     D
O183   C290    1.215   .     D
C184   N185    1.446   .     S
C184   C289    1.370   .     D
C184   H306    1.072   .     S
N185   C186    1.449   .     S
C186   C187    1.405   .     D
C186   C191    1.407   .     S
C187   C188    1.394   .     S
C187   H305    1.075   .     S
C188   C189    1.411   .     D
C188   H304    1.074   .     S
C189   C190    1.412   .     S
C190   C191    1.404   .     D
C190   H303    1.073   .     S
C191   O192    1.398   .     S
O192   H193    1.012   .     S
H195   C244    1.073   .     S
H196   C242    1.074   .     S
H197   C241    1.075   .     S
H198   C238    1.072   .     S
C199   C200    1.493   1_655 S
C199   C256    1.370   .     D
C199   C308    1.494   .     S
C200   C199    1.493   1_455 S
C200   C253    1.494   1_565 S
C200   O255    1.215   .     D
O201   C308    1.215   .     D
C202   N203    1.446   .     S
C202   C307    1.370   .     D
C202   H324    1.072   .     S
N203   C204    1.449   .     S
C204   C205    1.405   .     D
C204   C209    1.407   .     S
C205   C206    1.394   .     S
C205   H323    1.075   .     S
C206   C207    1.411   .     D
C206   H322    1.074   .     S
C207   C208    1.412   .     S
C208   C209    1.404   .     D
C208   H321    1.073   .     S
C209   O210    1.398   .     S
O210   H211    1.012   .     S
H213   C262    1.073   .     S
H214   C260    1.074   .     S
H215   C259    1.075   .     S
H216   C256    1.072   .     S
C217   C218    1.493   .     S
C217   C274    1.370   .     D
C218   C271    1.494   .     S
C218   O273    1.215   .     D
C220   N221    1.446   .     S
N221   C222    1.449   .     S
C222   C223    1.405   .     D
C222   C227    1.407   .     S
C223   C224    1.394   .     S
C224   C225    1.411   .     D
C225   C63     1.518   1_545 S
C225   C226    1.412   .     S
C226   C227    1.404   .     D
C227   O228    1.398   .     S
O228   H229    1.012   .     S
H231   C280    1.073   .     S
H232   C278    1.074   .     S
H233   C277    1.075   .     S
H234   C274    1.072   .     S
C235   C236    1.493   .     S
C235   C292    1.370   .     D
C236   C289    1.494   .     S
C236   O291    1.215   .     D
C238   N239    1.446   .     S
N239   C240    1.449   .     S
C240   C241    1.405   .     D
C240   C245    1.407   .     S
C241   C242    1.394   .     S
C242   C243    1.411   .     D
C243   C244    1.412   .     S
C244   C245    1.404   .     D
C245   O246    1.398   .     S
O246   H247    1.012   .     S
H249   C298    1.073   .     S
H250   C296    1.074   .     S
H251   C295    1.075   .     S
H252   C292    1.072   .     S
C253   C200    1.494   1_545 S
C253   C254    1.493   .     S
C253   C310    1.370   .     D
C254   C307    1.494   1_455 S
C254   O309    1.215   .     D
C256   N257    1.446   .     S
N257   C258    1.449   .     S
C258   C259    1.405   .     D
C258   C263    1.407   .     S
C259   C260    1.394   .     S
C260   C261    1.411   .     D
C261   C262    1.412   .     S
C262   C263    1.404   .     D
C263   O264    1.398   .     S
O264   H265    1.012   .     S
H267   C316    1.073   .     S
H268   C314    1.074   .     S
H269   C313    1.075   .     S
H270   C310    1.072   .     S
C271   C272    1.493   .     S
C274   N275    1.446   .     S
N275   C276    1.449   .     S
C276   C277    1.405   .     S
C276   C281    1.407   .     D
C277   C278    1.394   .     D
C278   C279    1.411   .     S
C279   C117    1.518   1_655 S
C279   C280    1.412   .     D
C280   C281    1.404   .     S
C281   O282    1.398   .     S
O282   H283    1.012   .     S
C289   C290    1.493   .     S
C292   N293    1.446   .     S
N293   C294    1.449   .     S
C294   C295    1.405   .     D
C294   C299    1.407   .     S
C295   C296    1.394   .     S
C296   C297    1.411   .     D
C297   C298    1.412   .     S
C298   C299    1.404   .     D
C299   O300    1.398   .     S
O300   H301    1.012   .     S
C307   C254    1.494   1_655 S
C307   C308    1.493   1_545 S
C308   C307    1.493   1_565 S
C310   N311    1.446   .     S
N311   C312    1.449   .     S
C312   C313    1.405   .     S
C312   C317    1.407   .     D
C313   C314    1.394   .     D
C314   C315    1.411   .     S
C315   C316    1.412   .     D
C316   C317    1.404   .     S
C317   O318    1.398   .     S
O318   H319    1.012   .     S
