data_325
_audit_creation_date              2023-09-08
_audit_creation_method            'Materials Studio'
_symmetry_space_group_name_H-M    'P1'
_symmetry_Int_Tables_number       1
_symmetry_cell_setting            triclinic
loop_
_symmetry_equiv_pos_as_xyz
  x,y,z
_cell_length_a                    22.5560
_cell_length_b                    22.5560
_cell_length_c                    3.5000
_cell_angle_alpha                 90.0000
_cell_angle_beta                  90.0000
_cell_angle_gamma                 120.0000
loop_
_atom_site_label
_atom_site_type_symbol
_atom_site_fract_x
_atom_site_fract_y
_atom_site_fract_z
_atom_site_U_iso_or_equiv
_atom_site_adp_type
_atom_site_occupancy
H1     H     0.37353   0.42043   0.50000   0.00000  Uiso   1.00
H2     H     0.48370   0.65597   0.50000   0.00000  Uiso   1.00
H3     H     0.54893   0.62685   0.50000   0.00000  Uiso   1.00
H4     H     0.35757   0.51744   0.50000   0.00000  Uiso   1.00
C5     C     0.30695   0.59146   0.50000   0.00000  Uiso   1.00
C6     C     0.38113   0.64063   0.50000   0.00000  Uiso   1.00
C7     C     0.45481   0.52704   0.50000   0.00000  Uiso   1.00
C8     C     0.42936   0.45590   0.50000   0.00000  Uiso   1.00
C9     C     0.52764   0.57065   0.50000   0.00000  Uiso   1.00
C10    C     0.42797   0.61784   0.50000   0.00000  Uiso   1.00
N11    N     0.41129   0.55212   0.50000   0.00000  Uiso   1.00
O12    O     0.28355   0.52709   0.50000   0.00000  Uiso   1.00
H13    H     0.57957   0.95310   0.50000   0.00000  Uiso   1.00
H14    H     0.34403   0.82773   0.50000   0.00000  Uiso   1.00
H15    H     0.37315   0.92208   0.50000   0.00000  Uiso   1.00
H16    H     0.48256   0.84013   0.50000   0.00000  Uiso   1.00
C17    C     0.40854   0.71549   0.50000   0.00000  Uiso   1.00
C18    C     0.35937   0.74050   0.50000   0.00000  Uiso   1.00
C19    C     0.47296   0.92777   0.50000   0.00000  Uiso   1.00
C20    C     0.54410   0.97346   0.50000   0.00000  Uiso   1.00
C21    C     0.42935   0.95699   0.50000   0.00000  Uiso   1.00
C22    C     0.38216   0.81013   0.50000   0.00000  Uiso   1.00
N23    N     0.44788   0.85917   0.50000   0.00000  Uiso   1.00
O24    O     0.47291   0.75646   0.50000   0.00000  Uiso   1.00
H25    H     0.04690   0.62647   0.50000   0.00000  Uiso   1.00
H26    H     0.17227   0.51630   0.50000   0.00000  Uiso   1.00
H27    H     0.07792   0.45107   0.50000   0.00000  Uiso   1.00
H28    H     0.15987   0.64243   0.50000   0.00000  Uiso   1.00
C29    C     0.28451   0.69305   0.50000   0.00000  Uiso   1.00
C30    C     0.25950   0.61887   0.50000   0.00000  Uiso   1.00
C31    C     0.07223   0.54519   0.50000   0.00000  Uiso   1.00
C32    C     0.02654   0.57064   0.50000   0.00000  Uiso   1.00
C33    C     0.04301   0.47236   0.50000   0.00000  Uiso   1.00
C34    C     0.18987   0.57203   0.50000   0.00000  Uiso   1.00
N35    N     0.14083   0.58871   0.50000   0.00000  Uiso   1.00
O36    O     0.24354   0.71645   0.50000   0.00000  Uiso   1.00
H37    H     0.62647   0.57957   0.50000   0.00000  Uiso   1.00
H38    H     0.51630   0.34403   0.50000   0.00000  Uiso   1.00
H39    H     0.45107   0.37315   0.50000   0.00000  Uiso   1.00
H40    H     0.64243   0.48256   0.50000   0.00000  Uiso   1.00
C41    C     0.69305   0.40854   0.50000   0.00000  Uiso   1.00
C42    C     0.61887   0.35937   0.50000   0.00000  Uiso   1.00
C43    C     0.54519   0.47296   0.50000   0.00000  Uiso   1.00
C44    C     0.57064   0.54410   0.50000   0.00000  Uiso   1.00
C45    C     0.47236   0.42935   0.50000   0.00000  Uiso   1.00
C46    C     0.57203   0.38216   0.50000   0.00000  Uiso   1.00
N47    N     0.58871   0.44788   0.50000   0.00000  Uiso   1.00
O48    O     0.71645   0.47291   0.50000   0.00000  Uiso   1.00
H49    H     0.42043   0.04690   0.50000   0.00000  Uiso   1.00
H50    H     0.65597   0.17227   0.50000   0.00000  Uiso   1.00
H51    H     0.62685   0.07792   0.50000   0.00000  Uiso   1.00
H52    H     0.51744   0.15987   0.50000   0.00000  Uiso   1.00
C53    C     0.59146   0.28451   0.50000   0.00000  Uiso   1.00
C54    C     0.64063   0.25950   0.50000   0.00000  Uiso   1.00
C55    C     0.52704   0.07223   0.50000   0.00000  Uiso   1.00
C56    C     0.45590   0.02654   0.50000   0.00000  Uiso   1.00
C57    C     0.57065   0.04301   0.50000   0.00000  Uiso   1.00
C58    C     0.61784   0.18987   0.50000   0.00000  Uiso   1.00
N59    N     0.55212   0.14083   0.50000   0.00000  Uiso   1.00
O60    O     0.52709   0.24354   0.50000   0.00000  Uiso   1.00
H61    H     0.95310   0.37353   0.50000   0.00000  Uiso   1.00
H62    H     0.82773   0.48370   0.50000   0.00000  Uiso   1.00
H63    H     0.92208   0.54893   0.50000   0.00000  Uiso   1.00
H64    H     0.84013   0.35757   0.50000   0.00000  Uiso   1.00
C65    C     0.71549   0.30695   0.50000   0.00000  Uiso   1.00
C66    C     0.74050   0.38113   0.50000   0.00000  Uiso   1.00
C67    C     0.92777   0.45481   0.50000   0.00000  Uiso   1.00
C68    C     0.97346   0.42936   0.50000   0.00000  Uiso   1.00
C69    C     0.95699   0.52764   0.50000   0.00000  Uiso   1.00
C70    C     0.81013   0.42797   0.50000   0.00000  Uiso   1.00
N71    N     0.85917   0.41129   0.50000   0.00000  Uiso   1.00
O72    O     0.75646   0.28355   0.50000   0.00000  Uiso   1.00
loop_
_geom_bond_atom_site_label_1
_geom_bond_atom_site_label_2
_geom_bond_distance
_geom_bond_site_symmetry_2
_ccdc_geom_bond_type
H1     C8      1.104   .     S
H2     C10     1.113   .     S
H3     C9      1.109   .     S
H4     N11     1.064   .     S
C5     C6      1.474   .     S
C5     O12     1.273   .     D
C5     C30     1.480   .     S
C6     C10     1.387   .     D
C6     C17     1.480   .     S
C7     C8      1.408   .     S
C7     C9      1.432   .     D
C7     N11     1.356   .     S
C8     C45     1.371   .     D
C9     C44     1.371   .     S
C10    N11     1.335   .     S
H13    C20     1.104   .     S
H14    C22     1.113   .     S
H15    C21     1.109   .     S
H16    N23     1.064   .     S
C17    C18     1.474   .     S
C17    O24     1.273   .     D
C18    C22     1.387   .     D
C18    C29     1.480   .     S
C19    C20     1.408   .     S
C19    C21     1.432   .     D
C19    N23     1.356   .     S
C20    C57     1.371   1_565 D
C21    C56     1.371   1_565 S
C22    N23     1.335   .     S
H25    C32     1.104   .     S
H26    C34     1.113   .     S
H27    C33     1.109   .     S
H28    N35     1.064   .     S
C29    C30     1.474   .     S
C29    O36     1.273   .     D
C30    C34     1.387   .     D
C31    C32     1.408   .     S
C31    C33     1.432   .     D
C31    N35     1.356   .     S
C32    C69     1.371   1_455 D
C33    C68     1.371   1_455 S
C34    N35     1.335   .     S
H37    C44     1.104   .     S
H38    C46     1.113   .     S
H39    C45     1.109   .     S
H40    N47     1.064   .     S
C41    C42     1.474   .     S
C41    O48     1.273   .     D
C41    C66     1.480   .     S
C42    C46     1.387   .     D
C42    C53     1.480   .     S
C43    C44     1.408   .     D
C43    C45     1.432   .     S
C43    N47     1.356   .     S
C46    N47     1.335   .     S
H49    C56     1.104   .     S
H50    C58     1.113   .     S
H51    C57     1.109   .     S
H52    N59     1.064   .     S
C53    C54     1.474   .     S
C53    O60     1.273   .     D
C54    C58     1.387   .     D
C54    C65     1.480   .     S
C55    C56     1.408   .     D
C55    C57     1.432   .     S
C55    N59     1.356   .     S
C56    C21     1.371   1_545 S
C57    C20     1.371   1_545 D
C58    N59     1.335   .     S
H61    C68     1.104   .     S
H62    C70     1.113   .     S
H63    C69     1.109   .     S
H64    N71     1.064   .     S
C65    C66     1.474   .     S
C65    O72     1.273   .     D
C66    C70     1.387   .     D
C67    C68     1.408   .     D
C67    C69     1.432   .     S
C67    N71     1.356   .     S
C68    C33     1.371   1_655 S
C69    C32     1.371   1_655 D
C70    N71     1.335   .     S
