data_326
_audit_creation_date              2023-09-08
_audit_creation_method            'Materials Studio'
_symmetry_space_group_name_H-M    'P1'
_symmetry_Int_Tables_number       1
_symmetry_cell_setting            triclinic
loop_
_symmetry_equiv_pos_as_xyz
  x,y,z
_cell_length_a                    25.4690
_cell_length_b                    25.4690
_cell_length_c                    3.5260
_cell_angle_alpha                 90.0000
_cell_angle_beta                  90.0000
_cell_angle_gamma                 120.0000
loop_
_atom_site_label
_atom_site_type_symbol
_atom_site_fract_x
_atom_site_fract_y
_atom_site_fract_z
_atom_site_U_iso_or_equiv
_atom_site_adp_type
_atom_site_occupancy
C1     C     0.49837   0.38066   0.50000   0.00000  Uiso   1.00
C2     C     0.53479   0.35431   0.50000   0.00000  Uiso   1.00
C3     C     0.59799   0.39059   0.50000   0.00000  Uiso   1.00
C4     C     0.62473   0.45408   0.50000   0.00000  Uiso   1.00
C5     C     0.58808   0.48084   0.50000   0.00000  Uiso   1.00
C6     C     0.52512   0.44415   0.50000   0.00000  Uiso   1.00
N7     N     0.48847   0.47089   0.50000   0.00000  Uiso   1.00
C8     C     0.40489   0.61372   0.50000   0.00000  Uiso   1.00
C9     C     0.46828   0.65045   0.50000   0.00000  Uiso   1.00
C10    C     0.37834   0.55068   0.50000   0.00000  Uiso   1.00
C11    C     0.50492   0.62369   0.50000   0.00000  Uiso   1.00
C12    C     0.41499   0.52394   0.50000   0.00000  Uiso   1.00
C13    C     0.47837   0.56066   0.50000   0.00000  Uiso   1.00
C14    C     0.51279   0.53161   0.50000   0.00000  Uiso   1.00
H15    H     0.44668   0.35066   0.50000   0.00000  Uiso   1.00
H16    H     0.51310   0.30262   0.50000   0.00000  Uiso   1.00
H17    H     0.67642   0.48401   0.50000   0.00000  Uiso   1.00
H18    H     0.60990   0.53253   0.50000   0.00000  Uiso   1.00
H19    H     0.49002   0.70214   0.50000   0.00000  Uiso   1.00
H20    H     0.32665   0.52075   0.50000   0.00000  Uiso   1.00
H21    H     0.55662   0.65358   0.50000   0.00000  Uiso   1.00
H22    H     0.39318   0.47224   0.50000   0.00000  Uiso   1.00
H23    H     0.56464   0.55972   0.50000   0.00000  Uiso   1.00
H24    H     0.71979   0.44721   0.50000   0.00000  Uiso   1.00
B25    B     0.36975   0.63985   0.50000   0.00000  Uiso   1.00
O26    O     0.30865   0.60497   0.50000   0.00000  Uiso   1.00
C27    C     0.63451   0.36338   0.50000   0.00000  Uiso   1.00
C28    C     0.69781   0.39767   0.50000   0.00000  Uiso   1.00
C29    C     0.61934   0.11771   0.50000   0.00000  Uiso   1.00
C30    C     0.64569   0.18048   0.50000   0.00000  Uiso   1.00
C31    C     0.60941   0.20740   0.50000   0.00000  Uiso   1.00
C32    C     0.54592   0.17065   0.50000   0.00000  Uiso   1.00
C33    C     0.51916   0.10724   0.50000   0.00000  Uiso   1.00
C34    C     0.55585   0.08097   0.50000   0.00000  Uiso   1.00
N35    N     0.52911   0.01758   0.50000   0.00000  Uiso   1.00
C36    C     0.38628   0.79117   0.50000   0.00000  Uiso   1.00
C37    C     0.34955   0.81783   0.50000   0.00000  Uiso   1.00
C38    C     0.44932   0.82766   0.50000   0.00000  Uiso   1.00
C39    C     0.37631   0.88123   0.50000   0.00000  Uiso   1.00
C40    C     0.47606   0.89105   0.50000   0.00000  Uiso   1.00
C41    C     0.43934   0.91771   0.50000   0.00000  Uiso   1.00
C42    C     0.46839   0.98118   0.50000   0.00000  Uiso   1.00
H43    H     0.64934   0.09602   0.50000   0.00000  Uiso   1.00
H44    H     0.69738   0.21048   0.50000   0.00000  Uiso   1.00
H45    H     0.51599   0.19241   0.50000   0.00000  Uiso   1.00
H46    H     0.46747   0.07737   0.50000   0.00000  Uiso   1.00
H47    H     0.29786   0.78788   0.50000   0.00000  Uiso   1.00
H48    H     0.47925   0.80590   0.50000   0.00000  Uiso   1.00
H49    H     0.34642   0.90304   0.50000   0.00000  Uiso   1.00
H50    H     0.52776   0.92094   0.50000   0.00000  Uiso   1.00
H51    H     0.44028   0.00492   0.50000   0.00000  Uiso   1.00
H52    H     0.55279   0.27258   0.50000   0.00000  Uiso   1.00
B53    B     0.36015   0.72990   0.50000   0.00000  Uiso   1.00
O54    O     0.39503   0.70368   0.50000   0.00000  Uiso   1.00
C55    C     0.63662   0.27113   0.50000   0.00000  Uiso   1.00
C56    C     0.60233   0.30014   0.50000   0.00000  Uiso   1.00
C57    C     0.88229   0.50163   0.50000   0.00000  Uiso   1.00
C58    C     0.81952   0.46521   0.50000   0.00000  Uiso   1.00
C59    C     0.79260   0.40201   0.50000   0.00000  Uiso   1.00
C60    C     0.82935   0.37527   0.50000   0.00000  Uiso   1.00
C61    C     0.89276   0.41192   0.50000   0.00000  Uiso   1.00
C62    C     0.91903   0.47488   0.50000   0.00000  Uiso   1.00
N63    N     0.98242   0.51153   0.50000   0.00000  Uiso   1.00
C64    C     0.20883   0.59511   0.50000   0.00000  Uiso   1.00
C65    C     0.18217   0.53172   0.50000   0.00000  Uiso   1.00
C66    C     0.17234   0.62166   0.50000   0.00000  Uiso   1.00
C67    C     0.11877   0.49508   0.50000   0.00000  Uiso   1.00
C68    C     0.10895   0.58501   0.50000   0.00000  Uiso   1.00
C69    C     0.08229   0.52163   0.50000   0.00000  Uiso   1.00
C70    C     0.01882   0.48721   0.50000   0.00000  Uiso   1.00
H71    H     0.90398   0.55332   0.50000   0.00000  Uiso   1.00
H72    H     0.78952   0.48690   0.50000   0.00000  Uiso   1.00
H73    H     0.80759   0.32358   0.50000   0.00000  Uiso   1.00
H74    H     0.92263   0.39010   0.50000   0.00000  Uiso   1.00
H75    H     0.21212   0.50998   0.50000   0.00000  Uiso   1.00
H76    H     0.19410   0.67335   0.50000   0.00000  Uiso   1.00
H77    H     0.09696   0.44338   0.50000   0.00000  Uiso   1.00
H78    H     0.07906   0.60682   0.50000   0.00000  Uiso   1.00
H79    H     0.99508   0.43536   0.50000   0.00000  Uiso   1.00
H80    H     0.72742   0.28021   0.50000   0.00000  Uiso   1.00
B81    B     0.27010   0.63025   0.50000   0.00000  Uiso   1.00
O82    O     0.29632   0.69135   0.50000   0.00000  Uiso   1.00
C83    C     0.72887   0.36549   0.50000   0.00000  Uiso   1.00
C84    C     0.69986   0.30219   0.50000   0.00000  Uiso   1.00
loop_
_geom_bond_atom_site_label_1
_geom_bond_atom_site_label_2
_geom_bond_distance
_geom_bond_site_symmetry_2
_ccdc_geom_bond_type
C1     C2      1.390   .     S
C1     C6      1.406   .     D
C1     H15     1.145   .     S
C2     C3      1.399   .     D
C2     H16     1.145   .     S
C3     C4      1.406   .     S
C3     C27     1.411   .     S
C4     C5      1.404   .     D
C4     H17     1.145   .     S
C5     C6      1.395   .     S
C5     H18     1.145   .     S
C6     N7      1.404   .     S
N7     C14     1.348   .     D
C8     C9      1.404   .     S
C8     C10     1.396   .     D
C8     B25     1.356   .     S
C9     C11     1.404   .     D
C9     H19     1.145   .     S
C10    C12     1.404   .     S
C10    H20     1.145   .     S
C11    C13     1.396   .     S
C11    H21     1.145   .     S
C12    C13     1.404   .     D
C12    H22     1.145   .     S
C13    C14     1.402   .     S
C14    H23     1.145   .     S
H24    C28     1.095   .     S
B25    O26     1.352   .     S
B25    O54     1.418   .     S
O26    B81     1.418   .     S
C27    C28     1.398   .     S
C27    C56     1.395   .     D
C28    C83     1.395   .     D
C29    C30     1.390   .     S
C29    C34     1.406   .     D
C29    H43     1.145   .     S
C30    C31     1.399   .     D
C30    H44     1.145   .     S
C31    C32     1.406   .     S
C31    C55     1.411   .     S
C32    C33     1.404   .     D
C32    H45     1.145   .     S
C33    C34     1.395   .     S
C33    H46     1.145   .     S
C34    N35     1.404   .     S
N35    C42     1.348   1_545 D
C36    C37     1.404   .     S
C36    C38     1.396   .     D
C36    B53     1.356   .     S
C37    C39     1.404   .     D
C37    H47     1.145   .     S
C38    C40     1.404   .     S
C38    H48     1.145   .     S
C39    C41     1.396   .     S
C39    H49     1.145   .     S
C40    C41     1.404   .     D
C40    H50     1.145   .     S
C41    C42     1.402   .     S
C42    N35     1.348   1_565 D
C42    H51     1.145   1_565 S
H51    C42     1.145   1_545 S
H52    C56     1.095   .     S
B53    O54     1.352   .     S
B53    O82     1.418   .     S
C55    C56     1.398   .     S
C55    C84     1.395   .     D
C57    C58     1.390   .     D
C57    C62     1.406   .     S
C57    H71     1.145   .     S
C58    C59     1.399   .     S
C58    H72     1.145   .     S
C59    C60     1.406   .     D
C59    C83     1.411   .     S
C60    C61     1.404   .     S
C60    H73     1.145   .     S
C61    C62     1.395   .     D
C61    H74     1.145   .     S
C62    N63     1.404   .     S
N63    C70     1.348   1_655 D
C64    C65     1.404   .     S
C64    C66     1.396   .     D
C64    B81     1.356   .     S
C65    C67     1.404   .     D
C65    H75     1.145   .     S
C66    C68     1.404   .     S
C66    H76     1.145   .     S
C67    C69     1.396   .     S
C67    H77     1.145   .     S
C68    C69     1.404   .     D
C68    H78     1.145   .     S
C69    C70     1.402   .     S
C70    N63     1.348   1_455 D
C70    H79     1.145   1_455 S
H79    C70     1.145   1_655 S
H80    C84     1.095   .     S
B81    O82     1.352   .     S
C83    C84     1.398   .     S
