data_327
_audit_creation_date              2023-09-08
_audit_creation_method            'Materials Studio'
_symmetry_space_group_name_H-M    'P1'
_symmetry_Int_Tables_number       1
_symmetry_cell_setting            triclinic
loop_
_symmetry_equiv_pos_as_xyz
  x,y,z
_cell_length_a                    33.3360
_cell_length_b                    33.3360
_cell_length_c                    3.4370
_cell_angle_alpha                 90.0000
_cell_angle_beta                  90.0000
_cell_angle_gamma                 120.0000
loop_
_atom_site_label
_atom_site_type_symbol
_atom_site_fract_x
_atom_site_fract_y
_atom_site_fract_z
_atom_site_U_iso_or_equiv
_atom_site_adp_type
_atom_site_occupancy
C1     C     0.28507   0.64205   0.50000   0.00000  Uiso   1.00
C2     C     0.35795   0.64302   0.50000   0.00000  Uiso   1.00
C3     C     0.35698   0.71493   0.50000   0.00000  Uiso   1.00
C4     C     0.30891   0.69013   0.50000   0.00000  Uiso   1.00
C5     C     0.30987   0.61878   0.50000   0.00000  Uiso   1.00
C6     C     0.38122   0.69109   0.50000   0.00000  Uiso   1.00
C7     C     0.38266   0.76679   0.50000   0.00000  Uiso   1.00
C8     C     0.23321   0.61587   0.50000   0.00000  Uiso   1.00
C9     C     0.38413   0.61734   0.50000   0.00000  Uiso   1.00
C10    C     0.35930   0.79179   0.50000   0.00000  Uiso   1.00
C11    C     0.20821   0.56751   0.50000   0.00000  Uiso   1.00
C12    C     0.43249   0.64070   0.50000   0.00000  Uiso   1.00
C13    C     0.43111   0.79269   0.50000   0.00000  Uiso   1.00
C14    C     0.20731   0.63842   0.50000   0.00000  Uiso   1.00
C15    C     0.36158   0.56889   0.50000   0.00000  Uiso   1.00
C16    C     0.38282   0.83951   0.50000   0.00000  Uiso   1.00
C17    C     0.16049   0.54331   0.50000   0.00000  Uiso   1.00
C18    C     0.45669   0.61718   0.50000   0.00000  Uiso   1.00
C19    C     0.45484   0.84035   0.50000   0.00000  Uiso   1.00
C20    C     0.15965   0.61449   0.50000   0.00000  Uiso   1.00
C21    C     0.38551   0.54516   0.50000   0.00000  Uiso   1.00
C22    C     0.43108   0.86501   0.50000   0.00000  Uiso   1.00
C23    C     0.13499   0.56607   0.50000   0.00000  Uiso   1.00
C24    C     0.43393   0.56892   0.50000   0.00000  Uiso   1.00
N25    N     0.45116   0.91276   0.50000   0.00000  Uiso   1.00
N26    N     0.08724   0.53840   0.50000   0.00000  Uiso   1.00
N27    N     0.46160   0.54884   0.50000   0.00000  Uiso   1.00
C28    C     0.49510   0.93956   0.50000   0.00000  Uiso   1.00
C29    C     0.06044   0.55554   0.50000   0.00000  Uiso   1.00
C30    C     0.44446   0.50490   0.50000   0.00000  Uiso   1.00
C31    C     0.51623   0.98933   0.50000   0.00000  Uiso   1.00
C32    C     0.01067   0.52690   0.50000   0.00000  Uiso   1.00
C33    C     0.47310   0.48377   0.50000   0.00000  Uiso   1.00
C34    C     0.48933   0.01065   0.50000   0.00000  Uiso   1.00
C35    C     0.98935   0.47868   0.50000   0.00000  Uiso   1.00
C36    C     0.52132   0.51067   0.50000   0.00000  Uiso   1.00
C37    C     0.56433   0.01668   0.50000   0.00000  Uiso   1.00
C38    C     0.98332   0.54765   0.50000   0.00000  Uiso   1.00
C39    C     0.45235   0.43567   0.50000   0.00000  Uiso   1.00
C40    C     0.51033   0.05831   0.50000   0.00000  Uiso   1.00
C41    C     0.94169   0.45202   0.50000   0.00000  Uiso   1.00
C42    C     0.54798   0.48967   0.50000   0.00000  Uiso   1.00
C43    C     0.58537   0.06447   0.50000   0.00000  Uiso   1.00
C44    C     0.93553   0.52090   0.50000   0.00000  Uiso   1.00
C45    C     0.47910   0.41463   0.50000   0.00000  Uiso   1.00
C46    C     0.55837   0.08537   0.50000   0.00000  Uiso   1.00
C47    C     0.91463   0.47300   0.50000   0.00000  Uiso   1.00
C48    C     0.52700   0.44163   0.50000   0.00000  Uiso   1.00
B49    B     0.58131   0.13786   0.50000   0.00000  Uiso   1.00
B50    B     0.86214   0.44345   0.50000   0.00000  Uiso   1.00
B51    B     0.55655   0.41869   0.50000   0.00000  Uiso   1.00
O52    O     0.55758   0.16226   0.50000   0.00000  Uiso   1.00
O53    O     0.83774   0.39532   0.50000   0.00000  Uiso   1.00
O54    O     0.60468   0.44242   0.50000   0.00000  Uiso   1.00
O55    O     0.62890   0.16791   0.50000   0.00000  Uiso   1.00
O56    O     0.83209   0.46099   0.50000   0.00000  Uiso   1.00
O57    O     0.53901   0.37110   0.50000   0.00000  Uiso   1.00
C58    C     0.59088   0.20793   0.50000   0.00000  Uiso   1.00
C59    C     0.79207   0.38295   0.50000   0.00000  Uiso   1.00
C60    C     0.61705   0.40912   0.50000   0.00000  Uiso   1.00
C61    C     0.63466   0.21140   0.50000   0.00000  Uiso   1.00
C62    C     0.78860   0.42326   0.50000   0.00000  Uiso   1.00
C63    C     0.57674   0.36534   0.50000   0.00000  Uiso   1.00
C64    C     0.58573   0.24588   0.50000   0.00000  Uiso   1.00
C65    C     0.75412   0.33985   0.50000   0.00000  Uiso   1.00
C66    C     0.66015   0.41427   0.50000   0.00000  Uiso   1.00
C67    C     0.67463   0.25293   0.50000   0.00000  Uiso   1.00
C68    C     0.74707   0.42170   0.50000   0.00000  Uiso   1.00
C69    C     0.57830   0.32537   0.50000   0.00000  Uiso   1.00
C70    C     0.62319   0.33003   0.50000   0.00000  Uiso   1.00
C71    C     0.66997   0.29316   0.50000   0.00000  Uiso   1.00
C72    C     0.70684   0.37681   0.50000   0.00000  Uiso   1.00
C73    C     0.66306   0.37334   0.50000   0.00000  Uiso   1.00
C74    C     0.62666   0.28972   0.50000   0.00000  Uiso   1.00
C75    C     0.71028   0.33694   0.50000   0.00000  Uiso   1.00
H76    H     0.28843   0.70870   0.50000   0.00000  Uiso   1.00
H77    H     0.29130   0.57973   0.50000   0.00000  Uiso   1.00
H78    H     0.42027   0.71157   0.50000   0.00000  Uiso   1.00
H79    H     0.31981   0.77177   0.50000   0.00000  Uiso   1.00
H80    H     0.22823   0.54804   0.50000   0.00000  Uiso   1.00
H81    H     0.45196   0.68019   0.50000   0.00000  Uiso   1.00
H82    H     0.45220   0.77432   0.50000   0.00000  Uiso   1.00
H83    H     0.22568   0.67788   0.50000   0.00000  Uiso   1.00
H84    H     0.32212   0.54780   0.50000   0.00000  Uiso   1.00
H85    H     0.36197   0.85812   0.50000   0.00000  Uiso   1.00
H86    H     0.14188   0.50385   0.50000   0.00000  Uiso   1.00
H87    H     0.49615   0.63803   0.50000   0.00000  Uiso   1.00
H88    H     0.49433   0.86018   0.50000   0.00000  Uiso   1.00
H89    H     0.13982   0.63415   0.50000   0.00000  Uiso   1.00
H90    H     0.36585   0.50567   0.50000   0.00000  Uiso   1.00
H91    H     0.51774   0.92286   0.50000   0.00000  Uiso   1.00
H92    H     0.07714   0.59488   0.50000   0.00000  Uiso   1.00
H93    H     0.40512   0.48226   0.50000   0.00000  Uiso   1.00
H94    H     0.44993   0.98862   0.50000   0.00000  Uiso   1.00
H95    H     0.01138   0.46131   0.50000   0.00000  Uiso   1.00
H96    H     0.53869   0.55007   0.50000   0.00000  Uiso   1.00
H97    H     0.58671   0.99970   0.50000   0.00000  Uiso   1.00
H98    H     0.00030   0.58701   0.50000   0.00000  Uiso   1.00
H99    H     0.41299   0.41329   0.50000   0.00000  Uiso   1.00
H100   H     0.48814   0.07550   0.50000   0.00000  Uiso   1.00
H101   H     0.92450   0.41264   0.50000   0.00000  Uiso   1.00
H102   H     0.58736   0.51186   0.50000   0.00000  Uiso   1.00
H103   H     0.62477   0.08653   0.50000   0.00000  Uiso   1.00
H104   H     0.91347   0.53824   0.50000   0.00000  Uiso   1.00
H105   H     0.46176   0.37523   0.50000   0.00000  Uiso   1.00
H106   H     0.55029   0.24325   0.50000   0.00000  Uiso   1.00
H107   H     0.75675   0.30704   0.50000   0.00000  Uiso   1.00
H108   H     0.69296   0.44971   0.50000   0.00000  Uiso   1.00
H109   H     0.70946   0.25424   0.50000   0.00000  Uiso   1.00
H110   H     0.74576   0.45522   0.50000   0.00000  Uiso   1.00
H111   H     0.54478   0.29054   0.50000   0.00000  Uiso   1.00
loop_
_geom_bond_atom_site_label_1
_geom_bond_atom_site_label_2
_geom_bond_distance
_geom_bond_site_symmetry_2
_ccdc_geom_bond_type
C1     C4      1.388   .     D
C1     C5      1.388   .     S
C1     C8      1.497   .     S
C2     C5      1.388   .     D
C2     C6      1.388   .     S
C2     C9      1.497   .     S
C3     C4      1.388   .     S
C3     C6      1.388   .     D
C3     C7      1.497   .     S
C4     H76     1.128   .     S
C5     H77     1.128   .     S
C6     H78     1.128   .     S
C7     C10     1.396   .     D
C7     C13     1.400   .     S
C8     C11     1.396   .     D
C8     C14     1.400   .     S
C9     C12     1.396   .     S
C9     C15     1.400   .     D
C10    C16     1.378   .     S
C10    H79     1.140   .     S
C11    C17     1.378   .     S
C11    H80     1.140   .     S
C12    C18     1.378   .     D
C12    H81     1.140   .     S
C13    C19     1.376   .     D
C13    H82     1.140   .     S
C14    C20     1.376   .     D
C14    H83     1.140   .     S
C15    C21     1.376   .     S
C15    H84     1.140   .     S
C16    C22     1.394   .     D
C16    H85     1.140   .     S
C17    C23     1.394   .     D
C17    H86     1.140   .     S
C18    C24     1.394   .     S
C18    H87     1.140   .     S
C19    C22     1.398   .     S
C19    H88     1.140   .     S
C20    C23     1.398   .     S
C20    H89     1.140   .     S
C21    C24     1.398   .     D
C21    H90     1.140   .     S
C22    N25     1.384   .     S
C23    N26     1.384   .     S
C24    N27     1.384   .     S
N25    C28     1.279   .     D
N26    C29     1.279   .     D
N27    C30     1.279   .     D
C28    C31     1.442   .     S
C28    H91     1.140   .     S
C29    C32     1.442   .     S
C29    H92     1.140   .     S
C30    C33     1.442   .     S
C30    H93     1.140   .     S
C31    C34     1.395   1_565 D
C31    C37     1.393   1_565 S
C32    C35     1.395   1_455 D
C32    C38     1.393   1_455 S
C33    C36     1.395   .     S
C33    C39     1.393   .     D
C34    C31     1.395   1_545 D
C34    C40     1.379   .     S
C34    H94     1.140   1_545 S
C35    C32     1.395   1_655 D
C35    C41     1.379   .     S
C35    H95     1.140   1_655 S
C36    C42     1.379   .     D
C36    H96     1.140   .     S
C37    C31     1.393   1_545 S
C37    C43     1.383   .     D
C37    H97     1.140   1_545 S
C38    C32     1.393   1_655 S
C38    C44     1.383   .     D
C38    H98     1.140   1_655 S
C39    C45     1.383   .     S
C39    H99     1.140   .     S
C40    C46     1.391   .     D
C40    H100    1.140   .     S
C41    C47     1.391   .     D
C41    H101    1.140   .     S
C42    C48     1.391   .     S
C42    H102    1.140   .     S
C43    C46     1.387   .     S
C43    H103    1.140   .     S
C44    C47     1.387   .     S
C44    H104    1.140   .     S
C45    C48     1.387   .     D
C45    H105    1.140   .     S
C46    B49     1.519   .     S
C47    B50     1.519   .     S
C48    B51     1.519   .     S
B49    O52     1.390   .     S
B49    O55     1.390   .     S
B50    O53     1.390   .     S
B50    O56     1.390   .     S
B51    O54     1.390   .     S
B51    O57     1.390   .     S
O52    C58     1.364   .     S
O53    C59     1.364   .     S
O54    C60     1.364   .     S
O55    C61     1.364   .     S
O56    C62     1.364   .     S
O57    C63     1.364   .     S
C58    C61     1.405   .     S
C58    C64     1.359   .     D
C59    C62     1.405   .     S
C59    C65     1.359   .     D
C60    C63     1.405   .     S
C60    C66     1.359   .     D
C61    C67     1.359   .     D
C62    C68     1.359   .     D
C63    C69     1.359   .     D
C64    C74     1.415   .     S
C64    H106    1.140   .     S
C65    C75     1.415   .     S
C65    H107    1.140   .     S
C66    C73     1.415   .     S
C66    H108    1.140   .     S
C67    C71     1.425   .     S
C67    H109    1.140   .     S
C68    C72     1.425   .     S
C68    H110    1.140   .     S
C69    C70     1.425   .     S
C69    H111    1.140   .     S
C70    C73     1.390   .     D
C70    C74     1.405   .     S
C71    C74     1.390   .     D
C71    C75     1.405   .     S
C72    C73     1.405   .     S
C72    C75     1.390   .     D
H94    C34     1.140   1_565 S
H95    C35     1.140   1_455 S
H97    C37     1.140   1_565 S
H98    C38     1.140   1_455 S
