data_328
_audit_creation_date              2023-09-08
_audit_creation_method            'Materials Studio'
_symmetry_space_group_name_H-M    'P1'
_symmetry_Int_Tables_number       1
_symmetry_cell_setting            triclinic
loop_
_symmetry_equiv_pos_as_xyz
  x,y,z
_cell_length_a                    23.2201
_cell_length_b                    23.2201
_cell_length_c                    5.5656
_cell_angle_alpha                 90.0000
_cell_angle_beta                  90.0000
_cell_angle_gamma                 120.0000
loop_
_atom_site_label
_atom_site_type_symbol
_atom_site_fract_x
_atom_site_fract_y
_atom_site_fract_z
_atom_site_U_iso_or_equiv
_atom_site_adp_type
_atom_site_occupancy
O1     O     0.67107   0.63787   0.72028   0.00000  Uiso   1.00
O2     O     0.36213   0.03320   0.72028   0.00000  Uiso   1.00
O3     O     0.96680   0.32893   0.72028   0.00000  Uiso   1.00
O4     O     0.32893   0.36213   0.72028   0.00000  Uiso   1.00
O5     O     0.63787   0.96680   0.72028   0.00000  Uiso   1.00
O6     O     0.03320   0.67107   0.72028   0.00000  Uiso   1.00
O7     O     0.32893   0.36213   0.27972   0.00000  Uiso   1.00
O8     O     0.63787   0.96680   0.27972   0.00000  Uiso   1.00
O9     O     0.03320   0.67107   0.27972   0.00000  Uiso   1.00
O10    O     0.67107   0.63787   0.27972   0.00000  Uiso   1.00
O11    O     0.36213   0.03320   0.27972   0.00000  Uiso   1.00
O12    O     0.96680   0.32893   0.27972   0.00000  Uiso   1.00
S13    S     0.65581   0.60320   0.50000   0.00000  Uiso   1.00
O14    O     0.28720   0.53751   0.50000   0.00000  Uiso   1.00
O15    O     0.69805   0.56865   0.50000   0.00000  Uiso   1.00
H16    H     0.73902   0.60932   0.50000   0.00000  Uiso   1.00
N17    N     0.41383   0.55465   0.50000   0.00000  Uiso   1.00
C18    C     0.30892   0.59719   0.50000   0.00000  Uiso   1.00
H19    H     0.36531   0.51827   0.50000   0.00000  Uiso   1.00
C20    C     0.38180   0.64045   0.50000   0.00000  Uiso   1.00
C21    C     0.42760   0.61957   0.50000   0.00000  Uiso   1.00
H22    H     0.48074   0.65595   0.50000   0.00000  Uiso   1.00
H23    H     0.54451   0.62125   0.50000   0.00000  Uiso   1.00
C24    C     0.45538   0.52560   0.50000   0.00000  Uiso   1.00
C25    C     0.52402   0.56695   0.50000   0.00000  Uiso   1.00
C26    C     0.56971   0.54395   0.50000   0.00000  Uiso   1.00
S27    S     0.39680   0.05261   0.50000   0.00000  Uiso   1.00
O28    O     0.46249   0.74969   0.50000   0.00000  Uiso   1.00
O29    O     0.43135   0.12940   0.50000   0.00000  Uiso   1.00
H30    H     0.39068   0.12970   0.50000   0.00000  Uiso   1.00
N31    N     0.44535   0.85918   0.50000   0.00000  Uiso   1.00
C32    C     0.40281   0.71173   0.50000   0.00000  Uiso   1.00
H33    H     0.48173   0.84704   0.50000   0.00000  Uiso   1.00
C34    C     0.35955   0.74135   0.50000   0.00000  Uiso   1.00
C35    C     0.38043   0.80803   0.50000   0.00000  Uiso   1.00
H36    H     0.34405   0.82479   0.50000   0.00000  Uiso   1.00
H37    H     0.37875   0.92326   0.50000   0.00000  Uiso   1.00
C38    C     0.47440   0.92978   0.50000   0.00000  Uiso   1.00
C39    C     0.43305   0.95707   0.50000   0.00000  Uiso   1.00
C40    C     0.45605   0.02576   0.50000   0.00000  Uiso   1.00
S41    S     0.94739   0.34419   0.50000   0.00000  Uiso   1.00
O42    O     0.25031   0.71280   0.50000   0.00000  Uiso   1.00
O43    O     0.87060   0.30195   0.50000   0.00000  Uiso   1.00
H44    H     0.87030   0.26098   0.50000   0.00000  Uiso   1.00
N45    N     0.14082   0.58617   0.50000   0.00000  Uiso   1.00
C46    C     0.28827   0.69108   0.50000   0.00000  Uiso   1.00
H47    H     0.15296   0.63469   0.50000   0.00000  Uiso   1.00
C48    C     0.25865   0.61820   0.50000   0.00000  Uiso   1.00
C49    C     0.19197   0.57240   0.50000   0.00000  Uiso   1.00
H50    H     0.17521   0.51926   0.50000   0.00000  Uiso   1.00
H51    H     0.07674   0.45549   0.50000   0.00000  Uiso   1.00
C52    C     0.07022   0.54462   0.50000   0.00000  Uiso   1.00
C53    C     0.04293   0.47598   0.50000   0.00000  Uiso   1.00
C54    C     0.97424   0.43029   0.50000   0.00000  Uiso   1.00
S55    S     0.34419   0.39680   0.50000   0.00000  Uiso   1.00
O56    O     0.71280   0.46249   0.50000   0.00000  Uiso   1.00
O57    O     0.30195   0.43135   0.50000   0.00000  Uiso   1.00
H58    H     0.26098   0.39068   0.50000   0.00000  Uiso   1.00
N59    N     0.58617   0.44535   0.50000   0.00000  Uiso   1.00
C60    C     0.69108   0.40281   0.50000   0.00000  Uiso   1.00
H61    H     0.63469   0.48173   0.50000   0.00000  Uiso   1.00
C62    C     0.61820   0.35955   0.50000   0.00000  Uiso   1.00
C63    C     0.57240   0.38043   0.50000   0.00000  Uiso   1.00
H64    H     0.51926   0.34405   0.50000   0.00000  Uiso   1.00
H65    H     0.45549   0.37875   0.50000   0.00000  Uiso   1.00
C66    C     0.54462   0.47440   0.50000   0.00000  Uiso   1.00
C67    C     0.47598   0.43305   0.50000   0.00000  Uiso   1.00
C68    C     0.43029   0.45605   0.50000   0.00000  Uiso   1.00
S69    S     0.60320   0.94739   0.50000   0.00000  Uiso   1.00
O70    O     0.53751   0.25031   0.50000   0.00000  Uiso   1.00
O71    O     0.56865   0.87060   0.50000   0.00000  Uiso   1.00
H72    H     0.60932   0.87030   0.50000   0.00000  Uiso   1.00
N73    N     0.55465   0.14082   0.50000   0.00000  Uiso   1.00
C74    C     0.59719   0.28827   0.50000   0.00000  Uiso   1.00
H75    H     0.51827   0.15296   0.50000   0.00000  Uiso   1.00
C76    C     0.64045   0.25865   0.50000   0.00000  Uiso   1.00
C77    C     0.61957   0.19197   0.50000   0.00000  Uiso   1.00
H78    H     0.65595   0.17521   0.50000   0.00000  Uiso   1.00
H79    H     0.62125   0.07674   0.50000   0.00000  Uiso   1.00
C80    C     0.52560   0.07022   0.50000   0.00000  Uiso   1.00
C81    C     0.56695   0.04293   0.50000   0.00000  Uiso   1.00
C82    C     0.54395   0.97424   0.50000   0.00000  Uiso   1.00
S83    S     0.05261   0.65581   0.50000   0.00000  Uiso   1.00
O84    O     0.74969   0.28720   0.50000   0.00000  Uiso   1.00
O85    O     0.12940   0.69805   0.50000   0.00000  Uiso   1.00
H86    H     0.12970   0.73902   0.50000   0.00000  Uiso   1.00
N87    N     0.85918   0.41383   0.50000   0.00000  Uiso   1.00
C88    C     0.71173   0.30892   0.50000   0.00000  Uiso   1.00
H89    H     0.84704   0.36531   0.50000   0.00000  Uiso   1.00
C90    C     0.74135   0.38180   0.50000   0.00000  Uiso   1.00
C91    C     0.80803   0.42760   0.50000   0.00000  Uiso   1.00
H92    H     0.82479   0.48074   0.50000   0.00000  Uiso   1.00
H93    H     0.92326   0.54451   0.50000   0.00000  Uiso   1.00
C94    C     0.92978   0.45538   0.50000   0.00000  Uiso   1.00
C95    C     0.95707   0.52402   0.50000   0.00000  Uiso   1.00
C96    C     0.02576   0.56971   0.50000   0.00000  Uiso   1.00
loop_
_geom_bond_atom_site_label_1
_geom_bond_atom_site_label_2
_geom_bond_distance
_geom_bond_site_symmetry_2
_ccdc_geom_bond_type
O1     S13     1.411   .     D
O2     S27     1.411   .     D
O3     S41     1.411   .     D
O4     S55     1.411   .     D
O5     S69     1.411   .     D
O6     S83     1.411   .     D
O7     S55     1.411   .     D
O8     S69     1.411   .     D
O9     S83     1.411   .     D
O10    S13     1.411   .     D
O11    S27     1.411   .     D
O12    S41     1.411   .     D
S13    O15     1.547   .     S
S13    C26     1.772   .     S
O14    C18     1.215   .     D
O15    H16     0.948   .     S
N17    H19     1.015   .     S
N17    C21     1.376   .     S
N17    C24     1.427   .     S
C18    C20     1.474   .     S
C18    C48     1.473   .     S
C20    C21     1.372   .     D
C20    C32     1.473   .     S
C21    H22     1.093   .     S
H23    C25     1.103   .     S
C24    C25     1.390   .     D
C24    C68     1.417   .     S
C25    C26     1.406   .     S
C26    C66     1.417   .     D
S27    O29     1.547   .     S
S27    C40     1.772   .     S
O28    C32     1.215   .     D
O29    H30     0.948   .     S
N31    H33     1.015   .     S
N31    C35     1.376   .     S
N31    C38     1.427   .     S
C32    C34     1.474   .     S
C34    C35     1.372   .     D
C34    C46     1.473   .     S
C35    H36     1.093   .     S
H37    C39     1.103   .     S
C38    C39     1.390   .     D
C38    C82     1.417   .     S
C39    C40     1.406   1_565 S
C40    C39     1.406   1_545 S
C40    C80     1.417   .     D
S41    O43     1.547   .     S
S41    C54     1.772   .     S
O42    C46     1.215   .     D
O43    H44     0.948   .     S
N45    H47     1.015   .     S
N45    C49     1.376   .     S
N45    C52     1.427   .     S
C46    C48     1.474   .     S
C48    C49     1.372   .     D
C49    H50     1.093   .     S
H51    C53     1.103   .     S
C52    C53     1.390   .     D
C52    C96     1.417   .     S
C53    C54     1.406   1_455 S
C54    C53     1.406   1_655 S
C54    C94     1.417   .     D
S55    O57     1.547   .     S
S55    C68     1.772   .     S
O56    C60     1.215   .     D
O57    H58     0.948   .     S
N59    H61     1.015   .     S
N59    C63     1.376   .     S
N59    C66     1.427   .     S
C60    C62     1.474   .     S
C60    C90     1.473   .     S
C62    C63     1.372   .     D
C62    C74     1.473   .     S
C63    H64     1.093   .     S
H65    C67     1.103   .     S
C66    C67     1.390   .     S
C67    C68     1.406   .     D
S69    O71     1.547   .     S
S69    C82     1.772   .     S
O70    C74     1.215   .     D
O71    H72     0.948   .     S
N73    H75     1.015   .     S
N73    C77     1.376   .     S
N73    C80     1.427   .     S
C74    C76     1.474   .     S
C76    C77     1.372   .     D
C76    C88     1.473   .     S
C77    H78     1.093   .     S
H79    C81     1.103   .     S
C80    C81     1.390   .     S
C81    C82     1.406   1_545 D
C82    C81     1.406   1_565 D
S83    O85     1.547   .     S
S83    C96     1.772   .     S
O84    C88     1.215   .     D
O85    H86     0.948   .     S
N87    H89     1.015   .     S
N87    C91     1.376   .     S
N87    C94     1.427   .     S
C88    C90     1.474   .     S
C90    C91     1.372   .     D
C91    H92     1.093   .     S
H93    C95     1.103   .     S
C94    C95     1.390   .     S
C95    C96     1.406   1_655 D
C96    C95     1.406   1_455 D
