data_329
_audit_creation_date              2023-09-08
_audit_creation_method            'Materials Studio'
_symmetry_space_group_name_H-M    'P1'
_symmetry_Int_Tables_number       1
_symmetry_cell_setting            triclinic
loop_
_symmetry_equiv_pos_as_xyz
  x,y,z
_cell_length_a                    36.9649
_cell_length_b                    36.9649
_cell_length_c                    3.5305
_cell_angle_alpha                 90.0000
_cell_angle_beta                  90.0000
_cell_angle_gamma                 120.0000
loop_
_atom_site_label
_atom_site_type_symbol
_atom_site_fract_x
_atom_site_fract_y
_atom_site_fract_z
_atom_site_U_iso_or_equiv
_atom_site_adp_type
_atom_site_occupancy
N1     N     0.69273   0.31818   0.50000   0.00000  Uiso   1.00
N2     N     0.68182   0.37455   0.50000   0.00000  Uiso   1.00
N3     N     0.62545   0.30727   0.50000   0.00000  Uiso   1.00
N4     N     0.30727   0.68182   0.50000   0.00000  Uiso   1.00
N5     N     0.31818   0.62545   0.50000   0.00000  Uiso   1.00
N6     N     0.37455   0.69273   0.50000   0.00000  Uiso   1.00
C7     C     0.65104   0.29083   0.50000   0.00000  Uiso   1.00
C8     C     0.70917   0.36021   0.50000   0.00000  Uiso   1.00
C9     C     0.63979   0.34896   0.50000   0.00000  Uiso   1.00
C10    C     0.34896   0.70917   0.50000   0.00000  Uiso   1.00
C11    C     0.29083   0.63979   0.50000   0.00000  Uiso   1.00
C12    C     0.36021   0.65104   0.50000   0.00000  Uiso   1.00
C13    C     0.58711   0.11488   0.50000   0.00000  Uiso   1.00
C14    C     0.88512   0.47223   0.50000   0.00000  Uiso   1.00
C15    C     0.52777   0.41289   0.50000   0.00000  Uiso   1.00
C16    C     0.41289   0.88512   0.50000   0.00000  Uiso   1.00
C17    C     0.11488   0.52777   0.50000   0.00000  Uiso   1.00
C18    C     0.47223   0.58711   0.50000   0.00000  Uiso   1.00
H19    H     0.60811   0.10456   0.50000   0.00000  Uiso   1.00
H20    H     0.89544   0.50355   0.50000   0.00000  Uiso   1.00
H21    H     0.49645   0.39189   0.50000   0.00000  Uiso   1.00
H22    H     0.39189   0.89544   0.50000   0.00000  Uiso   1.00
H23    H     0.10456   0.49645   0.50000   0.00000  Uiso   1.00
H24    H     0.50355   0.60811   0.50000   0.00000  Uiso   1.00
N25    N     0.54570   0.08671   0.50000   0.00000  Uiso   1.00
N26    N     0.91329   0.45899   0.50000   0.00000  Uiso   1.00
N27    N     0.54101   0.45430   0.50000   0.00000  Uiso   1.00
N28    N     0.45430   0.91329   0.50000   0.00000  Uiso   1.00
N29    N     0.08671   0.54101   0.50000   0.00000  Uiso   1.00
N30    N     0.45899   0.54570   0.50000   0.00000  Uiso   1.00
C31    C     0.60236   0.15829   0.50000   0.00000  Uiso   1.00
C32    C     0.84171   0.44407   0.50000   0.00000  Uiso   1.00
C33    C     0.55593   0.39764   0.50000   0.00000  Uiso   1.00
C34    C     0.39764   0.84171   0.50000   0.00000  Uiso   1.00
C35    C     0.15829   0.55593   0.50000   0.00000  Uiso   1.00
C36    C     0.44407   0.60236   0.50000   0.00000  Uiso   1.00
C37    C     0.63495   0.24707   0.50000   0.00000  Uiso   1.00
C38    C     0.75293   0.38788   0.50000   0.00000  Uiso   1.00
C39    C     0.61212   0.36505   0.50000   0.00000  Uiso   1.00
C40    C     0.36505   0.75293   0.50000   0.00000  Uiso   1.00
C41    C     0.24707   0.61212   0.50000   0.00000  Uiso   1.00
C42    C     0.38788   0.63495   0.50000   0.00000  Uiso   1.00
C43    C     0.66180   0.22999   0.50000   0.00000  Uiso   1.00
C44    C     0.77001   0.43181   0.50000   0.00000  Uiso   1.00
C45    C     0.56819   0.33820   0.50000   0.00000  Uiso   1.00
C46    C     0.33820   0.77001   0.50000   0.00000  Uiso   1.00
C47    C     0.22999   0.56819   0.50000   0.00000  Uiso   1.00
C48    C     0.43181   0.66180   0.50000   0.00000  Uiso   1.00
H49    H     0.69354   0.24918   0.50000   0.00000  Uiso   1.00
H50    H     0.75082   0.44436   0.50000   0.00000  Uiso   1.00
H51    H     0.55564   0.30646   0.50000   0.00000  Uiso   1.00
H52    H     0.30646   0.75082   0.50000   0.00000  Uiso   1.00
H53    H     0.24918   0.55564   0.50000   0.00000  Uiso   1.00
H54    H     0.44436   0.69354   0.50000   0.00000  Uiso   1.00
C55    C     0.64589   0.18654   0.50000   0.00000  Uiso   1.00
C56    C     0.81346   0.45935   0.50000   0.00000  Uiso   1.00
C57    C     0.54065   0.35411   0.50000   0.00000  Uiso   1.00
C58    C     0.35411   0.81346   0.50000   0.00000  Uiso   1.00
C59    C     0.18654   0.54065   0.50000   0.00000  Uiso   1.00
C60    C     0.45935   0.64589   0.50000   0.00000  Uiso   1.00
H61    H     0.66655   0.17573   0.50000   0.00000  Uiso   1.00
H62    H     0.82427   0.49082   0.50000   0.00000  Uiso   1.00
H63    H     0.50918   0.33345   0.50000   0.00000  Uiso   1.00
H64    H     0.33345   0.82427   0.50000   0.00000  Uiso   1.00
H65    H     0.17573   0.50918   0.50000   0.00000  Uiso   1.00
H66    H     0.49082   0.66655   0.50000   0.00000  Uiso   1.00
C67    C     0.59134   0.21854   0.50000   0.00000  Uiso   1.00
C68    C     0.78146   0.37280   0.50000   0.00000  Uiso   1.00
C69    C     0.62720   0.40866   0.50000   0.00000  Uiso   1.00
C70    C     0.40866   0.78146   0.50000   0.00000  Uiso   1.00
C71    C     0.21854   0.62720   0.50000   0.00000  Uiso   1.00
C72    C     0.37280   0.59134   0.50000   0.00000  Uiso   1.00
H73    H     0.57056   0.22918   0.50000   0.00000  Uiso   1.00
H74    H     0.77082   0.34138   0.50000   0.00000  Uiso   1.00
H75    H     0.65862   0.42944   0.50000   0.00000  Uiso   1.00
H76    H     0.42944   0.77082   0.50000   0.00000  Uiso   1.00
H77    H     0.22918   0.65862   0.50000   0.00000  Uiso   1.00
H78    H     0.34138   0.57056   0.50000   0.00000  Uiso   1.00
C79    C     0.57538   0.17508   0.50000   0.00000  Uiso   1.00
C80    C     0.82492   0.40030   0.50000   0.00000  Uiso   1.00
C81    C     0.59970   0.42462   0.50000   0.00000  Uiso   1.00
C82    C     0.42462   0.82492   0.50000   0.00000  Uiso   1.00
C83    C     0.17508   0.59970   0.50000   0.00000  Uiso   1.00
C84    C     0.40030   0.57538   0.50000   0.00000  Uiso   1.00
H85    H     0.54369   0.15566   0.50000   0.00000  Uiso   1.00
H86    H     0.84434   0.38803   0.50000   0.00000  Uiso   1.00
H87    H     0.61197   0.45631   0.50000   0.00000  Uiso   1.00
H88    H     0.45631   0.84434   0.50000   0.00000  Uiso   1.00
H89    H     0.15566   0.61197   0.50000   0.00000  Uiso   1.00
H90    H     0.38803   0.54369   0.50000   0.00000  Uiso   1.00
C91    C     0.52482   0.04442   0.50000   0.00000  Uiso   1.00
C92    C     0.95558   0.48040   0.50000   0.00000  Uiso   1.00
C93    C     0.51960   0.47518   0.50000   0.00000  Uiso   1.00
C94    C     0.47518   0.95558   0.50000   0.00000  Uiso   1.00
C95    C     0.04442   0.51960   0.50000   0.00000  Uiso   1.00
C96    C     0.48040   0.52482   0.50000   0.00000  Uiso   1.00
C97    C     0.54379   0.01937   0.50000   0.00000  Uiso   1.00
C98    C     0.98063   0.52442   0.50000   0.00000  Uiso   1.00
C99    C     0.47558   0.45621   0.50000   0.00000  Uiso   1.00
C100   C     0.45621   0.98063   0.50000   0.00000  Uiso   1.00
C101   C     0.01937   0.47558   0.50000   0.00000  Uiso   1.00
C102   C     0.52442   0.54379   0.50000   0.00000  Uiso   1.00
H103   H     0.57549   0.03268   0.50000   0.00000  Uiso   1.00
H104   H     0.96732   0.54281   0.50000   0.00000  Uiso   1.00
H105   H     0.45719   0.42451   0.50000   0.00000  Uiso   1.00
H106   H     0.42451   0.96732   0.50000   0.00000  Uiso   1.00
H107   H     0.03268   0.45719   0.50000   0.00000  Uiso   1.00
H108   H     0.54281   0.57549   0.50000   0.00000  Uiso   1.00
C109   C     0.48087   0.02453   0.50000   0.00000  Uiso   1.00
C110   C     0.97547   0.45634   0.50000   0.00000  Uiso   1.00
C111   C     0.54366   0.51913   0.50000   0.00000  Uiso   1.00
C112   C     0.51913   0.97547   0.50000   0.00000  Uiso   1.00
C113   C     0.02453   0.54366   0.50000   0.00000  Uiso   1.00
C114   C     0.45634   0.48087   0.50000   0.00000  Uiso   1.00
H115   H     0.46661   0.04216   0.50000   0.00000  Uiso   1.00
H116   H     0.95784   0.42445   0.50000   0.00000  Uiso   1.00
H117   H     0.57555   0.53339   0.50000   0.00000  Uiso   1.00
H118   H     0.53339   0.95784   0.50000   0.00000  Uiso   1.00
H119   H     0.04216   0.57555   0.50000   0.00000  Uiso   1.00
H120   H     0.42445   0.46661   0.50000   0.00000  Uiso   1.00
loop_
_geom_bond_atom_site_label_1
_geom_bond_atom_site_label_2
_geom_bond_distance
_geom_bond_site_symmetry_2
_ccdc_geom_bond_type
N1     C7      1.356   .     S
N1     C8      1.356   .     D
N2     C8      1.356   .     S
N2     C9      1.356   .     D
N3     C7      1.356   .     D
N3     C9      1.356   .     S
N4     C10     1.356   .     S
N4     C11     1.356   .     D
N5     C11     1.356   .     S
N5     C12     1.356   .     D
N6     C10     1.356   .     D
N6     C12     1.356   .     S
C7     C37     1.417   .     S
C8     C38     1.417   .     S
C9     C39     1.417   .     S
C10    C40     1.417   .     S
C11    C41     1.417   .     S
C12    C42     1.417   .     S
C13    H19     1.022   .     S
C13    N25     1.354   .     D
C13    C31     1.410   .     S
C14    H20     1.022   .     S
C14    N26     1.354   .     D
C14    C32     1.410   .     S
C15    H21     1.022   .     S
C15    N27     1.354   .     D
C15    C33     1.410   .     S
C16    H22     1.022   .     S
C16    N28     1.354   .     D
C16    C34     1.410   .     S
C17    H23     1.022   .     S
C17    N29     1.354   .     D
C17    C35     1.410   .     S
C18    H24     1.022   .     S
C18    N30     1.354   .     D
C18    C36     1.410   .     S
N25    C91     1.354   .     S
N26    C92     1.354   .     S
N27    C93     1.354   .     S
N28    C94     1.354   .     S
N29    C95     1.354   .     S
N30    C96     1.354   .     S
C31    C55     1.414   .     D
C31    C79     1.414   .     S
C32    C56     1.414   .     D
C32    C80     1.414   .     S
C33    C57     1.414   .     D
C33    C81     1.414   .     S
C34    C58     1.414   .     D
C34    C82     1.414   .     S
C35    C59     1.414   .     D
C35    C83     1.414   .     S
C36    C60     1.414   .     D
C36    C84     1.414   .     S
C37    C43     1.418   .     D
C37    C67     1.418   .     S
C38    C44     1.418   .     D
C38    C68     1.418   .     S
C39    C45     1.418   .     D
C39    C69     1.418   .     S
C40    C46     1.418   .     D
C40    C70     1.418   .     S
C41    C47     1.418   .     D
C41    C71     1.418   .     S
C42    C48     1.418   .     D
C42    C72     1.418   .     S
C43    H49     1.023   .     S
C43    C55     1.407   .     S
C44    H50     1.023   .     S
C44    C56     1.407   .     S
C45    H51     1.023   .     S
C45    C57     1.407   .     S
C46    H52     1.023   .     S
C46    C58     1.407   .     S
C47    H53     1.023   .     S
C47    C59     1.407   .     S
C48    H54     1.023   .     S
C48    C60     1.407   .     S
C55    H61     1.024   .     S
C56    H62     1.024   .     S
C57    H63     1.024   .     S
C58    H64     1.024   .     S
C59    H65     1.024   .     S
C60    H66     1.024   .     S
C67    H73     1.023   .     S
C67    C79     1.408   .     D
C68    H74     1.023   .     S
C68    C80     1.408   .     D
C69    H75     1.023   .     S
C69    C81     1.408   .     D
C70    H76     1.023   .     S
C70    C82     1.408   .     D
C71    H77     1.023   .     S
C71    C83     1.408   .     D
C72    H78     1.023   .     S
C72    C84     1.408   .     D
C79    H85     1.023   .     S
C80    H86     1.023   .     S
C81    H87     1.023   .     S
C82    H88     1.023   .     S
C83    H89     1.023   .     S
C84    H90     1.023   .     S
C91    C97     1.414   .     S
C91    C109    1.409   .     D
C92    C98     1.414   .     S
C92    C110    1.409   .     D
C93    C99     1.414   .     D
C93    C111    1.409   .     S
C94    C100    1.414   .     D
C94    C112    1.409   .     S
C95    C101    1.414   .     D
C95    C113    1.409   .     S
C96    C102    1.414   .     S
C96    C114    1.409   .     D
C97    H103    1.019   .     S
C97    C112    1.409   1_545 D
C98    H104    1.019   .     S
C98    C113    1.409   1_655 D
C99    H105    1.019   .     S
C99    C114    1.409   .     S
C100   H106    1.019   .     S
C100   C109    1.409   1_565 S
C101   H107    1.019   .     S
C101   C110    1.409   1_455 S
C102   H108    1.019   .     S
C102   C111    1.409   .     D
C109   C100    1.409   1_545 S
C109   H115    1.023   .     S
C110   C101    1.409   1_655 S
C110   H116    1.023   .     S
C111   H117    1.023   .     S
C112   C97     1.409   1_565 D
C112   H118    1.023   .     S
C113   C98     1.409   1_455 D
C113   H119    1.023   .     S
C114   H120    1.023   .     S
