data_33
_audit_creation_date              2023-09-08
_audit_creation_method            'Materials Studio'
_symmetry_space_group_name_H-M    'P1'
_symmetry_Int_Tables_number       1
_symmetry_cell_setting            triclinic
loop_
_symmetry_equiv_pos_as_xyz
  x,y,z
_cell_length_a                    37.2550
_cell_length_b                    37.2550
_cell_length_c                    3.5159
_cell_angle_alpha                 90.0000
_cell_angle_beta                  90.0000
_cell_angle_gamma                 120.0000
loop_
_atom_site_label
_atom_site_type_symbol
_atom_site_fract_x
_atom_site_fract_y
_atom_site_fract_z
_atom_site_U_iso_or_equiv
_atom_site_adp_type
_atom_site_occupancy
C1     C     0.29220   0.64329   0.49211   0.00000  Uiso   1.00
N2     N     0.31502   0.62426   0.49198   0.00000  Uiso   1.00
C3     C     0.24645   0.61732   0.49533   0.00000  Uiso   1.00
C4     C     0.36498   0.58628   0.42002   0.00000  Uiso   1.00
C5     C     0.38917   0.56728   0.42527   0.00000  Uiso   1.00
C6     C     0.43207   0.59090   0.51263   0.00000  Uiso   1.00
C7     C     0.45002   0.63402   0.58076   0.00000  Uiso   1.00
C8     C     0.42563   0.65278   0.57325   0.00000  Uiso   1.00
N9     N     0.45873   0.57437   0.51900   0.00000  Uiso   1.00
C10    C     0.44612   0.53560   0.58708   0.00000  Uiso   1.00
C11    C     0.47434   0.51882   0.58307   0.00000  Uiso   1.00
C12    C     0.45677   0.47516   0.58808   0.00000  Uiso   1.00
C13    C     0.48135   0.45625   0.58038   0.00000  Uiso   1.00
H14    H     0.33161   0.56781   0.35218   0.00000  Uiso   1.00
H15    H     0.37467   0.53402   0.35473   0.00000  Uiso   1.00
H16    H     0.48338   0.65255   0.64811   0.00000  Uiso   1.00
H17    H     0.43973   0.68629   0.63103   0.00000  Uiso   1.00
H18    H     0.41275   0.51260   0.65553   0.00000  Uiso   1.00
O19    O     0.46061   0.41369   0.57763   0.00000  Uiso   1.00
H20    H     0.57724   0.54494   0.59034   0.00000  Uiso   1.00
H21    H     0.51959   0.59677   0.57403   0.00000  Uiso   1.00
C22    C     0.35671   0.64891   0.49211   0.00000  Uiso   1.00
N23    N     0.37574   0.69076   0.49198   0.00000  Uiso   1.00
C24    C     0.38268   0.62913   0.49533   0.00000  Uiso   1.00
C25    C     0.41372   0.77870   0.42002   0.00000  Uiso   1.00
C26    C     0.43272   0.82189   0.42527   0.00000  Uiso   1.00
C27    C     0.40910   0.84117   0.51263   0.00000  Uiso   1.00
C28    C     0.36598   0.81600   0.58076   0.00000  Uiso   1.00
C29    C     0.34722   0.77285   0.57325   0.00000  Uiso   1.00
N30    N     0.42563   0.88436   0.51900   0.00000  Uiso   1.00
C31    C     0.46440   0.91052   0.58708   0.00000  Uiso   1.00
C32    C     0.48118   0.95552   0.58307   0.00000  Uiso   1.00
C33    C     0.52484   0.98161   0.58808   0.00000  Uiso   1.00
H34    H     0.43219   0.76380   0.35218   0.00000  Uiso   1.00
H35    H     0.46598   0.84065   0.35473   0.00000  Uiso   1.00
H36    H     0.34745   0.83083   0.64811   0.00000  Uiso   1.00
H37    H     0.31371   0.75344   0.63103   0.00000  Uiso   1.00
H38    H     0.48740   0.90015   0.65553   0.00000  Uiso   1.00
H39    H     0.40323   0.92282   0.57403   0.00000  Uiso   1.00
C40    C     0.35109   0.70780   0.49211   0.00000  Uiso   1.00
N41    N     0.30924   0.68498   0.49198   0.00000  Uiso   1.00
C42    C     0.37087   0.75355   0.49533   0.00000  Uiso   1.00
C43    C     0.22130   0.63502   0.42002   0.00000  Uiso   1.00
C44    C     0.17811   0.61083   0.42527   0.00000  Uiso   1.00
C45    C     0.15883   0.56793   0.51263   0.00000  Uiso   1.00
C46    C     0.18400   0.54998   0.58076   0.00000  Uiso   1.00
C47    C     0.22715   0.57437   0.57325   0.00000  Uiso   1.00
N48    N     0.11564   0.54127   0.51900   0.00000  Uiso   1.00
C49    C     0.08948   0.55388   0.58708   0.00000  Uiso   1.00
C50    C     0.04448   0.52566   0.58307   0.00000  Uiso   1.00
C51    C     0.01839   0.54323   0.58808   0.00000  Uiso   1.00
H52    H     0.23620   0.66839   0.35218   0.00000  Uiso   1.00
H53    H     0.15935   0.62533   0.35473   0.00000  Uiso   1.00
H54    H     0.16917   0.51662   0.64811   0.00000  Uiso   1.00
H55    H     0.24656   0.56027   0.63103   0.00000  Uiso   1.00
H56    H     0.09985   0.58725   0.65553   0.00000  Uiso   1.00
H57    H     0.07718   0.48041   0.57403   0.00000  Uiso   1.00
C58    C     0.70780   0.35671   0.49211   0.00000  Uiso   1.00
N59    N     0.68498   0.37574   0.49198   0.00000  Uiso   1.00
C60    C     0.75355   0.38268   0.49533   0.00000  Uiso   1.00
C61    C     0.63502   0.41372   0.42002   0.00000  Uiso   1.00
C62    C     0.61083   0.43272   0.42527   0.00000  Uiso   1.00
C63    C     0.56793   0.40910   0.51263   0.00000  Uiso   1.00
C64    C     0.54998   0.36598   0.58076   0.00000  Uiso   1.00
C65    C     0.57437   0.34722   0.57325   0.00000  Uiso   1.00
N66    N     0.54127   0.42563   0.51900   0.00000  Uiso   1.00
C67    C     0.55388   0.46440   0.58708   0.00000  Uiso   1.00
C68    C     0.52566   0.48118   0.58307   0.00000  Uiso   1.00
C69    C     0.54323   0.52484   0.58808   0.00000  Uiso   1.00
C70    C     0.51865   0.54375   0.58038   0.00000  Uiso   1.00
H71    H     0.66839   0.43219   0.35218   0.00000  Uiso   1.00
H72    H     0.62533   0.46598   0.35473   0.00000  Uiso   1.00
H73    H     0.51662   0.34745   0.64811   0.00000  Uiso   1.00
H74    H     0.56027   0.31371   0.63103   0.00000  Uiso   1.00
H75    H     0.58725   0.48740   0.65553   0.00000  Uiso   1.00
O76    O     0.53939   0.58631   0.57763   0.00000  Uiso   1.00
H77    H     0.42276   0.45506   0.59034   0.00000  Uiso   1.00
H78    H     0.48041   0.40323   0.57403   0.00000  Uiso   1.00
C79    C     0.64329   0.35109   0.49211   0.00000  Uiso   1.00
N80    N     0.62426   0.30924   0.49198   0.00000  Uiso   1.00
C81    C     0.61732   0.37087   0.49533   0.00000  Uiso   1.00
C82    C     0.58628   0.22130   0.42002   0.00000  Uiso   1.00
C83    C     0.56728   0.17811   0.42527   0.00000  Uiso   1.00
C84    C     0.59090   0.15883   0.51263   0.00000  Uiso   1.00
C85    C     0.63402   0.18400   0.58076   0.00000  Uiso   1.00
C86    C     0.65278   0.22715   0.57325   0.00000  Uiso   1.00
N87    N     0.57437   0.11564   0.51900   0.00000  Uiso   1.00
C88    C     0.53560   0.08948   0.58708   0.00000  Uiso   1.00
C89    C     0.51882   0.04448   0.58307   0.00000  Uiso   1.00
C90    C     0.47516   0.01839   0.58808   0.00000  Uiso   1.00
H91    H     0.56781   0.23620   0.35218   0.00000  Uiso   1.00
H92    H     0.53402   0.15935   0.35473   0.00000  Uiso   1.00
H93    H     0.65255   0.16917   0.64811   0.00000  Uiso   1.00
H94    H     0.68629   0.24656   0.63103   0.00000  Uiso   1.00
H95    H     0.51260   0.09985   0.65553   0.00000  Uiso   1.00
H96    H     0.59677   0.07718   0.57403   0.00000  Uiso   1.00
C97    C     0.64891   0.29220   0.49211   0.00000  Uiso   1.00
N98    N     0.69076   0.31502   0.49198   0.00000  Uiso   1.00
C99    C     0.62913   0.24645   0.49533   0.00000  Uiso   1.00
C100   C     0.77870   0.36498   0.42002   0.00000  Uiso   1.00
C101   C     0.82189   0.38917   0.42527   0.00000  Uiso   1.00
C102   C     0.84117   0.43207   0.51263   0.00000  Uiso   1.00
C103   C     0.81600   0.45002   0.58076   0.00000  Uiso   1.00
C104   C     0.77285   0.42563   0.57325   0.00000  Uiso   1.00
N105   N     0.88436   0.45873   0.51900   0.00000  Uiso   1.00
C106   C     0.91052   0.44612   0.58708   0.00000  Uiso   1.00
C107   C     0.95552   0.47434   0.58307   0.00000  Uiso   1.00
C108   C     0.98161   0.45677   0.58808   0.00000  Uiso   1.00
H109   H     0.76380   0.33161   0.35218   0.00000  Uiso   1.00
H110   H     0.84065   0.37467   0.35473   0.00000  Uiso   1.00
H111   H     0.83083   0.48338   0.64811   0.00000  Uiso   1.00
H112   H     0.75344   0.43973   0.63103   0.00000  Uiso   1.00
H113   H     0.90015   0.41275   0.65553   0.00000  Uiso   1.00
H114   H     0.92282   0.51959   0.57403   0.00000  Uiso   1.00
C115   C     0.54375   0.02510   0.58038   0.00000  Uiso   1.00
O116   O     0.58631   0.04692   0.57763   0.00000  Uiso   1.00
H117   H     0.45506   0.03230   0.59034   0.00000  Uiso   1.00
C118   C     0.97490   0.51865   0.58038   0.00000  Uiso   1.00
O119   O     0.95308   0.53939   0.57763   0.00000  Uiso   1.00
H120   H     0.96770   0.42276   0.59034   0.00000  Uiso   1.00
C121   C     0.45625   0.97490   0.58038   0.00000  Uiso   1.00
O122   O     0.41369   0.95308   0.57763   0.00000  Uiso   1.00
H123   H     0.54494   0.96770   0.59034   0.00000  Uiso   1.00
C124   C     0.02510   0.48135   0.58038   0.00000  Uiso   1.00
O125   O     0.04692   0.46061   0.57763   0.00000  Uiso   1.00
H126   H     0.03230   0.57724   0.59034   0.00000  Uiso   1.00
loop_
_geom_bond_atom_site_label_1
_geom_bond_atom_site_label_2
_geom_bond_distance
_geom_bond_site_symmetry_2
_ccdc_geom_bond_type
C1     N2      1.352   .     S
C1     C3      1.481   .     S
C1     N41     1.353   .     D
N2     C22     1.353   .     D
C3     C43     1.414   .     S
C3     C47     1.415   .     D
C4     C5      1.397   .     S
C4     H14     1.105   .     S
C4     C24     1.414   .     D
C5     C6      1.420   .     D
C5     H15     1.104   .     S
C6     C7      1.418   .     S
C6     N9      1.406   .     S
C7     C8      1.396   .     D
C7     H16     1.104   .     S
C8     H17     1.105   .     S
C8     C24     1.415   .     S
N9     C10     1.298   .     D
C10    C11     1.467   .     S
C10    H18     1.128   .     S
C11    C12     1.418   .     D
C11    C70     1.433   .     S
C12    C13     1.407   .     S
C12    H77     1.103   .     S
C13    O19     1.373   .     S
C13    C68     1.433   .     D
O19    H78     0.992   .     S
H20    C69     1.103   .     S
H21    O76     0.992   .     S
C22    N23     1.352   .     S
C22    C24     1.481   .     S
N23    C40     1.353   .     D
C25    C26     1.397   .     S
C25    H34     1.105   .     S
C25    C42     1.414   .     D
C26    C27     1.420   .     D
C26    H35     1.104   .     S
C27    C28     1.418   .     S
C27    N30     1.406   .     S
C28    C29     1.396   .     D
C28    H36     1.104   .     S
C29    H37     1.105   .     S
C29    C42     1.415   .     S
N30    C31     1.298   .     D
C31    C32     1.467   .     S
C31    H38     1.128   .     S
C32    C33     1.418   .     D
C32    C121    1.433   .     S
C33    C115    1.407   1_565 S
C33    H123    1.103   .     S
H39    O122    0.992   .     S
C40    N41     1.352   .     S
C40    C42     1.481   .     S
C43    C44     1.397   .     D
C43    H52     1.105   .     S
C44    C45     1.420   .     S
C44    H53     1.104   .     S
C45    C46     1.418   .     D
C45    N48     1.406   .     S
C46    C47     1.396   .     S
C46    H54     1.104   .     S
C47    H55     1.105   .     S
N48    C49     1.298   .     D
C49    C50     1.467   .     S
C49    H56     1.128   .     S
C50    C51     1.418   .     S
C50    C124    1.433   .     D
C51    C118    1.407   1_455 D
C51    H126    1.103   .     S
H57    O125    0.992   .     S
C58    N59     1.352   .     S
C58    C60     1.481   .     S
C58    N98     1.353   .     D
N59    C79     1.353   .     D
C60    C100    1.414   .     S
C60    C104    1.415   .     D
C61    C62     1.397   .     S
C61    H71     1.105   .     S
C61    C81     1.414   .     D
C62    C63     1.420   .     D
C62    H72     1.104   .     S
C63    C64     1.418   .     S
C63    N66     1.406   .     S
C64    C65     1.396   .     D
C64    H73     1.104   .     S
C65    H74     1.105   .     S
C65    C81     1.415   .     S
N66    C67     1.298   .     D
C67    C68     1.467   .     S
C67    H75     1.128   .     S
C68    C69     1.418   .     S
C69    C70     1.407   .     D
C70    O76     1.373   .     S
C79    N80     1.352   .     S
C79    C81     1.481   .     S
N80    C97     1.353   .     D
C82    C83     1.397   .     S
C82    H91     1.105   .     S
C82    C99     1.414   .     D
C83    C84     1.420   .     D
C83    H92     1.104   .     S
C84    C85     1.418   .     S
C84    N87     1.406   .     S
C85    C86     1.396   .     D
C85    H93     1.104   .     S
C86    H94     1.105   .     S
C86    C99     1.415   .     S
N87    C88     1.298   .     D
C88    C89     1.467   .     S
C88    H95     1.128   .     S
C89    C90     1.418   .     S
C89    C115    1.433   .     D
C90    H117    1.103   .     S
C90    C121    1.407   1_545 D
H96    O116    0.992   .     S
C97    N98     1.352   .     S
C97    C99     1.481   .     S
C100   C101    1.397   .     D
C100   H109    1.105   .     S
C101   C102    1.420   .     S
C101   H110    1.104   .     S
C102   C103    1.418   .     D
C102   N105    1.406   .     S
C103   C104    1.396   .     S
C103   H111    1.104   .     S
C104   H112    1.105   .     S
N105   C106    1.298   .     D
C106   C107    1.467   .     S
C106   H113    1.128   .     S
C107   C108    1.418   .     D
C107   C118    1.433   .     S
C108   H120    1.103   .     S
C108   C124    1.407   1_655 S
H114   O119    0.992   .     S
C115   C33     1.407   1_545 S
C115   O116    1.373   .     S
C118   C51     1.407   1_655 D
C118   O119    1.373   .     S
C121   C90     1.407   1_565 D
C121   O122    1.373   .     S
C124   C108    1.407   1_455 S
C124   O125    1.373   .     S
