data_330
_audit_creation_date              2023-09-08
_audit_creation_method            'Materials Studio'
_symmetry_space_group_name_H-M    'P1'
_symmetry_Int_Tables_number       1
_symmetry_cell_setting            triclinic
loop_
_symmetry_equiv_pos_as_xyz
  x,y,z
_cell_length_a                    37.7445
_cell_length_b                    37.7445
_cell_length_c                    3.4666
_cell_angle_alpha                 90.0000
_cell_angle_beta                  90.0000
_cell_angle_gamma                 120.0000
loop_
_atom_site_label
_atom_site_type_symbol
_atom_site_fract_x
_atom_site_fract_y
_atom_site_fract_z
_atom_site_U_iso_or_equiv
_atom_site_adp_type
_atom_site_occupancy
H1     H     0.40755   0.71233   0.50000   0.00000  Uiso   1.00
C2     C     0.69259   0.31712   0.50000   0.00000  Uiso   1.00
C3     C     0.64997   0.28992   0.50000   0.00000  Uiso   1.00
C4     C     0.58224   0.11226   0.50000   0.00000  Uiso   1.00
H5     H     0.60365   0.10121   0.50000   0.00000  Uiso   1.00
N6     N     0.54295   0.08717   0.50000   0.00000  Uiso   1.00
C7     C     0.59885   0.15695   0.50000   0.00000  Uiso   1.00
C8     C     0.63214   0.24360   0.50000   0.00000  Uiso   1.00
C9     C     0.65753   0.22574   0.50000   0.00000  Uiso   1.00
H10    H     0.69034   0.24338   0.50000   0.00000  Uiso   1.00
C11    C     0.64111   0.18334   0.50000   0.00000  Uiso   1.00
H12    H     0.66165   0.17110   0.50000   0.00000  Uiso   1.00
C13    C     0.58928   0.21601   0.50000   0.00000  Uiso   1.00
H14    H     0.56700   0.22577   0.50000   0.00000  Uiso   1.00
C15    C     0.57311   0.17365   0.50000   0.00000  Uiso   1.00
H16    H     0.54023   0.15372   0.50000   0.00000  Uiso   1.00
C17    C     0.52219   0.04322   0.50000   0.00000  Uiso   1.00
C18    C     0.54279   0.02076   0.50000   0.00000  Uiso   1.00
H19    H     0.57570   0.03561   0.50000   0.00000  Uiso   1.00
C20    C     0.47942   0.02206   0.50000   0.00000  Uiso   1.00
H21    H     0.46339   0.03912   0.50000   0.00000  Uiso   1.00
H22    H     0.28767   0.69522   0.50000   0.00000  Uiso   1.00
C23    C     0.68288   0.37547   0.50000   0.00000  Uiso   1.00
C24    C     0.71008   0.36005   0.50000   0.00000  Uiso   1.00
C25    C     0.88774   0.46998   0.50000   0.00000  Uiso   1.00
H26    H     0.89879   0.50244   0.50000   0.00000  Uiso   1.00
N27    N     0.91283   0.45578   0.50000   0.00000  Uiso   1.00
C28    C     0.84305   0.44190   0.50000   0.00000  Uiso   1.00
C29    C     0.75640   0.38854   0.50000   0.00000  Uiso   1.00
C30    C     0.77426   0.43179   0.50000   0.00000  Uiso   1.00
H31    H     0.75662   0.44696   0.50000   0.00000  Uiso   1.00
C32    C     0.81666   0.45777   0.50000   0.00000  Uiso   1.00
H33    H     0.82890   0.49055   0.50000   0.00000  Uiso   1.00
C34    C     0.78399   0.37327   0.50000   0.00000  Uiso   1.00
H35    H     0.77423   0.34123   0.50000   0.00000  Uiso   1.00
C36    C     0.82635   0.39946   0.50000   0.00000  Uiso   1.00
H37    H     0.84628   0.38651   0.50000   0.00000  Uiso   1.00
C38    C     0.95678   0.47897   0.50000   0.00000  Uiso   1.00
C39    C     0.97924   0.52203   0.50000   0.00000  Uiso   1.00
H40    H     0.96439   0.54009   0.50000   0.00000  Uiso   1.00
C41    C     0.97794   0.45736   0.50000   0.00000  Uiso   1.00
H42    H     0.96088   0.42427   0.50000   0.00000  Uiso   1.00
H43    H     0.30478   0.59245   0.50000   0.00000  Uiso   1.00
C44    C     0.62453   0.30741   0.50000   0.00000  Uiso   1.00
C45    C     0.63995   0.35003   0.50000   0.00000  Uiso   1.00
C46    C     0.53002   0.41776   0.50000   0.00000  Uiso   1.00
H47    H     0.49756   0.39635   0.50000   0.00000  Uiso   1.00
N48    N     0.54422   0.45705   0.50000   0.00000  Uiso   1.00
C49    C     0.55810   0.40115   0.50000   0.00000  Uiso   1.00
C50    C     0.61146   0.36786   0.50000   0.00000  Uiso   1.00
C51    C     0.56821   0.34247   0.50000   0.00000  Uiso   1.00
H52    H     0.55304   0.30966   0.50000   0.00000  Uiso   1.00
C53    C     0.54223   0.35889   0.50000   0.00000  Uiso   1.00
H54    H     0.50945   0.33835   0.50000   0.00000  Uiso   1.00
C55    C     0.62673   0.41072   0.50000   0.00000  Uiso   1.00
H56    H     0.65877   0.43300   0.50000   0.00000  Uiso   1.00
C57    C     0.60054   0.42689   0.50000   0.00000  Uiso   1.00
H58    H     0.61349   0.45977   0.50000   0.00000  Uiso   1.00
C59    C     0.52103   0.47781   0.50000   0.00000  Uiso   1.00
C60    C     0.47797   0.45721   0.50000   0.00000  Uiso   1.00
H61    H     0.45991   0.42430   0.50000   0.00000  Uiso   1.00
C62    C     0.54264   0.52058   0.50000   0.00000  Uiso   1.00
H63    H     0.57573   0.53661   0.50000   0.00000  Uiso   1.00
H64    H     0.59245   0.28767   0.50000   0.00000  Uiso   1.00
C65    C     0.30741   0.68288   0.50000   0.00000  Uiso   1.00
C66    C     0.35003   0.71008   0.50000   0.00000  Uiso   1.00
C67    C     0.41776   0.88774   0.50000   0.00000  Uiso   1.00
H68    H     0.39635   0.89879   0.50000   0.00000  Uiso   1.00
N69    N     0.45705   0.91283   0.50000   0.00000  Uiso   1.00
C70    C     0.40115   0.84305   0.50000   0.00000  Uiso   1.00
C71    C     0.36786   0.75640   0.50000   0.00000  Uiso   1.00
C72    C     0.34247   0.77426   0.50000   0.00000  Uiso   1.00
H73    H     0.30966   0.75662   0.50000   0.00000  Uiso   1.00
C74    C     0.35889   0.81666   0.50000   0.00000  Uiso   1.00
H75    H     0.33835   0.82890   0.50000   0.00000  Uiso   1.00
C76    C     0.41072   0.78399   0.50000   0.00000  Uiso   1.00
H77    H     0.43300   0.77423   0.50000   0.00000  Uiso   1.00
C78    C     0.42689   0.82635   0.50000   0.00000  Uiso   1.00
H79    H     0.45977   0.84628   0.50000   0.00000  Uiso   1.00
C80    C     0.47781   0.95678   0.50000   0.00000  Uiso   1.00
C81    C     0.45721   0.97924   0.50000   0.00000  Uiso   1.00
H82    H     0.42430   0.96439   0.50000   0.00000  Uiso   1.00
C83    C     0.52058   0.97794   0.50000   0.00000  Uiso   1.00
H84    H     0.53661   0.96088   0.50000   0.00000  Uiso   1.00
H85    H     0.71233   0.30478   0.50000   0.00000  Uiso   1.00
C86    C     0.31712   0.62453   0.50000   0.00000  Uiso   1.00
C87    C     0.28992   0.63995   0.50000   0.00000  Uiso   1.00
C88    C     0.11226   0.53002   0.50000   0.00000  Uiso   1.00
H89    H     0.10121   0.49756   0.50000   0.00000  Uiso   1.00
N90    N     0.08717   0.54422   0.50000   0.00000  Uiso   1.00
C91    C     0.15695   0.55810   0.50000   0.00000  Uiso   1.00
C92    C     0.24360   0.61146   0.50000   0.00000  Uiso   1.00
C93    C     0.22574   0.56821   0.50000   0.00000  Uiso   1.00
H94    H     0.24338   0.55304   0.50000   0.00000  Uiso   1.00
C95    C     0.18334   0.54223   0.50000   0.00000  Uiso   1.00
H96    H     0.17110   0.50945   0.50000   0.00000  Uiso   1.00
C97    C     0.21601   0.62673   0.50000   0.00000  Uiso   1.00
H98    H     0.22577   0.65877   0.50000   0.00000  Uiso   1.00
C99    C     0.17365   0.60054   0.50000   0.00000  Uiso   1.00
H100   H     0.15372   0.61349   0.50000   0.00000  Uiso   1.00
C101   C     0.04322   0.52103   0.50000   0.00000  Uiso   1.00
C102   C     0.02076   0.47797   0.50000   0.00000  Uiso   1.00
H103   H     0.03561   0.45991   0.50000   0.00000  Uiso   1.00
C104   C     0.02206   0.54264   0.50000   0.00000  Uiso   1.00
H105   H     0.03912   0.57573   0.50000   0.00000  Uiso   1.00
H106   H     0.69522   0.40755   0.50000   0.00000  Uiso   1.00
C107   C     0.37547   0.69259   0.50000   0.00000  Uiso   1.00
C108   C     0.36005   0.64997   0.50000   0.00000  Uiso   1.00
C109   C     0.46998   0.58224   0.50000   0.00000  Uiso   1.00
H110   H     0.50244   0.60365   0.50000   0.00000  Uiso   1.00
N111   N     0.45578   0.54295   0.50000   0.00000  Uiso   1.00
C112   C     0.44190   0.59885   0.50000   0.00000  Uiso   1.00
C113   C     0.38854   0.63214   0.50000   0.00000  Uiso   1.00
C114   C     0.43179   0.65753   0.50000   0.00000  Uiso   1.00
H115   H     0.44696   0.69034   0.50000   0.00000  Uiso   1.00
C116   C     0.45777   0.64111   0.50000   0.00000  Uiso   1.00
H117   H     0.49055   0.66165   0.50000   0.00000  Uiso   1.00
C118   C     0.37327   0.58928   0.50000   0.00000  Uiso   1.00
H119   H     0.34123   0.56700   0.50000   0.00000  Uiso   1.00
C120   C     0.39946   0.57311   0.50000   0.00000  Uiso   1.00
H121   H     0.38651   0.54023   0.50000   0.00000  Uiso   1.00
C122   C     0.47897   0.52219   0.50000   0.00000  Uiso   1.00
C123   C     0.52203   0.54279   0.50000   0.00000  Uiso   1.00
H124   H     0.54009   0.57570   0.50000   0.00000  Uiso   1.00
C125   C     0.45736   0.47942   0.50000   0.00000  Uiso   1.00
H126   H     0.42427   0.46339   0.50000   0.00000  Uiso   1.00
loop_
_geom_bond_atom_site_label_1
_geom_bond_atom_site_label_2
_geom_bond_distance
_geom_bond_site_symmetry_2
_ccdc_geom_bond_type
H1     C107    1.058   .     S
C2     C3      1.411   .     S
C2     C24     1.411   .     D
C2     H85     1.058   .     S
C3     C8      1.527   .     S
C3     C44     1.411   .     D
C4     H5      1.079   .     S
C4     N6      1.301   .     D
C4     C7      1.477   .     S
N6     C17     1.437   .     S
C7     C11     1.396   .     D
C7     C15     1.398   .     S
C8     C9      1.421   .     D
C8     C13     1.420   .     S
C9     H10     1.073   .     S
C9     C11     1.398   .     S
C11    H12     1.083   .     S
C13    H14     1.074   .     S
C13    C15     1.398   .     D
C15    H16     1.083   .     S
C17    C18     1.408   .     S
C17    C20     1.398   .     D
C18    H19     1.077   .     S
C18    C83     1.400   1_545 D
C20    H21     1.082   .     S
C20    C81     1.400   1_545 S
H22    C65     1.058   .     S
C23    C24     1.411   .     S
C23    C45     1.411   .     D
C23    H106    1.058   .     S
C24    C29     1.527   .     S
C25    H26     1.079   .     S
C25    N27     1.301   .     D
C25    C28     1.477   .     S
N27    C38     1.437   .     S
C28    C32     1.396   .     D
C28    C36     1.398   .     S
C29    C30     1.421   .     D
C29    C34     1.420   .     S
C30    H31     1.073   .     S
C30    C32     1.398   .     S
C32    H33     1.083   .     S
C34    H35     1.074   .     S
C34    C36     1.398   .     D
C36    H37     1.083   .     S
C38    C39     1.408   .     S
C38    C41     1.398   .     D
C39    H40     1.077   .     S
C39    C104    1.400   1_655 D
C41    H42     1.082   .     S
C41    C102    1.400   1_655 S
H43    C86     1.058   .     S
C44    C45     1.411   .     S
C44    H64     1.058   .     S
C45    C50     1.527   .     S
C46    H47     1.079   .     S
C46    N48     1.301   .     D
C46    C49     1.477   .     S
N48    C59     1.437   .     S
C49    C53     1.396   .     D
C49    C57     1.398   .     S
C50    C51     1.421   .     D
C50    C55     1.420   .     S
C51    H52     1.073   .     S
C51    C53     1.398   .     S
C53    H54     1.083   .     S
C55    H56     1.074   .     S
C55    C57     1.398   .     D
C57    H58     1.083   .     S
C59    C60     1.408   .     D
C59    C62     1.398   .     S
C60    H61     1.077   .     S
C60    C125    1.400   .     S
C62    H63     1.082   .     S
C62    C123    1.400   .     D
C65    C66     1.411   .     D
C65    C87     1.411   .     S
C66    C71     1.527   .     S
C66    C107    1.411   .     S
C67    H68     1.079   .     S
C67    N69     1.301   .     D
C67    C70     1.477   .     S
N69    C80     1.437   .     S
C70    C74     1.396   .     D
C70    C78     1.398   .     S
C71    C72     1.421   .     D
C71    C76     1.420   .     S
C72    H73     1.073   .     S
C72    C74     1.398   .     S
C74    H75     1.083   .     S
C76    H77     1.074   .     S
C76    C78     1.398   .     D
C78    H79     1.083   .     S
C80    C81     1.408   .     D
C80    C83     1.398   .     S
C81    C20     1.400   1_565 S
C81    H82     1.077   .     S
C83    C18     1.400   1_565 D
C83    H84     1.082   .     S
C86    C87     1.411   .     D
C86    C108    1.411   .     S
C87    C92     1.527   .     S
C88    H89     1.079   .     S
C88    N90     1.301   .     D
C88    C91     1.477   .     S
N90    C101    1.437   .     S
C91    C95     1.396   .     D
C91    C99     1.398   .     S
C92    C93     1.421   .     D
C92    C97     1.420   .     S
C93    H94     1.073   .     S
C93    C95     1.398   .     S
C95    H96     1.083   .     S
C97    H98     1.074   .     S
C97    C99     1.398   .     D
C99    H100    1.083   .     S
C101   C102    1.408   .     D
C101   C104    1.398   .     S
C102   C41     1.400   1_455 S
C102   H103    1.077   .     S
C104   C39     1.400   1_455 D
C104   H105    1.082   .     S
C107   C108    1.411   .     D
C108   C113    1.527   .     S
C109   H110    1.079   .     S
C109   N111    1.301   .     D
C109   C112    1.477   .     S
N111   C122    1.437   .     S
C112   C116    1.396   .     D
C112   C120    1.398   .     S
C113   C114    1.421   .     D
C113   C118    1.420   .     S
C114   H115    1.073   .     S
C114   C116    1.398   .     S
C116   H117    1.083   .     S
C118   H119    1.074   .     S
C118   C120    1.398   .     D
C120   H121    1.083   .     S
C122   C123    1.408   .     S
C122   C125    1.398   .     D
C123   H124    1.077   .     S
C125   H126    1.082   .     S
