data_331
_audit_creation_date              2023-09-08
_audit_creation_method            'Materials Studio'
_symmetry_space_group_name_H-M    'P1'
_symmetry_Int_Tables_number       1
_symmetry_cell_setting            triclinic
loop_
_symmetry_equiv_pos_as_xyz
  x,y,z
_cell_length_a                    15.3195
_cell_length_b                    15.2892
_cell_length_c                    6.5078
_cell_angle_alpha                 90.0000
_cell_angle_beta                  90.0000
_cell_angle_gamma                 59.7289
loop_
_atom_site_label
_atom_site_type_symbol
_atom_site_fract_x
_atom_site_fract_y
_atom_site_fract_z
_atom_site_U_iso_or_equiv
_atom_site_adp_type
_atom_site_occupancy
C1     C     0.16524   0.70899   0.01847   0.00000  Uiso   1.00
C2     C     0.02699   0.66115   0.01847   0.00000  Uiso   1.00
C3     C     0.21428   0.52147   0.01847   0.00000  Uiso   1.00
O4     O     0.19228   0.77428   0.01847   0.00000  Uiso   1.00
O5     O     0.93468   0.68795   0.01847   0.00000  Uiso   1.00
O6     O     0.27991   0.42912   0.01847   0.00000  Uiso   1.00
C7     C     0.24197   0.60068   0.01847   0.00000  Uiso   1.00
C8     C     0.05803   0.73768   0.01847   0.00000  Uiso   1.00
C9     C     0.10595   0.55320   0.01847   0.00000  Uiso   1.00
C10    C     0.34325   0.57584   0.01847   0.00000  Uiso   1.00
H11    H     0.36274   0.63632   0.01847   0.00000  Uiso   1.00
C12    C     0.08074   0.47692   0.01847   0.00000  Uiso   1.00
H13    H     0.14053   0.39624   0.01847   0.00000  Uiso   1.00
C14    C     0.98156   0.83964   0.01847   0.00000  Uiso   1.00
H15    H     0.90104   0.86119   0.01847   0.00000  Uiso   1.00
N16    N     0.41878   0.47919   0.01847   0.00000  Uiso   1.00
H17    H     0.39859   0.42238   0.01847   0.00000  Uiso   1.00
N18    N     0.98393   0.49928   0.01847   0.00000  Uiso   1.00
N19    N     0.00397   0.91391   0.01847   0.00000  Uiso   1.00
H20    H     0.92733   0.57695   0.01847   0.00000  Uiso   1.00
H21    H     0.08177   0.89152   0.01847   0.00000  Uiso   1.00
C22    C     0.72487   0.40756   0.01847   0.00000  Uiso   1.00
C23    C     0.77144   0.22081   0.01847   0.00000  Uiso   1.00
C24    C     0.91133   0.26659   0.01847   0.00000  Uiso   1.00
O25    O     0.65903   0.50055   0.01847   0.00000  Uiso   1.00
O26    O     0.74376   0.15636   0.01847   0.00000  Uiso   1.00
O27    O     0.00405   0.23813   0.01847   0.00000  Uiso   1.00
C28    C     0.83315   0.37469   0.01847   0.00000  Uiso   1.00
C29    C     0.69555   0.32967   0.01847   0.00000  Uiso   1.00
C30    C     0.87916   0.19077   0.01847   0.00000  Uiso   1.00
C31    C     0.85954   0.45005   0.01847   0.00000  Uiso   1.00
H32    H     0.80045   0.53102   0.01847   0.00000  Uiso   1.00
C33    C     0.95451   0.08862   0.01847   0.00000  Uiso   1.00
H34    H     0.03539   0.06620   0.01847   0.00000  Uiso   1.00
C35    C     0.59400   0.35571   0.01847   0.00000  Uiso   1.00
H36    H     0.57363   0.29590   0.01847   0.00000  Uiso   1.00
N37    N     0.95664   0.42665   0.01847   0.00000  Uiso   1.00
H38    H     0.01277   0.34887   0.01847   0.00000  Uiso   1.00
N39    N     0.93157   0.01448   0.01847   0.00000  Uiso   1.00
N40    N     0.51854   0.45277   0.01847   0.00000  Uiso   1.00
H41    H     0.85370   0.03716   0.01847   0.00000  Uiso   1.00
H42    H     0.53876   0.50949   0.01847   0.00000  Uiso   1.00
C43    C     0.26640   0.81663   0.51847   0.00000  Uiso   1.00
C44    C     0.12539   0.77238   0.51847   0.00000  Uiso   1.00
C45    C     0.31144   0.63030   0.51847   0.00000  Uiso   1.00
O46    O     0.29469   0.88059   0.51847   0.00000  Uiso   1.00
O47    O     0.03254   0.80151   0.51847   0.00000  Uiso   1.00
O48    O     0.37676   0.53717   0.51847   0.00000  Uiso   1.00
C49    C     0.34160   0.70756   0.51847   0.00000  Uiso   1.00
C50    C     0.15845   0.84753   0.51847   0.00000  Uiso   1.00
C51    C     0.20293   0.66407   0.51847   0.00000  Uiso   1.00
C52    C     0.44336   0.68068   0.51847   0.00000  Uiso   1.00
H53    H     0.46431   0.74006   0.51847   0.00000  Uiso   1.00
C54    C     0.17571   0.58935   0.51847   0.00000  Uiso   1.00
H55    H     0.23437   0.50823   0.51847   0.00000  Uiso   1.00
C56    C     0.08374   0.94987   0.51847   0.00000  Uiso   1.00
H57    H     0.00271   0.97286   0.51847   0.00000  Uiso   1.00
N58    N     0.51846   0.58343   0.51847   0.00000  Uiso   1.00
H59    H     0.49799   0.52691   0.51847   0.00000  Uiso   1.00
N60    N     0.07842   0.61329   0.51847   0.00000  Uiso   1.00
N61    N     0.10722   0.02365   0.51847   0.00000  Uiso   1.00
H62    H     0.02248   0.69109   0.51847   0.00000  Uiso   1.00
H63    H     0.18512   0.00076   0.51847   0.00000  Uiso   1.00
C64    C     0.82205   0.51637   0.51847   0.00000  Uiso   1.00
C65    C     0.87255   0.32848   0.51847   0.00000  Uiso   1.00
C66    C     0.00971   0.37778   0.51847   0.00000  Uiso   1.00
O67    O     0.75591   0.60858   0.51847   0.00000  Uiso   1.00
O68    O     0.84615   0.26269   0.51847   0.00000  Uiso   1.00
O69    O     0.10186   0.35162   0.51847   0.00000  Uiso   1.00
C70    C     0.93015   0.48553   0.51847   0.00000  Uiso   1.00
C71    C     0.79518   0.43656   0.51847   0.00000  Uiso   1.00
C72    C     0.97953   0.30061   0.51847   0.00000  Uiso   1.00
C73    C     0.95454   0.56242   0.51847   0.00000  Uiso   1.00
H74    H     0.89433   0.64294   0.51847   0.00000  Uiso   1.00
C75    C     0.05661   0.19887   0.51847   0.00000  Uiso   1.00
H76    H     0.13697   0.17793   0.51847   0.00000  Uiso   1.00
C77    C     0.69412   0.46057   0.51847   0.00000  Uiso   1.00
H78    H     0.67523   0.39965   0.51847   0.00000  Uiso   1.00
N79    N     0.05115   0.54064   0.51847   0.00000  Uiso   1.00
H80    H     0.10800   0.46304   0.51847   0.00000  Uiso   1.00
N81    N     0.03478   0.12422   0.51847   0.00000  Uiso   1.00
N82    N     0.61822   0.55701   0.51847   0.00000  Uiso   1.00
H83    H     0.95703   0.14634   0.51847   0.00000  Uiso   1.00
H84    H     0.63812   0.61404   0.51847   0.00000  Uiso   1.00
loop_
_geom_bond_atom_site_label_1
_geom_bond_atom_site_label_2
_geom_bond_distance
_geom_bond_site_symmetry_2
_ccdc_geom_bond_type
C1     O4      1.259   .     D
C1     C7      1.470   .     S
C1     C8      1.471   .     S
C2     O5      1.258   1_455 D
C2     C8      1.468   .     S
C2     C9      1.475   .     S
C3     O6      1.254   .     D
C3     C7      1.471   .     S
C3     C9      1.476   .     S
O5     C2      1.258   1_655 D
C7     C10     1.399   .     D
C8     C14     1.400   1_455 D
C9     C12     1.401   .     D
C10    H11     1.106   .     S
C10    N16     1.341   .     S
C12    H13     1.105   .     S
C12    N18     1.344   1_455 S
C14    C8      1.400   1_655 D
C14    H15     1.105   .     S
C14    N19     1.342   1_655 S
N16    H17     1.059   .     S
N16    N40     1.370   .     S
N18    C12     1.344   1_655 S
N18    H20     1.060   .     S
N18    N37     1.370   .     S
N19    C14     1.342   1_455 S
N19    H21     1.061   .     S
N19    N39     1.369   1_465 S
C22    O25     1.262   .     D
C22    C28     1.471   .     S
C22    C29     1.469   .     S
C23    O26     1.254   .     D
C23    C29     1.473   .     S
C23    C30     1.473   .     S
C24    O27     1.258   1_655 D
C24    C28     1.473   .     S
C24    C30     1.471   .     S
O27    C24     1.258   1_455 D
C28    C31     1.400   .     D
C29    C35     1.398   .     D
C30    C33     1.398   .     D
C31    H32     1.106   .     S
C31    N37     1.343   .     S
C33    H34     1.107   1_655 S
C33    N39     1.345   .     S
H34    C33     1.107   1_455 S
C35    H36     1.105   .     S
C35    N40     1.345   .     S
N37    H38     1.060   1_655 S
H38    N37     1.060   1_455 S
N39    N19     1.369   1_645 S
N39    H41     1.061   .     S
N40    H42     1.058   .     S
C43    O46     1.254   .     D
C43    C49     1.473   .     S
C43    C50     1.473   .     S
C44    O47     1.258   .     D
C44    C50     1.471   .     S
C44    C51     1.473   .     S
C45    O48     1.262   .     D
C45    C49     1.469   .     S
C45    C51     1.471   .     S
C49    C52     1.398   .     D
C50    C56     1.397   .     D
C51    C54     1.400   .     D
C52    H53     1.105   .     S
C52    N58     1.345   .     S
C54    H55     1.106   .     S
C54    N60     1.344   .     S
C56    H57     1.107   .     S
C56    N61     1.346   1_565 S
N58    H59     1.057   .     S
N58    N82     1.370   .     S
N60    H62     1.059   .     S
N60    N79     1.370   .     S
N61    C56     1.346   1_545 S
N61    H63     1.061   .     S
N61    N81     1.369   .     S
C64    O67     1.255   .     D
C64    C70     1.476   .     S
C64    C71     1.471   .     S
C65    O68     1.259   .     D
C65    C71     1.470   .     S
C65    C72     1.471   .     S
C66    O69     1.258   .     D
C66    C70     1.475   1_455 S
C66    C72     1.468   1_455 S
C70    C66     1.475   1_655 S
C70    C73     1.402   .     D
C71    C77     1.400   .     D
C72    C66     1.468   1_655 S
C72    C75     1.401   1_655 D
C73    H74     1.105   .     S
C73    N79     1.343   1_655 S
C75    C72     1.401   1_455 D
C75    H76     1.105   .     S
C75    N81     1.341   .     S
C77    H78     1.106   .     S
C77    N82     1.341   .     S
N79    C73     1.343   1_455 S
N79    H80     1.060   .     S
N81    H83     1.062   1_455 S
N82    H84     1.059   .     S
H83    N81     1.062   1_655 S
