data_332
_audit_creation_date              2023-09-08
_audit_creation_method            'Materials Studio'
_symmetry_space_group_name_H-M    'P1'
_symmetry_Int_Tables_number       1
_symmetry_cell_setting            triclinic
loop_
_symmetry_equiv_pos_as_xyz
  x,y,z
_cell_length_a                    30.1441
_cell_length_b                    30.1305
_cell_length_c                    7.0819
_cell_angle_alpha                 90.2291
_cell_angle_beta                  90.3233
_cell_angle_gamma                 60.4944
loop_
_atom_site_label
_atom_site_type_symbol
_atom_site_fract_x
_atom_site_fract_y
_atom_site_fract_z
_atom_site_U_iso_or_equiv
_atom_site_adp_type
_atom_site_occupancy
C1     C     0.16763   0.71211   0.09845   0.00000  Uiso   1.00
C2     C     0.10158   0.68271   0.04260   0.00000  Uiso   1.00
C3     C     0.19391   0.61719   0.13301   0.00000  Uiso   1.00
O4     O     0.17897   0.74693   0.10641   0.00000  Uiso   1.00
O5     O     0.05652   0.69370   0.00617   0.00000  Uiso   1.00
O6     O     0.22708   0.57196   0.16478   0.00000  Uiso   1.00
C7     C     0.20601   0.65907   0.14428   0.00000  Uiso   1.00
C8     C     0.11600   0.72285   0.04459   0.00000  Uiso   1.00
C9     C     0.14153   0.62983   0.08046   0.00000  Uiso   1.00
C10    C     0.25528   0.64941   0.18576   0.00000  Uiso   1.00
H11    H     0.26405   0.68097   0.18818   0.00000  Uiso   1.00
C12    C     0.13165   0.58943   0.05609   0.00000  Uiso   1.00
H13    H     0.16190   0.54974   0.08193   0.00000  Uiso   1.00
C14    C     0.07894   0.77156   0.98759   0.00000  Uiso   1.00
H15    H     0.04050   0.77895   0.94593   0.00000  Uiso   1.00
N16    N     0.29315   0.60240   0.23086   0.00000  Uiso   1.00
H17    H     0.28592   0.57157   0.21505   0.00000  Uiso   1.00
N18    N     0.08557   0.59744   0.00076   0.00000  Uiso   1.00
N19    N     0.91981   0.14428   0.83377   0.00000  Uiso   1.00
H20    H     0.05666   0.63514   0.97040   0.00000  Uiso   1.00
H21    H     0.94782   0.13660   0.93725   0.00000  Uiso   1.00
C22    C     0.77778   0.38942   0.95348   0.00000  Uiso   1.00
C23    C     0.80115   0.29530   0.92096   0.00000  Uiso   1.00
C24    C     0.86834   0.32252   0.85361   0.00000  Uiso   1.00
O25    O     0.74547   0.43527   0.98290   0.00000  Uiso   1.00
O26    O     0.78870   0.26135   0.93281   0.00000  Uiso   1.00
O27    O     0.91276   0.31067   0.80534   0.00000  Uiso   1.00
C28    C     0.83016   0.37542   0.89958   0.00000  Uiso   1.00
C29    C     0.76452   0.34855   0.96989   0.00000  Uiso   1.00
C30    C     0.85289   0.28312   0.86343   0.00000  Uiso   1.00
C31    C     0.84274   0.41432   0.89653   0.00000  Uiso   1.00
H32    H     0.81417   0.45371   0.93585   0.00000  Uiso   1.00
C33    C     0.89046   0.23302   0.82951   0.00000  Uiso   1.00
H34    H     0.93011   0.22388   0.80154   0.00000  Uiso   1.00
C35    C     0.71632   0.35920   0.03155   0.00000  Uiso   1.00
H36    H     0.70647   0.32849   0.04224   0.00000  Uiso   1.00
N37    N     0.88957   0.40503   0.84974   0.00000  Uiso   1.00
H38    H     0.91738   0.36735   0.81254   0.00000  Uiso   1.00
N39    N     0.88029   0.19413   0.82739   0.00000  Uiso   1.00
N40    N     0.68146   0.40616   0.08856   0.00000  Uiso   1.00
H41    H     0.84314   0.20260   0.86807   0.00000  Uiso   1.00
H42    H     0.68983   0.43618   0.07181   0.00000  Uiso   1.00
C43    C     0.91116   0.10643   0.76541   0.00000  Uiso   1.00
O44    O     0.87233   0.11726   0.66890   0.00000  Uiso   1.00
C45    C     0.95031   0.05252   0.81027   0.00000  Uiso   1.00
C46    C     0.00299   0.03683   0.82225   0.00000  Uiso   1.00
C47    C     0.93401   0.01687   0.84436   0.00000  Uiso   1.00
C48    C     0.03869   0.98648   0.87154   0.00000  Uiso   1.00
C49    C     0.96967   0.96655   0.89439   0.00000  Uiso   1.00
H50    H     0.89303   0.02977   0.83615   0.00000  Uiso   1.00
C51    C     0.02233   0.95093   0.90786   0.00000  Uiso   1.00
H52    H     0.07966   0.97363   0.88025   0.00000  Uiso   1.00
C53    C     0.06091   0.89818   0.96774   0.00000  Uiso   1.00
O54    O     0.09903   0.88962   0.06522   0.00000  Uiso   1.00
N55    N     0.05247   0.85868   0.91943   0.00000  Uiso   1.00
N56    N     0.08906   0.81014   0.97275   0.00000  Uiso   1.00
H57    H     0.02832   0.86184   0.80714   0.00000  Uiso   1.00
H58    H     0.12561   0.80372   0.01305   0.00000  Uiso   1.00
N59    N     0.90407   0.44198   0.85635   0.00000  Uiso   1.00
N60    N     0.34358   0.59106   0.24515   0.00000  Uiso   1.00
H61    H     0.88574   0.47071   0.95832   0.00000  Uiso   1.00
H62    H     0.35213   0.61084   0.34794   0.00000  Uiso   1.00
C63    C     0.95318   0.42704   0.80125   0.00000  Uiso   1.00
C64    C     0.37905   0.54402   0.17641   0.00000  Uiso   1.00
O65    O     0.97937   0.38487   0.72270   0.00000  Uiso   1.00
O66    O     0.36381   0.51733   0.09232   0.00000  Uiso   1.00
C67    C     0.43487   0.52620   0.18551   0.00000  Uiso   1.00
C68    C     0.45605   0.55896   0.20291   0.00000  Uiso   1.00
C69    C     0.46754   0.47401   0.14855   0.00000  Uiso   1.00
C70    C     0.50883   0.53952   0.18212   0.00000  Uiso   1.00
C71    C     0.52024   0.45452   0.13052   0.00000  Uiso   1.00
H72    H     0.44990   0.44997   0.12686   0.00000  Uiso   1.00
C73    C     0.54133   0.48734   0.14583   0.00000  Uiso   1.00
H74    H     0.52583   0.56441   0.19104   0.00000  Uiso   1.00
C75    C     0.97271   0.46375   0.82823   0.00000  Uiso   1.00
C76    C     0.94192   0.51640   0.78754   0.00000  Uiso   1.00
C77    C     0.02395   0.44488   0.88096   0.00000  Uiso   1.00
C78    C     0.96203   0.54942   0.80638   0.00000  Uiso   1.00
C79    C     0.04401   0.47806   0.90033   0.00000  Uiso   1.00
H80    H     0.04732   0.40386   0.90909   0.00000  Uiso   1.00
C81    C     0.01287   0.53104   0.86563   0.00000  Uiso   1.00
H82    H     0.93938   0.59035   0.77466   0.00000  Uiso   1.00
C83    C     0.02947   0.57018   0.88288   0.00000  Uiso   1.00
C84    C     0.59594   0.46926   0.09858   0.00000  Uiso   1.00
O85    O     0.00243   0.61390   0.81521   0.00000  Uiso   1.00
O86    O     0.60903   0.49744   0.01640   0.00000  Uiso   1.00
N87    N     0.07467   0.55851   0.97058   0.00000  Uiso   1.00
N88    N     0.63190   0.41902   0.13299   0.00000  Uiso   1.00
H89    H     0.62709   0.39888   0.24451   0.00000  Uiso   1.00
H90    H     0.09791   0.52399   0.03685   0.00000  Uiso   1.00
O91    O     0.42113   0.61027   0.22987   0.00000  Uiso   1.00
O92    O     0.55452   0.40418   0.08233   0.00000  Uiso   1.00
O93    O     0.95622   0.93017   0.94711   0.00000  Uiso   1.00
O94    O     0.01570   0.07389   0.77169   0.00000  Uiso   1.00
O95    O     0.89303   0.53077   0.72228   0.00000  Uiso   1.00
O96    O     0.09443   0.46214   0.95110   0.00000  Uiso   1.00
C97    C     0.53959   0.36526   0.10795   0.00000  Uiso   1.00
H98    H     0.52164   0.36990   0.24948   0.00000  Uiso   1.00
H99    H     0.51086   0.36975   0.99789   0.00000  Uiso   1.00
C100   C     0.58759   0.31424   0.09139   0.00000  Uiso   1.00
H101   H     0.60569   0.31010   0.95328   0.00000  Uiso   1.00
H102   H     0.61535   0.30996   0.20101   0.00000  Uiso   1.00
H103   H     0.57917   0.28285   0.10709   0.00000  Uiso   1.00
C104   C     0.43967   0.64610   0.26704   0.00000  Uiso   1.00
H105   H     0.46904   0.63099   0.38153   0.00000  Uiso   1.00
H106   H     0.45810   0.65045   0.13690   0.00000  Uiso   1.00
C107   C     0.39415   0.69596   0.32472   0.00000  Uiso   1.00
H108   H     0.36531   0.71093   0.21182   0.00000  Uiso   1.00
H109   H     0.37624   0.69094   0.45145   0.00000  Uiso   1.00
H110   H     0.40552   0.72474   0.35599   0.00000  Uiso   1.00
C111   C     0.90833   0.93521   0.87500   0.00000  Uiso   1.00
H112   H     0.87545   0.96637   0.95308   0.00000  Uiso   1.00
H113   H     0.90385   0.94568   0.72256   0.00000  Uiso   1.00
C114   C     0.91079   0.88444   0.90474   0.00000  Uiso   1.00
H115   H     0.94204   0.85417   0.82330   0.00000  Uiso   1.00
H116   H     0.91708   0.87340   0.05438   0.00000  Uiso   1.00
H117   H     0.87507   0.88609   0.85947   0.00000  Uiso   1.00
C118   C     0.06546   0.06711   0.82717   0.00000  Uiso   1.00
H119   H     0.07265   0.05659   0.97959   0.00000  Uiso   1.00
H120   H     0.09614   0.03541   0.74314   0.00000  Uiso   1.00
C121   C     0.06396   0.11713   0.78947   0.00000  Uiso   1.00
H122   H     0.05613   0.12769   0.63968   0.00000  Uiso   1.00
H123   H     0.03405   0.14808   0.87317   0.00000  Uiso   1.00
H124   H     0.10056   0.11468   0.82637   0.00000  Uiso   1.00
C125   C     0.85904   0.58397   0.66970   0.00000  Uiso   1.00
H126   H     0.84612   0.60783   0.80058   0.00000  Uiso   1.00
H127   H     0.87984   0.59839   0.58153   0.00000  Uiso   1.00
C128   C     0.81504   0.58560   0.56111   0.00000  Uiso   1.00
H129   H     0.82827   0.56249   0.43182   0.00000  Uiso   1.00
H130   H     0.79481   0.57085   0.64632   0.00000  Uiso   1.00
H131   H     0.78754   0.62492   0.51986   0.00000  Uiso   1.00
C132   C     0.12868   0.40850   0.99766   0.00000  Uiso   1.00
H133   H     0.10895   0.39430   0.09228   0.00000  Uiso   1.00
H134   H     0.13898   0.38531   0.86505   0.00000  Uiso   1.00
C135   C     0.17474   0.40568   0.09433   0.00000  Uiso   1.00
H136   H     0.19563   0.41751   0.99896   0.00000  Uiso   1.00
H137   H     0.16344   0.43077   0.21895   0.00000  Uiso   1.00
H138   H     0.20106   0.36651   0.14085   0.00000  Uiso   1.00
C139   C     0.87046   0.30192   0.34939   0.00000  Uiso   1.00
C140   C     0.77880   0.32724   0.44420   0.00000  Uiso   1.00
C141   C     0.80641   0.39561   0.43014   0.00000  Uiso   1.00
O142   O     0.91440   0.26911   0.29940   0.00000  Uiso   1.00
O143   O     0.74499   0.31511   0.46859   0.00000  Uiso   1.00
O144   O     0.79610   0.44106   0.45052   0.00000  Uiso   1.00
C145   C     0.85756   0.35571   0.37090   0.00000  Uiso   1.00
C146   C     0.83056   0.28847   0.38709   0.00000  Uiso   1.00
C147   C     0.76786   0.38036   0.47022   0.00000  Uiso   1.00
C148   C     0.89678   0.36673   0.34391   0.00000  Uiso   1.00
H149   H     0.93572   0.33581   0.31184   0.00000  Uiso   1.00
C150   C     0.72034   0.41814   0.53422   0.00000  Uiso   1.00
H151   H     0.71256   0.45776   0.55315   0.00000  Uiso   1.00
C152   C     0.84132   0.23772   0.37714   0.00000  Uiso   1.00
H153   H     0.81189   0.22754   0.41425   0.00000  Uiso   1.00
N154   N     0.88921   0.41473   0.35378   0.00000  Uiso   1.00
H155   H     0.85263   0.44387   0.39522   0.00000  Uiso   1.00
N156   N     0.68350   0.40756   0.58352   0.00000  Uiso   1.00
N157   N     0.07794   0.86434   0.42881   0.00000  Uiso   1.00
H158   H     0.69000   0.37008   0.56053   0.00000  Uiso   1.00
H159   H     0.09731   0.86914   0.31447   0.00000  Uiso   1.00
C160   C     0.16973   0.62191   0.61599   0.00000  Uiso   1.00
C161   C     0.10413   0.71534   0.54323   0.00000  Uiso   1.00
C162   C     0.19710   0.69055   0.61866   0.00000  Uiso   1.00
O163   O     0.18100   0.57623   0.63688   0.00000  Uiso   1.00
O164   O     0.05886   0.74840   0.50842   0.00000  Uiso   1.00
O165   O     0.23101   0.70287   0.63568   0.00000  Uiso   1.00
C166   C     0.20828   0.63761   0.64948   0.00000  Uiso   1.00
C167   C     0.11816   0.66129   0.55931   0.00000  Uiso   1.00
C168   C     0.14472   0.72890   0.56433   0.00000  Uiso   1.00
C169   C     0.25730   0.59908   0.69493   0.00000  Uiso   1.00
H170   H     0.26538   0.55930   0.71061   0.00000  Uiso   1.00
C171   C     0.13530   0.77816   0.52451   0.00000  Uiso   1.00
H172   H     0.16624   0.78772   0.53386   0.00000  Uiso   1.00
C173   C     0.08105   0.64817   0.51266   0.00000  Uiso   1.00
H174   H     0.04216   0.67789   0.47268   0.00000  Uiso   1.00
N175   N     0.29564   0.60890   0.72762   0.00000  Uiso   1.00
H176   H     0.28926   0.64608   0.69946   0.00000  Uiso   1.00
N177   N     0.08913   0.81483   0.46667   0.00000  Uiso   1.00
N178   N     0.09123   0.59950   0.51233   0.00000  Uiso   1.00
H179   H     0.05928   0.80591   0.46008   0.00000  Uiso   1.00
H180   H     0.12854   0.57031   0.54530   0.00000  Uiso   1.00
C181   C     0.02814   0.90108   0.46596   0.00000  Uiso   1.00
O182   O     0.00028   0.88889   0.55581   0.00000  Uiso   1.00
C183   C     0.00933   0.95492   0.40468   0.00000  Uiso   1.00
C184   C     0.04157   0.97667   0.39148   0.00000  Uiso   1.00
C185   C     0.95688   0.98550   0.36640   0.00000  Uiso   1.00
C186   C     0.02140   0.02837   0.34462   0.00000  Uiso   1.00
C187   C     0.93684   0.03703   0.31770   0.00000  Uiso   1.00
H188   H     0.93263   0.96778   0.37413   0.00000  Uiso   1.00
C189   C     0.96884   0.05915   0.31114   0.00000  Uiso   1.00
H190   H     0.04554   0.04622   0.33908   0.00000  Uiso   1.00
C191   C     0.94878   0.11445   0.27039   0.00000  Uiso   1.00
O192   O     0.97400   0.12959   0.17764   0.00000  Uiso   1.00
N193   N     0.90103   0.14909   0.33517   0.00000  Uiso   1.00
N194   N     0.88742   0.20005   0.32590   0.00000  Uiso   1.00
H195   H     0.88250   0.13920   0.43830   0.00000  Uiso   1.00
H196   H     0.91612   0.20937   0.29311   0.00000  Uiso   1.00
N197   N     0.34570   0.57018   0.74403   0.00000  Uiso   1.00
N198   N     0.93011   0.42358   0.35753   0.00000  Uiso   1.00
H199   H     0.35306   0.54196   0.84506   0.00000  Uiso   1.00
H200   H     0.95831   0.40317   0.45900   0.00000  Uiso   1.00
C201   C     0.38193   0.58216   0.68516   0.00000  Uiso   1.00
C202   C     0.92292   0.46892   0.28512   0.00000  Uiso   1.00
O203   O     0.36794   0.62429   0.60802   0.00000  Uiso   1.00
O204   O     0.88323   0.49710   0.19320   0.00000  Uiso   1.00
C205   C     0.96281   0.48396   0.31650   0.00000  Uiso   1.00
C206   C     0.01427   0.44949   0.36574   0.00000  Uiso   1.00
C207   C     0.94742   0.53597   0.29273   0.00000  Uiso   1.00
C208   C     0.04844   0.46766   0.40094   0.00000  Uiso   1.00
C209   C     0.98174   0.55401   0.32547   0.00000  Uiso   1.00
H210   H     0.90784   0.56144   0.24817   0.00000  Uiso   1.00
C211   C     0.03247   0.51993   0.38423   0.00000  Uiso   1.00
H212   H     0.08826   0.44191   0.44186   0.00000  Uiso   1.00
C213   C     0.43718   0.54304   0.69420   0.00000  Uiso   1.00
C214   C     0.45455   0.49035   0.66675   0.00000  Uiso   1.00
C215   C     0.47280   0.56039   0.69611   0.00000  Uiso   1.00
C216   C     0.50666   0.45596   0.64183   0.00000  Uiso   1.00
C217   C     0.52488   0.52615   0.66862   0.00000  Uiso   1.00
H218   H     0.45826   0.60153   0.71289   0.00000  Uiso   1.00
C219   C     0.54229   0.47342   0.64072   0.00000  Uiso   1.00
H220   H     0.52097   0.41504   0.61905   0.00000  Uiso   1.00
C221   C     0.59584   0.43575   0.58806   0.00000  Uiso   1.00
C222   C     0.07143   0.53639   0.41516   0.00000  Uiso   1.00
O223   O     0.60527   0.39717   0.49195   0.00000  Uiso   1.00
O224   O     0.11756   0.50663   0.38924   0.00000  Uiso   1.00
N225   N     0.63503   0.44497   0.63457   0.00000  Uiso   1.00
N226   N     0.05441   0.58659   0.46516   0.00000  Uiso   1.00
H227   H     0.01990   0.60740   0.53670   0.00000  Uiso   1.00
H228   H     0.63208   0.46953   0.74451   0.00000  Uiso   1.00
O229   O     0.02809   0.39802   0.36646   0.00000  Uiso   1.00
O230   O     0.97000   0.60452   0.30243   0.00000  Uiso   1.00
O231   O     0.88645   0.06948   0.26384   0.00000  Uiso   1.00
O232   O     0.09250   0.94484   0.44099   0.00000  Uiso   1.00
O233   O     0.41649   0.47688   0.66099   0.00000  Uiso   1.00
O234   O     0.56143   0.54145   0.65235   0.00000  Uiso   1.00
C235   C     0.92145   0.64130   0.21566   0.00000  Uiso   1.00
H236   H     0.91419   0.62449   0.08661   0.00000  Uiso   1.00
H237   H     0.88977   0.65040   0.31728   0.00000  Uiso   1.00
C238   C     0.92554   0.68794   0.16813   0.00000  Uiso   1.00
H239   H     0.93376   0.70387   0.29477   0.00000  Uiso   1.00
H240   H     0.95612   0.67869   0.06565   0.00000  Uiso   1.00
H241   H     0.88971   0.71771   0.10598   0.00000  Uiso   1.00
C242   C     0.07749   0.36061   0.44571   0.00000  Uiso   1.00
H243   H     0.10900   0.35898   0.35776   0.00000  Uiso   1.00
H244   H     0.08171   0.37232   0.59128   0.00000  Uiso   1.00
C245   C     0.07892   0.30984   0.44619   0.00000  Uiso   1.00
H246   H     0.04821   0.31138   0.53356   0.00000  Uiso   1.00
H247   H     0.07448   0.29857   0.30258   0.00000  Uiso   1.00
H248   H     0.11543   0.27989   0.50320   0.00000  Uiso   1.00
C249   C     0.84797   0.05480   0.30474   0.00000  Uiso   1.00
H250   H     0.85508   0.02094   0.21712   0.00000  Uiso   1.00
H251   H     0.85042   0.04403   0.45656   0.00000  Uiso   1.00
C252   C     0.79689   0.10035   0.25805   0.00000  Uiso   1.00
H253   H     0.79005   0.13349   0.34434   0.00000  Uiso   1.00
H254   H     0.79490   0.11109   0.10880   0.00000  Uiso   1.00
H255   H     0.76583   0.09204   0.28470   0.00000  Uiso   1.00
C256   C     0.13030   0.95792   0.37229   0.00000  Uiso   1.00
H257   H     0.12431   0.96652   0.21815   0.00000  Uiso   1.00
H258   H     0.12569   0.99282   0.44661   0.00000  Uiso   1.00
C259   C     0.18216   0.91268   0.41151   0.00000  Uiso   1.00
H260   H     0.18746   0.90385   0.56318   0.00000  Uiso   1.00
H261   H     0.18705   0.87862   0.33631   0.00000  Uiso   1.00
H262   H     0.21250   0.92039   0.36573   0.00000  Uiso   1.00
C263   C     0.42790   0.42754   0.58120   0.00000  Uiso   1.00
H264   H     0.45515   0.41737   0.46166   0.00000  Uiso   1.00
H265   H     0.44657   0.39744   0.69194   0.00000  Uiso   1.00
C266   C     0.37799   0.43246   0.51486   0.00000  Uiso   1.00
H267   H     0.35083   0.44301   0.63186   0.00000  Uiso   1.00
H268   H     0.36037   0.46190   0.40529   0.00000  Uiso   1.00
H269   H     0.38381   0.39631   0.45464   0.00000  Uiso   1.00
C270   C     0.54942   0.59169   0.72515   0.00000  Uiso   1.00
H271   H     0.52019   0.62220   0.63221   0.00000  Uiso   1.00
H272   H     0.53302   0.59706   0.86969   0.00000  Uiso   1.00
C273   C     0.59837   0.59387   0.72757   0.00000  Uiso   1.00
H274   H     0.62683   0.56442   0.82058   0.00000  Uiso   1.00
H275   H     0.61478   0.58801   0.58539   0.00000  Uiso   1.00
H276   H     0.59151   0.63120   0.77899   0.00000  Uiso   1.00
loop_
_geom_bond_atom_site_label_1
_geom_bond_atom_site_label_2
_geom_bond_distance
_geom_bond_site_symmetry_2
_ccdc_geom_bond_type
C1     O4      1.254   .     D
C1     C7      1.475   .     S
C1     C8      1.473   .     S
C2     O5      1.255   .     D
C2     C8      1.473   .     S
C2     C9      1.473   .     S
C3     O6      1.251   .     D
C3     C7      1.478   .     S
C3     C9      1.476   .     S
C7     C10     1.395   .     D
C8     C14     1.396   1_554 D
C9     C12     1.398   .     D
C10    H11     1.105   .     S
C10    N16     1.348   .     S
C12    H13     1.105   .     S
C12    N18     1.344   .     S
C14    C8      1.396   1_556 D
C14    H15     1.105   .     S
C14    N56     1.344   .     S
N16    H17     1.059   .     S
N16    N60     1.387   .     S
N18    H20     1.059   1_554 S
N18    N87     1.381   1_554 S
N19    H21     1.051   .     S
N19    N39     1.384   .     S
N19    C43     1.375   .     S
H20    N18     1.059   1_556 S
C22    O25     1.255   .     D
C22    C28     1.472   .     S
C22    C29     1.475   .     S
C23    O26     1.254   .     D
C23    C29     1.473   .     S
C23    C30     1.475   .     S
C24    O27     1.253   .     D
C24    C28     1.471   .     S
C24    C30     1.475   .     S
C28    C31     1.399   .     D
C29    C35     1.397   1_556 D
C30    C33     1.391   .     D
C31    H32     1.105   .     S
C31    N37     1.340   .     S
C33    H34     1.105   .     S
C33    N39     1.349   .     S
C35    C29     1.397   1_554 D
C35    H36     1.105   .     S
C35    N40     1.343   .     S
N37    H38     1.060   .     S
N37    N59     1.383   .     S
N39    H41     1.060   .     S
N40    H42     1.059   .     S
N40    N88     1.384   .     S
C43    O44     1.249   .     D
C43    C45     1.498   .     S
C45    C46     1.418   1_655 D
C45    C47     1.406   .     S
C46    C45     1.418   1_455 D
C46    C48     1.405   1_545 S
C46    O94     1.396   .     S
C47    C49     1.405   1_545 D
C47    H50     1.099   .     S
C48    C46     1.405   1_565 S
C48    C51     1.407   .     D
C48    H52     1.099   .     S
C49    C47     1.405   1_565 D
C49    C51     1.419   1_655 S
C49    O93     1.396   .     S
C51    C49     1.419   1_455 S
C51    C53     1.496   .     S
C53    O54     1.251   1_556 D
C53    N55     1.376   .     S
O54    C53     1.251   1_554 D
N55    N56     1.382   .     S
N55    H57     1.047   .     S
N56    H58     1.058   1_556 S
H58    N56     1.058   1_554 S
N59    H61     1.051   .     S
N59    C63     1.377   .     S
N60    H62     1.047   .     S
N60    C64     1.377   .     S
C63    O65     1.248   .     D
C63    C75     1.498   .     S
C64    O66     1.253   .     D
C64    C67     1.494   .     S
C67    C68     1.420   .     D
C67    C69     1.409   .     S
C68    C70     1.407   .     S
C68    O91     1.390   .     S
C69    C71     1.403   .     D
C69    H72     1.099   .     S
C70    C73     1.407   .     D
C70    H74     1.099   .     S
C71    C73     1.418   .     S
C71    O92     1.393   .     S
C73    C84     1.497   .     S
C75    C76     1.418   .     S
C75    C77     1.407   1_655 D
C76    C78     1.403   .     D
C76    O95     1.392   .     S
C77    C75     1.407   1_455 D
C77    C79     1.406   .     S
C77    H80     1.098   .     S
C78    C81     1.411   1_655 S
C78    H82     1.099   .     S
C79    C81     1.419   .     D
C79    O96     1.395   .     S
C81    C78     1.411   1_455 S
C81    C83     1.495   .     S
C83    O85     1.254   .     D
C83    N87     1.373   .     S
C84    O86     1.246   .     D
C84    N88     1.382   .     S
N87    N18     1.381   1_556 S
N87    H90     1.037   1_556 S
N88    H89     1.051   .     S
H90    N87     1.037   1_554 S
O91    C104    1.462   .     S
O92    C97     1.461   .     S
O93    C111    1.464   .     S
O94    C118    1.462   .     S
O95    C125    1.463   .     S
O96    C132    1.464   .     S
C97    H98     1.117   .     S
C97    H99     1.120   1_554 S
C97    C100    1.510   .     S
H99    C97     1.120   1_556 S
C100   H101    1.099   1_554 S
C100   H102    1.099   .     S
C100   H103    1.100   .     S
H101   C100    1.099   1_556 S
C104   H105    1.116   .     S
C104   H106    1.120   .     S
C104   C107    1.509   .     S
C107   H108    1.099   .     S
C107   H109    1.099   .     S
C107   H110    1.099   .     S
C111   H112    1.120   .     S
C111   H113    1.115   .     S
C111   C114    1.510   .     S
C114   H115    1.099   .     S
C114   H116    1.099   1_556 S
C114   H117    1.099   .     S
H116   C114    1.099   1_554 S
C118   H119    1.116   .     S
C118   H120    1.120   .     S
C118   C121    1.510   .     S
C121   H122    1.099   .     S
C121   H123    1.099   .     S
C121   H124    1.099   .     S
C125   H126    1.118   .     S
C125   H127    1.117   .     S
C125   C128    1.509   .     S
C128   H129    1.099   .     S
C128   H130    1.099   .     S
C128   H131    1.099   .     S
C132   H133    1.115   1_556 S
C132   H134    1.119   .     S
C132   C135    1.509   1_556 S
H133   C132    1.115   1_554 S
C135   C132    1.509   1_554 S
C135   H136    1.099   1_554 S
C135   H137    1.100   .     S
C135   H138    1.099   .     S
H136   C135    1.099   1_556 S
C139   O142    1.253   .     D
C139   C145    1.476   .     S
C139   C146    1.472   .     S
C140   O143    1.254   .     D
C140   C146    1.473   .     S
C140   C147    1.477   .     S
C141   O144    1.254   .     D
C141   C145    1.475   .     S
C141   C147    1.474   .     S
C145   C148    1.391   .     D
C146   C152    1.400   .     D
C147   C150    1.396   .     D
C148   H149    1.105   .     S
C148   N154    1.350   .     S
C150   H151    1.105   .     S
C150   N156    1.346   .     S
C152   H153    1.105   .     S
C152   N194    1.342   .     S
N154   H155    1.059   .     S
N154   N198    1.384   .     S
N156   H158    1.059   .     S
N156   N225    1.384   .     S
N157   H159    1.052   .     S
N157   N177    1.385   .     S
N157   C181    1.383   .     S
C160   O163    1.254   .     D
C160   C166    1.472   .     S
C160   C167    1.472   .     S
C161   O164    1.255   .     D
C161   C167    1.472   .     S
C161   C168    1.475   .     S
C162   O165    1.253   .     D
C162   C166    1.476   .     S
C162   C168    1.475   .     S
C166   C169    1.394   .     D
C167   C173    1.395   .     D
C168   C171    1.397   .     D
C169   H170    1.105   .     S
C169   N175    1.345   .     S
C171   H172    1.105   .     S
C171   N177    1.345   .     S
C173   H174    1.105   .     S
C173   N178    1.342   .     S
N175   H176    1.059   .     S
N175   N197    1.384   .     S
N177   H179    1.059   .     S
N178   H180    1.057   .     S
N178   N226    1.384   .     S
C181   O182    1.248   .     D
C181   C183    1.496   .     S
C183   C184    1.418   .     D
C183   C185    1.409   1_455 S
C184   C186    1.405   1_565 S
C184   O232    1.395   .     S
C185   C183    1.409   1_655 S
C185   C187    1.404   1_565 D
C185   H188    1.099   .     S
C186   C184    1.405   1_545 S
C186   C189    1.406   1_455 D
C186   H190    1.098   .     S
C187   C185    1.404   1_545 D
C187   C189    1.418   .     S
C187   O231    1.394   .     S
C189   C186    1.406   1_655 D
C189   C191    1.495   .     S
C191   O192    1.252   .     D
C191   N193    1.377   .     S
N193   N194    1.382   .     S
N193   H195    1.051   .     S
N194   H196    1.060   .     S
N197   H199    1.049   .     S
N197   C201    1.375   .     S
N198   H200    1.048   .     S
N198   C202    1.374   .     S
C201   O203    1.250   .     D
C201   C213    1.494   .     S
C202   O204    1.253   .     D
C202   C205    1.495   .     S
C205   C206    1.420   1_655 D
C205   C207    1.409   .     S
C206   C205    1.420   1_455 D
C206   C208    1.405   .     S
C206   O229    1.394   .     S
C207   C209    1.403   .     D
C207   H210    1.099   .     S
C208   C211    1.407   .     D
C208   H212    1.099   .     S
C209   C211    1.420   1_655 S
C209   O230    1.392   .     S
C211   C209    1.420   1_455 S
C211   C222    1.498   .     S
C213   C214    1.419   .     S
C213   C215    1.407   .     D
C214   C216    1.404   .     D
C214   O233    1.393   .     S
C215   C217    1.405   .     S
C215   H218    1.099   .     S
C216   C219    1.410   .     S
C216   H220    1.099   .     S
C217   C219    1.420   .     D
C217   O234    1.394   .     S
C219   C221    1.494   .     S
C221   O223    1.251   .     D
C221   N225    1.378   .     S
C222   O224    1.243   .     D
C222   N226    1.382   .     S
N225   H228    1.045   .     S
N226   H227    1.045   .     S
O229   C242    1.465   .     S
O230   C235    1.465   .     S
O231   C249    1.461   .     S
O232   C256    1.463   .     S
O233   C263    1.463   .     S
O234   C270    1.464   .     S
C235   H236    1.115   .     S
C235   H237    1.120   .     S
C235   C238    1.509   .     S
C238   H239    1.099   .     S
C238   H240    1.099   .     S
C238   H241    1.099   .     S
C242   H243    1.119   .     S
C242   H244    1.115   .     S
C242   C245    1.509   .     S
C245   H246    1.098   .     S
C245   H247    1.099   .     S
C245   H248    1.099   .     S
C249   H250    1.119   .     S
C249   H251    1.116   .     S
C249   C252    1.510   .     S
C252   H253    1.099   .     S
C252   H254    1.099   .     S
C252   H255    1.099   .     S
C256   H257    1.116   .     S
C256   H258    1.120   .     S
C256   C259    1.509   .     S
C259   H260    1.099   .     S
C259   H261    1.098   .     S
C259   H262    1.099   .     S
C263   H264    1.115   .     S
C263   H265    1.119   .     S
C263   C266    1.510   .     S
C266   H267    1.099   .     S
C266   H268    1.099   .     S
C266   H269    1.099   .     S
C270   H271    1.120   .     S
C270   H272    1.115   .     S
C270   C273    1.509   .     S
C273   H274    1.098   .     S
C273   H275    1.099   .     S
C273   H276    1.100   .     S
