data_333
_audit_creation_date              2023-09-08
_audit_creation_method            'Materials Studio'
_symmetry_space_group_name_H-M    'P1'
_symmetry_Int_Tables_number       1
_symmetry_cell_setting            triclinic
loop_
_symmetry_equiv_pos_as_xyz
  x,y,z
_cell_length_a                    30.9696
_cell_length_b                    30.9696
_cell_length_c                    3.6000
_cell_angle_alpha                 90.0000
_cell_angle_beta                  90.0000
_cell_angle_gamma                 120.0000
loop_
_atom_site_label
_atom_site_type_symbol
_atom_site_fract_x
_atom_site_fract_y
_atom_site_fract_z
_atom_site_U_iso_or_equiv
_atom_site_adp_type
_atom_site_occupancy
C1     C     0.29732   0.68484   0.00000   0.00000  Uiso   1.00
C2     C     0.27884   0.63031   0.00000   0.00000  Uiso   1.00
C3     C     0.40399   0.63407   0.00000   0.00000  Uiso   1.00
C4     C     0.41847   0.52050   0.00000   0.00000  Uiso   1.00
C5     C     0.45951   0.50902   0.00000   0.00000  Uiso   1.00
C6     C     0.50878   0.54865   0.00000   0.00000  Uiso   1.00
C7     C     0.54903   0.54019   0.00000   0.00000  Uiso   1.00
N8     N     0.39268   0.58315   0.00000   0.00000  Uiso   1.00
N9     N     0.42753   0.56867   0.00000   0.00000  Uiso   1.00
O10    O     0.37506   0.48711   0.00000   0.00000  Uiso   1.00
O11    O     0.43231   0.73214   0.00000   0.00000  Uiso   1.00
O12    O     0.40450   0.42032   0.00000   0.00000  Uiso   1.00
H13    H     0.44525   0.66348   0.00000   0.00000  Uiso   1.00
H14    H     0.36394   0.55979   0.00000   0.00000  Uiso   1.00
H15    H     0.45876   0.59482   0.00000   0.00000  Uiso   1.00
H16    H     0.51926   0.58737   0.00000   0.00000  Uiso   1.00
H17    H     0.94518   0.37393   0.00000   0.00000  Uiso   1.00
C18    C     0.31516   0.61248   0.00000   0.00000  Uiso   1.00
C19    C     0.36969   0.64853   0.00000   0.00000  Uiso   1.00
C20    C     0.36593   0.76992   0.00000   0.00000  Uiso   1.00
C21    C     0.47950   0.89797   0.00000   0.00000  Uiso   1.00
C22    C     0.49098   0.95049   0.00000   0.00000  Uiso   1.00
C23    C     0.45135   0.96013   0.00000   0.00000  Uiso   1.00
C24    C     0.45981   0.00884   0.00000   0.00000  Uiso   1.00
N25    N     0.41685   0.80953   0.00000   0.00000  Uiso   1.00
N26    N     0.43133   0.85886   0.00000   0.00000  Uiso   1.00
O27    O     0.51289   0.88795   0.00000   0.00000  Uiso   1.00
O28    O     0.26786   0.70017   0.00000   0.00000  Uiso   1.00
O29    O     0.57968   0.98418   0.00000   0.00000  Uiso   1.00
H30    H     0.33652   0.78177   0.00000   0.00000  Uiso   1.00
H31    H     0.44021   0.80415   0.00000   0.00000  Uiso   1.00
H32    H     0.40518   0.86394   0.00000   0.00000  Uiso   1.00
H33    H     0.41263   0.93189   0.00000   0.00000  Uiso   1.00
H34    H     0.62607   0.57125   0.00000   0.00000  Uiso   1.00
C35    C     0.38752   0.70268   0.00000   0.00000  Uiso   1.00
C36    C     0.35147   0.72116   0.00000   0.00000  Uiso   1.00
C37    C     0.23008   0.59601   0.00000   0.00000  Uiso   1.00
C38    C     0.10203   0.58153   0.00000   0.00000  Uiso   1.00
C39    C     0.04951   0.54049   0.00000   0.00000  Uiso   1.00
C40    C     0.03987   0.49122   0.00000   0.00000  Uiso   1.00
C41    C     0.99116   0.45097   0.00000   0.00000  Uiso   1.00
N42    N     0.19047   0.60732   0.00000   0.00000  Uiso   1.00
N43    N     0.14114   0.57247   0.00000   0.00000  Uiso   1.00
O44    O     0.11205   0.62494   0.00000   0.00000  Uiso   1.00
O45    O     0.29983   0.56769   0.00000   0.00000  Uiso   1.00
O46    O     0.01582   0.59550   0.00000   0.00000  Uiso   1.00
H47    H     0.21823   0.55475   0.00000   0.00000  Uiso   1.00
H48    H     0.19585   0.63606   0.00000   0.00000  Uiso   1.00
H49    H     0.13606   0.54124   0.00000   0.00000  Uiso   1.00
H50    H     0.06811   0.48074   0.00000   0.00000  Uiso   1.00
H51    H     0.42875   0.05482   0.00000   0.00000  Uiso   1.00
C52    C     0.70268   0.31516   0.00000   0.00000  Uiso   1.00
C53    C     0.72116   0.36969   0.00000   0.00000  Uiso   1.00
C54    C     0.59601   0.36593   0.00000   0.00000  Uiso   1.00
C55    C     0.58153   0.47950   0.00000   0.00000  Uiso   1.00
C56    C     0.54049   0.49098   0.00000   0.00000  Uiso   1.00
C57    C     0.49122   0.45135   0.00000   0.00000  Uiso   1.00
C58    C     0.45097   0.45981   0.00000   0.00000  Uiso   1.00
N59    N     0.60732   0.41685   0.00000   0.00000  Uiso   1.00
N60    N     0.57247   0.43133   0.00000   0.00000  Uiso   1.00
O61    O     0.62494   0.51289   0.00000   0.00000  Uiso   1.00
O62    O     0.56769   0.26786   0.00000   0.00000  Uiso   1.00
O63    O     0.59550   0.57968   0.00000   0.00000  Uiso   1.00
H64    H     0.55475   0.33652   0.00000   0.00000  Uiso   1.00
H65    H     0.63606   0.44021   0.00000   0.00000  Uiso   1.00
H66    H     0.54124   0.40518   0.00000   0.00000  Uiso   1.00
H67    H     0.48074   0.41263   0.00000   0.00000  Uiso   1.00
H68    H     0.05482   0.62607   0.00000   0.00000  Uiso   1.00
C69    C     0.68484   0.38752   0.00000   0.00000  Uiso   1.00
C70    C     0.63031   0.35147   0.00000   0.00000  Uiso   1.00
C71    C     0.63407   0.23008   0.00000   0.00000  Uiso   1.00
C72    C     0.52050   0.10203   0.00000   0.00000  Uiso   1.00
C73    C     0.50902   0.04951   0.00000   0.00000  Uiso   1.00
C74    C     0.54865   0.03987   0.00000   0.00000  Uiso   1.00
C75    C     0.54019   0.99116   0.00000   0.00000  Uiso   1.00
N76    N     0.58315   0.19047   0.00000   0.00000  Uiso   1.00
N77    N     0.56867   0.14114   0.00000   0.00000  Uiso   1.00
O78    O     0.48711   0.11205   0.00000   0.00000  Uiso   1.00
O79    O     0.73214   0.29983   0.00000   0.00000  Uiso   1.00
O80    O     0.42032   0.01582   0.00000   0.00000  Uiso   1.00
H81    H     0.66348   0.21823   0.00000   0.00000  Uiso   1.00
H82    H     0.55979   0.19585   0.00000   0.00000  Uiso   1.00
H83    H     0.59482   0.13606   0.00000   0.00000  Uiso   1.00
H84    H     0.58737   0.06811   0.00000   0.00000  Uiso   1.00
H85    H     0.37393   0.42875   0.00000   0.00000  Uiso   1.00
C86    C     0.61248   0.29732   0.00000   0.00000  Uiso   1.00
C87    C     0.64853   0.27884   0.00000   0.00000  Uiso   1.00
C88    C     0.76992   0.40399   0.00000   0.00000  Uiso   1.00
C89    C     0.89797   0.41847   0.00000   0.00000  Uiso   1.00
C90    C     0.95049   0.45951   0.00000   0.00000  Uiso   1.00
C91    C     0.96013   0.50878   0.00000   0.00000  Uiso   1.00
C92    C     0.00884   0.54903   0.00000   0.00000  Uiso   1.00
N93    N     0.80953   0.39268   0.00000   0.00000  Uiso   1.00
N94    N     0.85886   0.42753   0.00000   0.00000  Uiso   1.00
O95    O     0.88795   0.37506   0.00000   0.00000  Uiso   1.00
O96    O     0.70017   0.43231   0.00000   0.00000  Uiso   1.00
O97    O     0.98418   0.40450   0.00000   0.00000  Uiso   1.00
H98    H     0.78177   0.44525   0.00000   0.00000  Uiso   1.00
H99    H     0.80415   0.36394   0.00000   0.00000  Uiso   1.00
H100   H     0.86394   0.45876   0.00000   0.00000  Uiso   1.00
H101   H     0.93189   0.51926   0.00000   0.00000  Uiso   1.00
H102   H     0.57125   0.94518   0.00000   0.00000  Uiso   1.00
loop_
_geom_bond_atom_site_label_1
_geom_bond_atom_site_label_2
_geom_bond_distance
_geom_bond_site_symmetry_2
_ccdc_geom_bond_type
C1     C2      1.488   .     S
C1     O28     1.221   .     D
C1     C36     1.480   .     S
C2     C18     1.480   .     S
C2     C37     1.343   .     D
C3     N8      1.434   .     S
C3     H13     1.140   .     S
C3     C19     1.343   .     D
C4     C5      1.481   .     S
C4     N9      1.373   .     S
C4     O10     1.219   .     D
C5     C6      1.401   .     S
C5     C58     1.410   .     D
C6     C7      1.396   .     D
C6     H16     1.074   .     S
C7     C56     1.410   .     S
C7     O63     1.344   .     S
N8     N9      1.360   .     S
N8     H14     0.820   .     S
N9     H15     0.899   .     S
O11    C35     1.221   .     D
O12    C58     1.344   .     S
O12    H85     1.101   .     S
H17    O97     1.101   .     S
C18    C19     1.488   .     S
C18    O45     1.221   .     D
C19    C35     1.480   .     S
C20    N25     1.434   .     S
C20    H30     1.140   .     S
C20    C36     1.343   .     D
C21    C22     1.481   .     S
C21    N26     1.373   .     S
C21    O27     1.219   .     D
C22    C23     1.401   .     S
C22    C75     1.410   .     D
C23    C24     1.396   1_565 D
C23    H33     1.074   .     S
C24    C23     1.396   1_545 D
C24    C73     1.410   .     S
C24    O80     1.344   .     S
N25    N26     1.360   .     S
N25    H31     0.820   .     S
N26    H32     0.899   .     S
O29    C75     1.344   .     S
O29    H102    1.101   .     S
H34    O63     1.101   .     S
C35    C36     1.488   .     S
C37    N42     1.434   .     S
C37    H47     1.140   .     S
C38    C39     1.481   .     S
C38    N43     1.373   .     S
C38    O44     1.219   .     D
C39    C40     1.401   .     S
C39    C92     1.410   .     D
C40    C41     1.396   1_455 D
C40    H50     1.074   .     S
C41    C40     1.396   1_655 D
C41    C90     1.410   .     S
C41    O97     1.344   .     S
N42    N43     1.360   .     S
N42    H48     0.820   .     S
N43    H49     0.899   .     S
O46    H68     1.101   .     S
O46    C92     1.344   .     S
H51    O80     1.101   .     S
C52    C53     1.488   .     S
C52    O79     1.221   .     D
C52    C87     1.480   .     S
C53    C69     1.480   .     S
C53    C88     1.343   .     D
C54    N59     1.434   .     S
C54    H64     1.140   .     S
C54    C70     1.343   .     D
C55    C56     1.481   .     S
C55    N60     1.373   .     S
C55    O61     1.219   .     D
C56    C57     1.401   .     D
C57    C58     1.396   .     S
C57    H67     1.074   .     S
N59    N60     1.360   .     S
N59    H65     0.820   .     S
N60    H66     0.899   .     S
O62    C86     1.221   .     D
C69    C70     1.488   .     S
C69    O96     1.221   .     D
C70    C86     1.480   .     S
C71    N76     1.434   .     S
C71    H81     1.140   .     S
C71    C87     1.343   .     D
C72    C73     1.481   .     S
C72    N77     1.373   .     S
C72    O78     1.219   .     D
C73    C74     1.401   .     D
C74    C75     1.396   1_545 S
C74    H84     1.074   .     S
C75    C74     1.396   1_565 S
N76    N77     1.360   .     S
N76    H82     0.820   .     S
N77    H83     0.899   .     S
C86    C87     1.488   .     S
C88    N93     1.434   .     S
C88    H98     1.140   .     S
C89    C90     1.481   .     S
C89    N94     1.373   .     S
C89    O95     1.219   .     D
C90    C91     1.401   .     D
C91    C92     1.396   1_655 S
C91    H101    1.074   .     S
C92    C91     1.396   1_455 S
N93    N94     1.360   .     S
N93    H99     0.820   .     S
N94    H100    0.899   .     S
