data_334
_audit_creation_date              2023-09-08
_audit_creation_method            'Materials Studio'
_symmetry_space_group_name_H-M    'P1'
_symmetry_Int_Tables_number       1
_symmetry_cell_setting            triclinic
loop_
_symmetry_equiv_pos_as_xyz
  x,y,z
_cell_length_a                    30.9696
_cell_length_b                    30.9696
_cell_length_c                    3.6000
_cell_angle_alpha                 90.0000
_cell_angle_beta                  90.0000
_cell_angle_gamma                 120.0000
loop_
_atom_site_label
_atom_site_type_symbol
_atom_site_fract_x
_atom_site_fract_y
_atom_site_fract_z
_atom_site_U_iso_or_equiv
_atom_site_adp_type
_atom_site_occupancy
C1     C     0.29732   0.68484   0.00000   0.00000  Uiso   1.00
C2     C     0.27884   0.63031   0.00000   0.00000  Uiso   1.00
C3     C     0.40399   0.63407   0.00000   0.00000  Uiso   1.00
C4     C     0.41847   0.52050   0.00000   0.00000  Uiso   1.00
C5     C     0.45951   0.50902   0.00000   0.00000  Uiso   1.00
C6     C     0.50878   0.54865   0.00000   0.00000  Uiso   1.00
C7     C     0.54903   0.54019   0.00000   0.00000  Uiso   1.00
C8     C     0.70268   0.31516   0.00000   0.00000  Uiso   1.00
C9     C     0.72116   0.36969   0.00000   0.00000  Uiso   1.00
C10    C     0.59601   0.36593   0.00000   0.00000  Uiso   1.00
C11    C     0.58153   0.47950   0.00000   0.00000  Uiso   1.00
C12    C     0.54049   0.49098   0.00000   0.00000  Uiso   1.00
C13    C     0.49122   0.45135   0.00000   0.00000  Uiso   1.00
C14    C     0.45097   0.45981   0.00000   0.00000  Uiso   1.00
N15    N     0.39268   0.58315   0.00000   0.00000  Uiso   1.00
N16    N     0.42753   0.56867   0.00000   0.00000  Uiso   1.00
N17    N     0.60732   0.41685   0.00000   0.00000  Uiso   1.00
N18    N     0.57247   0.43133   0.00000   0.00000  Uiso   1.00
O19    O     0.37506   0.48711   0.00000   0.00000  Uiso   1.00
O20    O     0.43231   0.73214   0.00000   0.00000  Uiso   1.00
O21    O     0.52237   0.59535   0.00000   0.00000  Uiso   1.00
O22    O     0.62494   0.51289   0.00000   0.00000  Uiso   1.00
O23    O     0.56769   0.26786   0.00000   0.00000  Uiso   1.00
O24    O     0.59742   0.58103   0.00000   0.00000  Uiso   1.00
H25    H     0.41330   0.42838   0.00000   0.00000  Uiso   1.00
H26    H     0.44525   0.66348   0.00000   0.00000  Uiso   1.00
H27    H     0.36394   0.55979   0.00000   0.00000  Uiso   1.00
H28    H     0.45876   0.59482   0.00000   0.00000  Uiso   1.00
H29    H     0.55475   0.33652   0.00000   0.00000  Uiso   1.00
H30    H     0.63606   0.44021   0.00000   0.00000  Uiso   1.00
H31    H     0.54124   0.40518   0.00000   0.00000  Uiso   1.00
H32    H     0.48054   0.41259   0.00000   0.00000  Uiso   1.00
C33    C     0.31516   0.61248   0.00000   0.00000  Uiso   1.00
C34    C     0.36969   0.64853   0.00000   0.00000  Uiso   1.00
C35    C     0.36593   0.76992   0.00000   0.00000  Uiso   1.00
C36    C     0.47950   0.89797   0.00000   0.00000  Uiso   1.00
C37    C     0.49098   0.95049   0.00000   0.00000  Uiso   1.00
C38    C     0.45135   0.96013   0.00000   0.00000  Uiso   1.00
C39    C     0.45981   0.00884   0.00000   0.00000  Uiso   1.00
C40    C     0.68484   0.38752   0.00000   0.00000  Uiso   1.00
C41    C     0.63031   0.35147   0.00000   0.00000  Uiso   1.00
C42    C     0.63407   0.23008   0.00000   0.00000  Uiso   1.00
C43    C     0.52050   0.10203   0.00000   0.00000  Uiso   1.00
C44    C     0.50902   0.04951   0.00000   0.00000  Uiso   1.00
C45    C     0.54865   0.03987   0.00000   0.00000  Uiso   1.00
C46    C     0.54019   0.99116   0.00000   0.00000  Uiso   1.00
N47    N     0.41685   0.80953   0.00000   0.00000  Uiso   1.00
N48    N     0.43133   0.85886   0.00000   0.00000  Uiso   1.00
N49    N     0.58315   0.19047   0.00000   0.00000  Uiso   1.00
N50    N     0.56867   0.14114   0.00000   0.00000  Uiso   1.00
O51    O     0.51289   0.88795   0.00000   0.00000  Uiso   1.00
O52    O     0.26786   0.70017   0.00000   0.00000  Uiso   1.00
O53    O     0.40465   0.92702   0.00000   0.00000  Uiso   1.00
O54    O     0.48711   0.11205   0.00000   0.00000  Uiso   1.00
O55    O     0.73214   0.29983   0.00000   0.00000  Uiso   1.00
O56    O     0.41897   0.01639   0.00000   0.00000  Uiso   1.00
H57    H     0.57162   0.98492   0.00000   0.00000  Uiso   1.00
H58    H     0.33652   0.78177   0.00000   0.00000  Uiso   1.00
H59    H     0.44021   0.80415   0.00000   0.00000  Uiso   1.00
H60    H     0.40518   0.86394   0.00000   0.00000  Uiso   1.00
H61    H     0.66348   0.21823   0.00000   0.00000  Uiso   1.00
H62    H     0.55979   0.19585   0.00000   0.00000  Uiso   1.00
H63    H     0.59482   0.13606   0.00000   0.00000  Uiso   1.00
H64    H     0.58741   0.06795   0.00000   0.00000  Uiso   1.00
C65    C     0.38752   0.70268   0.00000   0.00000  Uiso   1.00
C66    C     0.35147   0.72116   0.00000   0.00000  Uiso   1.00
C67    C     0.23008   0.59601   0.00000   0.00000  Uiso   1.00
C68    C     0.10203   0.58153   0.00000   0.00000  Uiso   1.00
C69    C     0.04951   0.54049   0.00000   0.00000  Uiso   1.00
C70    C     0.03987   0.49122   0.00000   0.00000  Uiso   1.00
C71    C     0.99116   0.45097   0.00000   0.00000  Uiso   1.00
C72    C     0.61248   0.29732   0.00000   0.00000  Uiso   1.00
C73    C     0.64853   0.27884   0.00000   0.00000  Uiso   1.00
C74    C     0.76992   0.40399   0.00000   0.00000  Uiso   1.00
C75    C     0.89797   0.41847   0.00000   0.00000  Uiso   1.00
C76    C     0.95049   0.45951   0.00000   0.00000  Uiso   1.00
C77    C     0.96013   0.50878   0.00000   0.00000  Uiso   1.00
C78    C     0.00884   0.54903   0.00000   0.00000  Uiso   1.00
N79    N     0.19047   0.60732   0.00000   0.00000  Uiso   1.00
N80    N     0.14114   0.57247   0.00000   0.00000  Uiso   1.00
N81    N     0.80953   0.39268   0.00000   0.00000  Uiso   1.00
N82    N     0.85886   0.42753   0.00000   0.00000  Uiso   1.00
O83    O     0.11205   0.62494   0.00000   0.00000  Uiso   1.00
O84    O     0.29983   0.56769   0.00000   0.00000  Uiso   1.00
O85    O     0.07298   0.47763   0.00000   0.00000  Uiso   1.00
O86    O     0.88795   0.37506   0.00000   0.00000  Uiso   1.00
O87    O     0.70017   0.43231   0.00000   0.00000  Uiso   1.00
O88    O     0.98361   0.40258   0.00000   0.00000  Uiso   1.00
H89    H     0.01508   0.58670   0.00000   0.00000  Uiso   1.00
H90    H     0.21823   0.55475   0.00000   0.00000  Uiso   1.00
H91    H     0.19585   0.63606   0.00000   0.00000  Uiso   1.00
H92    H     0.13606   0.54124   0.00000   0.00000  Uiso   1.00
H93    H     0.78177   0.44525   0.00000   0.00000  Uiso   1.00
H94    H     0.80415   0.36394   0.00000   0.00000  Uiso   1.00
H95    H     0.86394   0.45876   0.00000   0.00000  Uiso   1.00
H96    H     0.93205   0.51946   0.00000   0.00000  Uiso   1.00
H97    H     0.94832   0.38033   0.00000   0.00000  Uiso   1.00
H98    H     0.06803   0.44386   0.00000   0.00000  Uiso   1.00
H99    H     0.61967   0.56799   0.00000   0.00000  Uiso   1.00
H100   H     0.55614   0.62417   0.00000   0.00000  Uiso   1.00
H101   H     0.43201   0.05168   0.00000   0.00000  Uiso   1.00
H102   H     0.37583   0.93197   0.00000   0.00000  Uiso   1.00
loop_
_geom_bond_atom_site_label_1
_geom_bond_atom_site_label_2
_geom_bond_distance
_geom_bond_site_symmetry_2
_ccdc_geom_bond_type
C1     C2      1.488   .     S
C1     O52     1.221   .     D
C1     C66     1.480   .     S
C2     C33     1.480   .     S
C2     C67     1.343   .     D
C3     N15     1.434   .     S
C3     H26     1.140   .     S
C3     C34     1.343   .     D
C4     C5      1.481   .     S
C4     N16     1.373   .     S
C4     O19     1.219   .     D
C5     C6      1.401   .     S
C5     C14     1.410   .     D
C6     C7      1.396   .     D
C6     O21     1.288   .     S
C7     C12     1.410   .     S
C7     O24     1.396   .     S
C8     C9      1.488   .     S
C8     O55     1.221   .     D
C8     C73     1.480   .     S
C9     C40     1.480   .     S
C9     C74     1.343   .     D
C10    N17     1.434   .     S
C10    H29     1.140   .     S
C10    C41     1.343   .     D
C11    C12     1.481   .     S
C11    N18     1.373   .     S
C11    O22     1.219   .     D
C12    C13     1.401   .     D
C13    C14     1.396   .     S
C13    H32     1.074   .     S
C14    H25     1.083   .     S
N15    N16     1.360   .     S
N15    H27     0.820   .     S
N16    H28     0.899   .     S
N17    N18     1.360   .     S
N17    H30     0.820   .     S
N18    H31     0.899   .     S
O20    C65     1.221   .     D
O21    H100    0.978   .     S
O23    C72     1.221   .     D
O24    H99     0.957   .     S
C33    C34     1.488   .     S
C33    O84     1.221   .     D
C34    C65     1.480   .     S
C35    N47     1.434   .     S
C35    H58     1.140   .     S
C35    C66     1.343   .     D
C36    C37     1.481   .     S
C36    N48     1.373   .     S
C36    O51     1.219   .     D
C37    C38     1.401   .     S
C37    C46     1.410   .     D
C38    C39     1.396   1_565 D
C38    O53     1.288   .     S
C39    C38     1.396   1_545 D
C39    C44     1.410   .     S
C39    O56     1.396   .     S
C40    C41     1.488   .     S
C40    O87     1.221   .     D
C41    C72     1.480   .     S
C42    N49     1.434   .     S
C42    H61     1.140   .     S
C42    C73     1.343   .     D
C43    C44     1.481   .     S
C43    N50     1.373   .     S
C43    O54     1.219   .     D
C44    C45     1.401   .     D
C45    C46     1.396   1_545 S
C45    H64     1.074   .     S
C46    C45     1.396   1_565 S
C46    H57     1.083   .     S
N47    N48     1.360   .     S
N47    H59     0.820   .     S
N48    H60     0.899   .     S
N49    N50     1.360   .     S
N49    H62     0.820   .     S
N50    H63     0.899   .     S
O53    H102    0.978   .     S
O56    H101    0.957   .     S
C65    C66     1.488   .     S
C67    N79     1.434   .     S
C67    H90     1.140   .     S
C68    C69     1.481   .     S
C68    N80     1.373   .     S
C68    O83     1.219   .     D
C69    C70     1.401   .     S
C69    C78     1.410   .     D
C70    C71     1.396   1_455 D
C70    O85     1.288   .     S
C71    C70     1.396   1_655 D
C71    C76     1.410   .     S
C71    O88     1.396   .     S
C72    C73     1.488   .     S
C74    N81     1.434   .     S
C74    H93     1.140   .     S
C75    C76     1.481   .     S
C75    N82     1.373   .     S
C75    O86     1.219   .     D
C76    C77     1.401   .     D
C77    C78     1.396   1_655 S
C77    H96     1.074   .     S
C78    C77     1.396   1_455 S
C78    H89     1.083   .     S
N79    N80     1.360   .     S
N79    H91     0.820   .     S
N80    H92     0.899   .     S
N81    N82     1.360   .     S
N81    H94     0.820   .     S
N82    H95     0.899   .     S
O85    H98     0.978   .     S
O88    H97     0.957   .     S
