data_335
_audit_creation_date              2023-09-08
_audit_creation_method            'Materials Studio'
_symmetry_space_group_name_H-M    'P1'
_symmetry_Int_Tables_number       1
_symmetry_cell_setting            triclinic
loop_
_symmetry_equiv_pos_as_xyz
  x,y,z
_cell_length_a                    23.1224
_cell_length_b                    23.1224
_cell_length_c                    5.3815
_cell_angle_alpha                 90.0000
_cell_angle_beta                  90.0000
_cell_angle_gamma                 120.0000
loop_
_atom_site_label
_atom_site_type_symbol
_atom_site_fract_x
_atom_site_fract_y
_atom_site_fract_z
_atom_site_U_iso_or_equiv
_atom_site_adp_type
_atom_site_occupancy
O1     O     0.68865   0.64705   0.72692   0.00000  Uiso   1.00
O2     O     0.35295   0.04160   0.72692   0.00000  Uiso   1.00
O3     O     0.95840   0.31135   0.72692   0.00000  Uiso   1.00
O4     O     0.68865   0.64705   0.27308   0.00000  Uiso   1.00
O5     O     0.35295   0.04160   0.27308   0.00000  Uiso   1.00
O6     O     0.95840   0.31135   0.27308   0.00000  Uiso   1.00
O7     O     0.30027   0.53955   0.50000   0.00000  Uiso   1.00
N8     N     0.42879   0.57054   0.50000   0.00000  Uiso   1.00
C9     C     0.31605   0.59832   0.50000   0.00000  Uiso   1.00
C10    C     0.38815   0.64838   0.50000   0.00000  Uiso   1.00
C11    C     0.43891   0.63407   0.50000   0.00000  Uiso   1.00
C12    C     0.47148   0.54322   0.50000   0.00000  Uiso   1.00
C13    C     0.44420   0.47384   0.50000   0.00000  Uiso   1.00
C14    C     0.54074   0.58267   0.50000   0.00000  Uiso   1.00
H15    H     0.38954   0.44068   0.50000   0.00000  Uiso   1.00
H16    H     0.49151   0.67300   0.50000   0.00000  Uiso   1.00
H17    H     0.56260   0.63736   0.50000   0.00000  Uiso   1.00
H18    H     0.38150   0.53197   0.50000   0.00000  Uiso   1.00
O19    O     0.71898   0.46395   0.50000   0.00000  Uiso   1.00
N20    N     0.59424   0.45318   0.50000   0.00000  Uiso   1.00
C21    C     0.69437   0.40362   0.50000   0.00000  Uiso   1.00
C22    C     0.62086   0.36308   0.50000   0.00000  Uiso   1.00
C23    C     0.57734   0.38712   0.50000   0.00000  Uiso   1.00
C24    C     0.55515   0.48527   0.50000   0.00000  Uiso   1.00
C25    C     0.58356   0.55581   0.50000   0.00000  Uiso   1.00
C26    C     0.48541   0.44582   0.50000   0.00000  Uiso   1.00
S27    S     0.67088   0.61180   0.50000   0.00000  Uiso   1.00
H28    H     0.52348   0.35275   0.50000   0.00000  Uiso   1.00
H29    H     0.46094   0.39092   0.50000   0.00000  Uiso   1.00
H30    H     0.64346   0.48816   0.50000   0.00000  Uiso   1.00
O31    O     0.70993   0.57363   0.50000   0.00000  Uiso   1.00
H32    H     0.75183   0.61356   0.50000   0.00000  Uiso   1.00
O33    O     0.46045   0.76072   0.50000   0.00000  Uiso   1.00
N34    N     0.42946   0.85825   0.50000   0.00000  Uiso   1.00
C35    C     0.40168   0.71773   0.50000   0.00000  Uiso   1.00
C36    C     0.35162   0.73977   0.50000   0.00000  Uiso   1.00
C37    C     0.36593   0.80484   0.50000   0.00000  Uiso   1.00
C38    C     0.45678   0.92826   0.50000   0.00000  Uiso   1.00
C39    C     0.52616   0.97036   0.50000   0.00000  Uiso   1.00
C40    C     0.41733   0.95807   0.50000   0.00000  Uiso   1.00
H41    H     0.55932   0.94886   0.50000   0.00000  Uiso   1.00
H42    H     0.32700   0.81851   0.50000   0.00000  Uiso   1.00
H43    H     0.36264   0.92524   0.50000   0.00000  Uiso   1.00
H44    H     0.46803   0.84953   0.50000   0.00000  Uiso   1.00
O45    O     0.53605   0.25503   0.50000   0.00000  Uiso   1.00
N46    N     0.54682   0.14106   0.50000   0.00000  Uiso   1.00
C47    C     0.59638   0.29075   0.50000   0.00000  Uiso   1.00
C48    C     0.63692   0.25778   0.50000   0.00000  Uiso   1.00
C49    C     0.61288   0.19022   0.50000   0.00000  Uiso   1.00
C50    C     0.51473   0.06988   0.50000   0.00000  Uiso   1.00
C51    C     0.44419   0.02775   0.50000   0.00000  Uiso   1.00
C52    C     0.55418   0.03959   0.50000   0.00000  Uiso   1.00
S53    S     0.38820   0.05908   0.50000   0.00000  Uiso   1.00
H54    H     0.64725   0.17073   0.50000   0.00000  Uiso   1.00
H55    H     0.60908   0.07002   0.50000   0.00000  Uiso   1.00
H56    H     0.51184   0.15530   0.50000   0.00000  Uiso   1.00
O57    O     0.42637   0.13630   0.50000   0.00000  Uiso   1.00
H58    H     0.38644   0.13827   0.50000   0.00000  Uiso   1.00
O59    O     0.23928   0.69973   0.50000   0.00000  Uiso   1.00
N60    N     0.14175   0.57121   0.50000   0.00000  Uiso   1.00
C61    C     0.28227   0.68395   0.50000   0.00000  Uiso   1.00
C62    C     0.26023   0.61185   0.50000   0.00000  Uiso   1.00
C63    C     0.19516   0.56109   0.50000   0.00000  Uiso   1.00
C64    C     0.07174   0.52852   0.50000   0.00000  Uiso   1.00
C65    C     0.02964   0.55580   0.50000   0.00000  Uiso   1.00
C66    C     0.04193   0.45926   0.50000   0.00000  Uiso   1.00
H67    H     0.05114   0.61046   0.50000   0.00000  Uiso   1.00
H68    H     0.18149   0.50849   0.50000   0.00000  Uiso   1.00
H69    H     0.07476   0.43740   0.50000   0.00000  Uiso   1.00
H70    H     0.15047   0.61850   0.50000   0.00000  Uiso   1.00
O71    O     0.74497   0.28102   0.50000   0.00000  Uiso   1.00
N72    N     0.85894   0.40576   0.50000   0.00000  Uiso   1.00
C73    C     0.70925   0.30563   0.50000   0.00000  Uiso   1.00
C74    C     0.74222   0.37914   0.50000   0.00000  Uiso   1.00
C75    C     0.80978   0.42266   0.50000   0.00000  Uiso   1.00
C76    C     0.93012   0.44485   0.50000   0.00000  Uiso   1.00
C77    C     0.97225   0.41644   0.50000   0.00000  Uiso   1.00
C78    C     0.96041   0.51459   0.50000   0.00000  Uiso   1.00
S79    S     0.94092   0.32912   0.50000   0.00000  Uiso   1.00
H80    H     0.82927   0.47652   0.50000   0.00000  Uiso   1.00
H81    H     0.92998   0.53906   0.50000   0.00000  Uiso   1.00
H82    H     0.84470   0.35654   0.50000   0.00000  Uiso   1.00
O83    O     0.86370   0.29007   0.50000   0.00000  Uiso   1.00
H84    H     0.86173   0.24817   0.50000   0.00000  Uiso   1.00
loop_
_geom_bond_atom_site_label_1
_geom_bond_atom_site_label_2
_geom_bond_distance
_geom_bond_site_symmetry_2
_ccdc_geom_bond_type
O1     S27     1.411   .     D
O2     S53     1.411   .     D
O3     S79     1.411   .     D
O4     S27     1.411   .     D
O5     S53     1.411   .     D
O6     S79     1.411   .     D
O7     C9      1.218   .     D
N8     C11     1.367   .     S
N8     C12     1.413   .     S
N8     H18     1.008   .     S
C9     C10     1.480   .     S
C9     C62     1.472   .     S
C10    C11     1.369   .     D
C10    C35     1.472   .     S
C11    H16     1.093   .     S
C12    C13     1.400   .     S
C12    C14     1.391   .     D
C13    H15     1.103   .     S
C13    C26     1.395   .     D
C14    H17     1.102   .     S
C14    C25     1.407   .     S
O19    C21     1.215   .     D
N20    C23     1.374   .     S
N20    C24     1.428   .     S
N20    H30     1.014   .     S
C21    C22     1.475   .     S
C21    C74     1.473   .     S
C22    C23     1.371   .     D
C22    C47     1.473   .     S
C23    H28     1.092   .     S
C24    C25     1.421   .     D
C24    C26     1.401   .     S
C25    S27     1.772   .     S
C26    H29     1.102   .     S
S27    O31     1.546   .     S
O31    H32     0.947   .     S
O33    C35     1.218   .     D
N34    C37     1.367   .     S
N34    C38     1.413   .     S
N34    H44     1.008   .     S
C35    C36     1.480   .     S
C36    C37     1.369   .     D
C36    C61     1.472   .     S
C37    H42     1.093   .     S
C38    C39     1.400   .     D
C38    C40     1.391   .     S
C39    H41     1.103   .     S
C39    C52     1.395   1_565 S
C40    H43     1.102   .     S
C40    C51     1.407   1_565 D
O45    C47     1.215   .     D
N46    C49     1.374   .     S
N46    C50     1.428   .     S
N46    H56     1.014   .     S
C47    C48     1.475   .     S
C48    C49     1.371   .     D
C48    C73     1.473   .     S
C49    H54     1.092   .     S
C50    C51     1.421   .     S
C50    C52     1.401   .     D
C51    C40     1.407   1_545 D
C51    S53     1.772   .     S
C52    C39     1.395   1_545 S
C52    H55     1.102   .     S
S53    O57     1.546   .     S
O57    H58     0.947   .     S
O59    C61     1.218   .     D
N60    C63     1.367   .     S
N60    C64     1.413   .     S
N60    H70     1.008   .     S
C61    C62     1.480   .     S
C62    C63     1.369   .     D
C63    H68     1.093   .     S
C64    C65     1.400   .     D
C64    C66     1.391   .     S
C65    H67     1.103   .     S
C65    C78     1.395   1_455 S
C66    H69     1.102   .     S
C66    C77     1.407   1_455 D
O71    C73     1.215   .     D
N72    C75     1.374   .     S
N72    C76     1.428   .     S
N72    H82     1.014   .     S
C73    C74     1.475   .     S
C74    C75     1.371   .     D
C75    H80     1.092   .     S
C76    C77     1.421   .     S
C76    C78     1.401   .     D
C77    C66     1.407   1_655 D
C77    S79     1.772   .     S
C78    C65     1.395   1_655 S
C78    H81     1.102   .     S
S79    O83     1.546   .     S
O83    H84     0.947   .     S
