data_336
_audit_creation_date              2023-09-08
_audit_creation_method            'Materials Studio'
_symmetry_space_group_name_H-M    'P1'
_symmetry_Int_Tables_number       1
_symmetry_cell_setting            triclinic
loop_
_symmetry_equiv_pos_as_xyz
  x,y,z
_cell_length_a                    39.9528
_cell_length_b                    32.9594
_cell_length_c                    6.7463
_cell_angle_alpha                 90.0000
_cell_angle_beta                  90.0000
_cell_angle_gamma                 90.0000
loop_
_atom_site_label
_atom_site_type_symbol
_atom_site_fract_x
_atom_site_fract_y
_atom_site_fract_z
_atom_site_U_iso_or_equiv
_atom_site_adp_type
_atom_site_occupancy
C1     C     0.24510   0.79160   0.50000   0.00000  Uiso   1.00
C2     C     0.74510   0.29160   0.50000   0.00000  Uiso   1.00
C3     C     0.75490   0.20840   0.50000   0.00000  Uiso   1.00
C4     C     0.25490   0.70840   0.50000   0.00000  Uiso   1.00
C5     C     0.75490   0.79160   0.50000   0.00000  Uiso   1.00
C6     C     0.25490   0.29160   0.50000   0.00000  Uiso   1.00
C7     C     0.24510   0.20840   0.50000   0.00000  Uiso   1.00
C8     C     0.74510   0.70840   0.50000   0.00000  Uiso   1.00
C9     C     0.28280   0.73382   0.50000   0.00000  Uiso   1.00
C10    C     0.78280   0.23382   0.50000   0.00000  Uiso   1.00
C11    C     0.71720   0.26618   0.50000   0.00000  Uiso   1.00
C12    C     0.21720   0.76618   0.50000   0.00000  Uiso   1.00
C13    C     0.71720   0.73382   0.50000   0.00000  Uiso   1.00
C14    C     0.21720   0.23382   0.50000   0.00000  Uiso   1.00
C15    C     0.28280   0.26618   0.50000   0.00000  Uiso   1.00
C16    C     0.78280   0.76618   0.50000   0.00000  Uiso   1.00
C17    C     0.19509   0.69180   0.50000   0.00000  Uiso   1.00
C18    C     0.69509   0.19180   0.50000   0.00000  Uiso   1.00
C19    C     0.80491   0.30820   0.50000   0.00000  Uiso   1.00
C20    C     0.30491   0.80820   0.50000   0.00000  Uiso   1.00
C21    C     0.80491   0.69180   0.50000   0.00000  Uiso   1.00
C22    C     0.30491   0.19180   0.50000   0.00000  Uiso   1.00
C23    C     0.19509   0.30820   0.50000   0.00000  Uiso   1.00
C24    C     0.69509   0.80820   0.50000   0.00000  Uiso   1.00
C25    C     0.27809   0.77673   0.50000   0.00000  Uiso   1.00
C26    C     0.77809   0.27673   0.50000   0.00000  Uiso   1.00
C27    C     0.72191   0.22327   0.50000   0.00000  Uiso   1.00
C28    C     0.22191   0.72327   0.50000   0.00000  Uiso   1.00
C29    C     0.72191   0.77673   0.50000   0.00000  Uiso   1.00
C30    C     0.22191   0.27673   0.50000   0.00000  Uiso   1.00
C31    C     0.27809   0.22327   0.50000   0.00000  Uiso   1.00
C32    C     0.77809   0.72327   0.50000   0.00000  Uiso   1.00
N33    N     0.33653   0.79965   0.50000   0.00000  Uiso   1.00
N34    N     0.83653   0.29965   0.50000   0.00000  Uiso   1.00
N35    N     0.66347   0.20035   0.50000   0.00000  Uiso   1.00
N36    N     0.16347   0.70035   0.50000   0.00000  Uiso   1.00
N37    N     0.66347   0.79965   0.50000   0.00000  Uiso   1.00
N38    N     0.16347   0.29965   0.50000   0.00000  Uiso   1.00
N39    N     0.33653   0.20035   0.50000   0.00000  Uiso   1.00
N40    N     0.83653   0.70035   0.50000   0.00000  Uiso   1.00
N41    N     0.05752   0.50000   0.50000   0.00000  Uiso   1.00
N42    N     0.55752   0.00000   0.50000   0.00000  Uiso   1.00
N43    N     0.94248   0.50000   0.50000   0.00000  Uiso   1.00
N44    N     0.44248   0.00000   0.50000   0.00000  Uiso   1.00
H45    H     0.03352   0.50000   0.50000   0.00000  Uiso   1.00
H46    H     0.53352   0.00000   0.50000   0.00000  Uiso   1.00
H47    H     0.96648   0.50000   0.50000   0.00000  Uiso   1.00
H48    H     0.46648   0.00000   0.50000   0.00000  Uiso   1.00
C49    C     0.07581   0.46595   0.50000   0.00000  Uiso   1.00
C50    C     0.57581   0.96595   0.50000   0.00000  Uiso   1.00
C51    C     0.92419   0.53405   0.50000   0.00000  Uiso   1.00
C52    C     0.42419   0.03405   0.50000   0.00000  Uiso   1.00
C53    C     0.92419   0.46595   0.50000   0.00000  Uiso   1.00
C54    C     0.42419   0.96595   0.50000   0.00000  Uiso   1.00
C55    C     0.07581   0.53405   0.50000   0.00000  Uiso   1.00
C56    C     0.57581   0.03405   0.50000   0.00000  Uiso   1.00
C57    C     0.10899   0.47868   0.50000   0.00000  Uiso   1.00
C58    C     0.60899   0.97868   0.50000   0.00000  Uiso   1.00
C59    C     0.89101   0.52132   0.50000   0.00000  Uiso   1.00
C60    C     0.39101   0.02132   0.50000   0.00000  Uiso   1.00
C61    C     0.89101   0.47868   0.50000   0.00000  Uiso   1.00
C62    C     0.39101   0.97868   0.50000   0.00000  Uiso   1.00
C63    C     0.10899   0.52132   0.50000   0.00000  Uiso   1.00
C64    C     0.60899   0.02132   0.50000   0.00000  Uiso   1.00
H65    H     0.13086   0.45935   0.50000   0.00000  Uiso   1.00
H66    H     0.63086   0.95935   0.50000   0.00000  Uiso   1.00
H67    H     0.86914   0.54065   0.50000   0.00000  Uiso   1.00
H68    H     0.36914   0.04065   0.50000   0.00000  Uiso   1.00
H69    H     0.86914   0.45935   0.50000   0.00000  Uiso   1.00
H70    H     0.36914   0.95935   0.50000   0.00000  Uiso   1.00
H71    H     0.13086   0.54065   0.50000   0.00000  Uiso   1.00
H72    H     0.63086   0.04065   0.50000   0.00000  Uiso   1.00
N73    N     0.50000   0.93240   0.50000   0.00000  Uiso   1.00
N74    N     0.00000   0.43240   0.50000   0.00000  Uiso   1.00
N75    N     0.50000   0.06761   0.50000   0.00000  Uiso   1.00
N76    N     0.00000   0.56760   0.50000   0.00000  Uiso   1.00
C77    C     0.52946   0.90856   0.50000   0.00000  Uiso   1.00
C78    C     0.02946   0.40856   0.50000   0.00000  Uiso   1.00
C79    C     0.47054   0.09144   0.50000   0.00000  Uiso   1.00
C80    C     0.97054   0.59144   0.50000   0.00000  Uiso   1.00
C81    C     0.47054   0.90856   0.50000   0.00000  Uiso   1.00
C82    C     0.97054   0.40856   0.50000   0.00000  Uiso   1.00
C83    C     0.52946   0.09144   0.50000   0.00000  Uiso   1.00
C84    C     0.02946   0.59144   0.50000   0.00000  Uiso   1.00
C85    C     0.51690   0.86645   0.50000   0.00000  Uiso   1.00
C86    C     0.01690   0.36645   0.50000   0.00000  Uiso   1.00
C87    C     0.48310   0.13355   0.50000   0.00000  Uiso   1.00
C88    C     0.98310   0.63355   0.50000   0.00000  Uiso   1.00
C89    C     0.48310   0.86645   0.50000   0.00000  Uiso   1.00
C90    C     0.98310   0.36645   0.50000   0.00000  Uiso   1.00
C91    C     0.51690   0.13355   0.50000   0.00000  Uiso   1.00
C92    C     0.01690   0.63355   0.50000   0.00000  Uiso   1.00
H93    H     0.53223   0.83940   0.50000   0.00000  Uiso   1.00
H94    H     0.03223   0.33940   0.50000   0.00000  Uiso   1.00
H95    H     0.46777   0.16060   0.50000   0.00000  Uiso   1.00
H96    H     0.96777   0.66060   0.50000   0.00000  Uiso   1.00
H97    H     0.46777   0.83940   0.50000   0.00000  Uiso   1.00
H98    H     0.96777   0.33940   0.50000   0.00000  Uiso   1.00
H99    H     0.53223   0.16060   0.50000   0.00000  Uiso   1.00
H100   H     0.03223   0.66060   0.50000   0.00000  Uiso   1.00
C101   C     0.06248   0.42197   0.50000   0.00000  Uiso   1.00
C102   C     0.56248   0.92197   0.50000   0.00000  Uiso   1.00
C103   C     0.93752   0.57803   0.50000   0.00000  Uiso   1.00
C104   C     0.43752   0.07803   0.50000   0.00000  Uiso   1.00
C105   C     0.93752   0.42197   0.50000   0.00000  Uiso   1.00
C106   C     0.43752   0.92197   0.50000   0.00000  Uiso   1.00
C107   C     0.06248   0.57803   0.50000   0.00000  Uiso   1.00
C108   C     0.56248   0.07803   0.50000   0.00000  Uiso   1.00
C109   C     0.08855   0.39035   0.50000   0.00000  Uiso   1.00
C110   C     0.58855   0.89035   0.50000   0.00000  Uiso   1.00
C111   C     0.91145   0.60965   0.50000   0.00000  Uiso   1.00
C112   C     0.41145   0.10965   0.50000   0.00000  Uiso   1.00
C113   C     0.91145   0.39035   0.50000   0.00000  Uiso   1.00
C114   C     0.41145   0.89035   0.50000   0.00000  Uiso   1.00
C115   C     0.08855   0.60965   0.50000   0.00000  Uiso   1.00
C116   C     0.58855   0.10965   0.50000   0.00000  Uiso   1.00
C117   C     0.60102   0.87529   0.67977   0.00000  Uiso   1.00
C118   C     0.10102   0.37529   0.67977   0.00000  Uiso   1.00
C119   C     0.39898   0.12471   0.67977   0.00000  Uiso   1.00
C120   C     0.89898   0.62471   0.67977   0.00000  Uiso   1.00
C121   C     0.39898   0.87529   0.32024   0.00000  Uiso   1.00
C122   C     0.89898   0.37529   0.32024   0.00000  Uiso   1.00
C123   C     0.60102   0.12471   0.32024   0.00000  Uiso   1.00
C124   C     0.10102   0.62471   0.32024   0.00000  Uiso   1.00
C125   C     0.39898   0.12471   0.32024   0.00000  Uiso   1.00
C126   C     0.89898   0.62471   0.32024   0.00000  Uiso   1.00
C127   C     0.60102   0.87529   0.32024   0.00000  Uiso   1.00
C128   C     0.10102   0.37529   0.32024   0.00000  Uiso   1.00
C129   C     0.60102   0.12471   0.67977   0.00000  Uiso   1.00
C130   C     0.10102   0.62471   0.67977   0.00000  Uiso   1.00
C131   C     0.39898   0.87529   0.67977   0.00000  Uiso   1.00
C132   C     0.89898   0.37529   0.67977   0.00000  Uiso   1.00
H133   H     0.09145   0.38675   0.81905   0.00000  Uiso   1.00
H134   H     0.59145   0.88675   0.81905   0.00000  Uiso   1.00
H135   H     0.90855   0.61325   0.81905   0.00000  Uiso   1.00
H136   H     0.40855   0.11325   0.81905   0.00000  Uiso   1.00
H137   H     0.90855   0.38675   0.18095   0.00000  Uiso   1.00
H138   H     0.40855   0.88675   0.18095   0.00000  Uiso   1.00
H139   H     0.09145   0.61325   0.18095   0.00000  Uiso   1.00
H140   H     0.59145   0.11325   0.18095   0.00000  Uiso   1.00
H141   H     0.90855   0.61325   0.18095   0.00000  Uiso   1.00
H142   H     0.40855   0.11325   0.18095   0.00000  Uiso   1.00
H143   H     0.09145   0.38675   0.18095   0.00000  Uiso   1.00
H144   H     0.59145   0.88675   0.18095   0.00000  Uiso   1.00
H145   H     0.09145   0.61325   0.81905   0.00000  Uiso   1.00
H146   H     0.59145   0.11325   0.81905   0.00000  Uiso   1.00
H147   H     0.90855   0.38675   0.81905   0.00000  Uiso   1.00
H148   H     0.40855   0.88675   0.81905   0.00000  Uiso   1.00
C149   C     0.12581   0.34529   0.67939   0.00000  Uiso   1.00
C150   C     0.62581   0.84529   0.67939   0.00000  Uiso   1.00
C151   C     0.87419   0.65471   0.67939   0.00000  Uiso   1.00
C152   C     0.37419   0.15471   0.67939   0.00000  Uiso   1.00
C153   C     0.87419   0.34529   0.32061   0.00000  Uiso   1.00
C154   C     0.37419   0.84529   0.32061   0.00000  Uiso   1.00
C155   C     0.12581   0.65471   0.32061   0.00000  Uiso   1.00
C156   C     0.62581   0.15471   0.32061   0.00000  Uiso   1.00
C157   C     0.87419   0.65471   0.32061   0.00000  Uiso   1.00
C158   C     0.37419   0.15471   0.32061   0.00000  Uiso   1.00
C159   C     0.12581   0.34529   0.32061   0.00000  Uiso   1.00
C160   C     0.62581   0.84529   0.32061   0.00000  Uiso   1.00
C161   C     0.12581   0.65471   0.67939   0.00000  Uiso   1.00
C162   C     0.62581   0.15471   0.67939   0.00000  Uiso   1.00
C163   C     0.87419   0.34529   0.67939   0.00000  Uiso   1.00
C164   C     0.37419   0.84529   0.67939   0.00000  Uiso   1.00
H165   H     0.13543   0.33339   0.81739   0.00000  Uiso   1.00
H166   H     0.63543   0.83339   0.81739   0.00000  Uiso   1.00
H167   H     0.86457   0.66661   0.81739   0.00000  Uiso   1.00
H168   H     0.36457   0.16661   0.81739   0.00000  Uiso   1.00
H169   H     0.86457   0.33339   0.18261   0.00000  Uiso   1.00
H170   H     0.36457   0.83339   0.18261   0.00000  Uiso   1.00
H171   H     0.13543   0.66661   0.18261   0.00000  Uiso   1.00
H172   H     0.63543   0.16661   0.18261   0.00000  Uiso   1.00
H173   H     0.86457   0.66661   0.18261   0.00000  Uiso   1.00
H174   H     0.36457   0.16661   0.18261   0.00000  Uiso   1.00
H175   H     0.13543   0.33339   0.18261   0.00000  Uiso   1.00
H176   H     0.63543   0.83339   0.18261   0.00000  Uiso   1.00
H177   H     0.13543   0.66661   0.81739   0.00000  Uiso   1.00
H178   H     0.63543   0.16661   0.81739   0.00000  Uiso   1.00
H179   H     0.86457   0.33339   0.81739   0.00000  Uiso   1.00
H180   H     0.36457   0.83339   0.81739   0.00000  Uiso   1.00
C181   C     0.13832   0.33042   0.50000   0.00000  Uiso   1.00
C182   C     0.63832   0.83042   0.50000   0.00000  Uiso   1.00
C183   C     0.86168   0.66958   0.50000   0.00000  Uiso   1.00
C184   C     0.36168   0.16958   0.50000   0.00000  Uiso   1.00
C185   C     0.86168   0.33042   0.50000   0.00000  Uiso   1.00
C186   C     0.36168   0.83042   0.50000   0.00000  Uiso   1.00
C187   C     0.13832   0.66958   0.50000   0.00000  Uiso   1.00
C188   C     0.63832   0.16958   0.50000   0.00000  Uiso   1.00
H189   H     0.24037   0.82395   0.50000   0.00000  Uiso   1.00
O190   O     0.31366   0.71384   0.50000   0.00000  Uiso   1.00
H191   H     0.20259   0.66009   0.50000   0.00000  Uiso   1.00
H192   H     0.33418   0.73149   0.50000   0.00000  Uiso   1.00
H193   H     0.74037   0.32395   0.50000   0.00000  Uiso   1.00
O194   O     0.81366   0.21384   0.50000   0.00000  Uiso   1.00
H195   H     0.70259   0.16009   0.50000   0.00000  Uiso   1.00
H196   H     0.83418   0.23149   0.50000   0.00000  Uiso   1.00
H197   H     0.75963   0.17605   0.50000   0.00000  Uiso   1.00
O198   O     0.68634   0.28616   0.50000   0.00000  Uiso   1.00
H199   H     0.79741   0.33991   0.50000   0.00000  Uiso   1.00
H200   H     0.66582   0.26851   0.50000   0.00000  Uiso   1.00
H201   H     0.25963   0.67605   0.50000   0.00000  Uiso   1.00
O202   O     0.18634   0.78616   0.50000   0.00000  Uiso   1.00
H203   H     0.29741   0.83991   0.50000   0.00000  Uiso   1.00
H204   H     0.16582   0.76851   0.50000   0.00000  Uiso   1.00
H205   H     0.75963   0.82395   0.50000   0.00000  Uiso   1.00
O206   O     0.68634   0.71384   0.50000   0.00000  Uiso   1.00
H207   H     0.79741   0.66009   0.50000   0.00000  Uiso   1.00
H208   H     0.66582   0.73149   0.50000   0.00000  Uiso   1.00
H209   H     0.25963   0.32395   0.50000   0.00000  Uiso   1.00
O210   O     0.18634   0.21384   0.50000   0.00000  Uiso   1.00
H211   H     0.29741   0.16009   0.50000   0.00000  Uiso   1.00
H212   H     0.16582   0.23149   0.50000   0.00000  Uiso   1.00
H213   H     0.24037   0.17605   0.50000   0.00000  Uiso   1.00
O214   O     0.31366   0.28616   0.50000   0.00000  Uiso   1.00
H215   H     0.20259   0.33991   0.50000   0.00000  Uiso   1.00
H216   H     0.33418   0.26851   0.50000   0.00000  Uiso   1.00
H217   H     0.74037   0.67605   0.50000   0.00000  Uiso   1.00
O218   O     0.81366   0.78616   0.50000   0.00000  Uiso   1.00
H219   H     0.70259   0.83991   0.50000   0.00000  Uiso   1.00
H220   H     0.83418   0.76851   0.50000   0.00000  Uiso   1.00
H221   H     0.50000   0.96162   0.50000   0.00000  Uiso   1.00
H222   H     0.00000   0.46162   0.50000   0.00000  Uiso   1.00
H223   H     0.50000   0.03838   0.50000   0.00000  Uiso   1.00
H224   H     0.00000   0.53838   0.50000   0.00000  Uiso   1.00
loop_
_geom_bond_atom_site_label_1
_geom_bond_atom_site_label_2
_geom_bond_distance
_geom_bond_site_symmetry_2
_ccdc_geom_bond_type
C1     C12     1.395   .     S
C1     C25     1.406   .     D
C1     H189    1.083   .     S
C2     C11     1.395   .     S
C2     C26     1.406   .     D
C2     H193    1.083   .     S
C3     C10     1.395   .     D
C3     C27     1.406   .     S
C3     H197    1.083   .     S
C4     C9      1.395   .     D
C4     C28     1.406   .     S
C4     H201    1.083   .     S
C5     C16     1.395   .     D
C5     C29     1.406   .     S
C5     H205    1.083   .     S
C6     C15     1.395   .     S
C6     C30     1.406   .     D
C6     H209    1.083   .     S
C7     C14     1.395   .     D
C7     C31     1.406   .     S
C7     H213    1.083   .     S
C8     C13     1.395   .     S
C8     C32     1.406   .     D
C8     H217    1.083   .     S
C9     C25     1.427   .     S
C9     O190    1.398   .     S
C10    C26     1.427   .     S
C10    O194    1.398   .     S
C11    C27     1.427   .     D
C11    O198    1.398   .     S
C12    C28     1.427   .     D
C12    O202    1.398   .     S
C13    C29     1.427   .     D
C13    O206    1.398   .     S
C14    C30     1.427   .     S
C14    O210    1.398   .     S
C15    C31     1.427   .     D
C15    O214    1.398   .     S
C16    C32     1.427   .     S
C16    O218    1.398   .     S
C17    C28     1.491   .     S
C17    N36     1.294   .     D
C17    H191    1.087   .     S
C18    C27     1.491   .     S
C18    N35     1.294   .     D
C18    H195    1.087   .     S
C19    C26     1.491   .     S
C19    N34     1.294   .     D
C19    H199    1.087   .     S
C20    C25     1.491   .     S
C20    N33     1.294   .     D
C20    H203    1.087   .     S
C21    C32     1.491   .     S
C21    N40     1.294   .     D
C21    H207    1.087   .     S
C22    C31     1.491   .     S
C22    N39     1.294   .     D
C22    H211    1.087   .     S
C23    C30     1.491   .     S
C23    N38     1.294   .     D
C23    H215    1.087   .     S
C24    C29     1.491   .     S
C24    N37     1.294   .     D
C24    H219    1.087   .     S
N33    C186    1.428   .     S
N34    C185    1.428   .     S
N35    C188    1.428   .     S
N36    C187    1.428   .     S
N37    C182    1.428   .     S
N38    C181    1.428   .     S
N39    C184    1.428   .     S
N40    C183    1.428   .     S
N41    H45     0.959   .     S
N41    C49     1.339   .     S
N41    C55     1.339   .     S
N42    H46     0.959   .     S
N42    C50     1.339   1_545 S
N42    C56     1.339   .     S
N43    H47     0.959   .     S
N43    C51     1.339   .     S
N43    C53     1.339   .     S
N44    H48     0.959   .     S
N44    C52     1.339   .     S
N44    C54     1.339   1_545 S
C49    C57     1.390   .     D
C49    C101    1.544   .     S
C50    N42     1.339   1_565 S
C50    C58     1.390   .     D
C50    C102    1.544   .     S
C51    C59     1.390   .     D
C51    C103    1.544   .     S
C52    C60     1.390   .     D
C52    C104    1.544   .     S
C53    C61     1.390   .     D
C53    C105    1.544   .     S
C54    N44     1.339   1_565 S
C54    C62     1.390   .     D
C54    C106    1.544   .     S
C55    C63     1.390   .     D
C55    C107    1.544   .     S
C56    C64     1.390   .     D
C56    C108    1.544   .     S
C57    C63     1.405   .     S
C57    H65     1.081   .     S
C58    C64     1.405   1_565 S
C58    H66     1.081   .     S
C59    C61     1.405   .     S
C59    H67     1.081   .     S
C60    C62     1.405   1_545 S
C60    H68     1.081   .     S
C61    H69     1.081   .     S
C62    C60     1.405   1_565 S
C62    H70     1.081   .     S
C63    H71     1.081   .     S
C64    C58     1.405   1_545 S
C64    H72     1.081   .     S
N73    C77     1.415   .     S
N73    C81     1.415   .     S
N73    H221    0.963   .     S
N74    C78     1.415   .     S
N74    C82     1.415   1_455 S
N74    H222    0.963   .     S
N75    C79     1.415   .     S
N75    C83     1.415   .     S
N75    H223    0.963   .     S
N76    C80     1.415   1_455 S
N76    C84     1.415   .     S
N76    H224    0.963   .     S
C77    C85     1.476   .     S
C77    C102    1.391   .     D
C78    C86     1.476   .     S
C78    C101    1.391   .     D
C79    C87     1.476   .     S
C79    C104    1.391   .     D
C80    N76     1.415   1_655 S
C80    C88     1.476   .     S
C80    C103    1.391   .     D
C81    C89     1.476   .     S
C81    C106    1.391   .     D
C82    N74     1.415   1_655 S
C82    C90     1.476   .     S
C82    C105    1.391   .     D
C83    C91     1.476   .     S
C83    C108    1.391   .     D
C84    C92     1.476   .     S
C84    C107    1.391   .     D
C85    C89     1.350   .     D
C85    H93     1.082   .     S
C86    C90     1.350   1_455 D
C86    H94     1.082   .     S
C87    C91     1.350   .     D
C87    H95     1.082   .     S
C88    C92     1.350   1_655 D
C88    H96     1.082   .     S
C89    H97     1.082   .     S
C90    C86     1.350   1_655 D
C90    H98     1.082   .     S
C91    H99     1.082   .     S
C92    C88     1.350   1_455 D
C92    H100    1.082   .     S
C101   C109    1.473   .     S
C102   C110    1.473   .     S
C103   C111    1.473   .     S
C104   C112    1.473   .     S
C105   C113    1.473   .     S
C106   C114    1.473   .     S
C107   C115    1.473   .     S
C108   C116    1.473   .     S
C109   C118    1.402   .     D
C109   C128    1.402   .     S
C110   C117    1.402   .     D
C110   C127    1.402   .     S
C111   C120    1.402   .     S
C111   C126    1.402   .     D
C112   C119    1.402   .     D
C112   C125    1.402   .     S
C113   C122    1.402   .     D
C113   C132    1.402   .     S
C114   C121    1.402   .     D
C114   C131    1.402   .     S
C115   C124    1.402   .     D
C115   C130    1.402   .     S
C116   C123    1.402   .     D
C116   C129    1.402   .     S
C117   H134    1.082   .     S
C117   C150    1.400   .     S
C118   H133    1.082   .     S
C118   C149    1.400   .     S
C119   H136    1.082   .     S
C119   C152    1.400   .     S
C120   H135    1.082   .     S
C120   C151    1.400   .     D
C121   H138    1.082   .     S
C121   C154    1.400   .     S
C122   H137    1.082   .     S
C122   C153    1.400   .     S
C123   H140    1.083   .     S
C123   C156    1.400   .     S
C124   H139    1.082   .     S
C124   C155    1.400   .     S
C125   H142    1.082   .     S
C125   C158    1.400   .     D
C126   H141    1.082   .     S
C126   C157    1.400   .     S
C127   H144    1.082   .     S
C127   C160    1.400   .     D
C128   H143    1.082   .     S
C128   C159    1.400   .     D
C129   H146    1.083   .     S
C129   C162    1.400   .     D
C130   H145    1.082   .     S
C130   C161    1.400   .     D
C131   H148    1.082   .     S
C131   C164    1.400   .     D
C132   H147    1.082   .     S
C132   C163    1.400   .     D
C149   H165    1.081   .     S
C149   C181    1.398   .     D
C150   H166    1.081   .     S
C150   C182    1.398   .     D
C151   H167    1.081   .     S
C151   C183    1.398   .     S
C152   H168    1.081   .     S
C152   C184    1.398   .     D
C153   H169    1.081   .     S
C153   C185    1.398   .     D
C154   H170    1.081   .     S
C154   C186    1.398   .     D
C155   H171    1.081   .     S
C155   C187    1.398   .     D
C156   H172    1.081   .     S
C156   C188    1.398   .     D
C157   H173    1.081   .     S
C157   C183    1.398   .     D
C158   H174    1.081   .     S
C158   C184    1.398   .     S
C159   H175    1.081   .     S
C159   C181    1.398   .     S
C160   H176    1.081   .     S
C160   C182    1.398   .     S
C161   H177    1.081   .     S
C161   C187    1.398   .     S
C162   H178    1.081   .     S
C162   C188    1.398   .     S
C163   H179    1.081   .     S
C163   C185    1.398   .     S
C164   H180    1.081   .     S
C164   C186    1.398   .     S
O190   H192    1.005   .     S
O194   H196    1.005   .     S
O198   H200    1.005   .     S
O202   H204    1.005   .     S
O206   H208    1.005   .     S
O210   H212    1.005   .     S
O214   H216    1.005   .     S
O218   H220    1.005   .     S
