data_337
_audit_creation_date              2023-09-08
_audit_creation_method            'Materials Studio'
_symmetry_space_group_name_H-M    'P1'
_symmetry_Int_Tables_number       1
_symmetry_cell_setting            triclinic
loop_
_symmetry_equiv_pos_as_xyz
  x,y,z
_cell_length_a                    25.8033
_cell_length_b                    6.7438
_cell_length_c                    25.8823
_cell_angle_alpha                 90.0000
_cell_angle_beta                  100.4100
_cell_angle_gamma                 90.0000
loop_
_atom_site_label
_atom_site_type_symbol
_atom_site_fract_x
_atom_site_fract_y
_atom_site_fract_z
_atom_site_U_iso_or_equiv
_atom_site_adp_type
_atom_site_occupancy
C1     C     0.53229   0.50000   0.54962   0.00000  Uiso   1.00
C2     C     0.04640   0.50000   0.03653   0.00000  Uiso   1.00
C3     C     0.46771   0.50000   0.45038   0.00000  Uiso   1.00
C4     C     0.95360   0.50000   0.96347   0.00000  Uiso   1.00
C5     C     0.52255   0.50000   0.45478   0.00000  Uiso   1.00
C6     C     0.95076   0.50000   0.01674   0.00000  Uiso   1.00
C7     C     0.47745   0.50000   0.54522   0.00000  Uiso   1.00
C8     C     0.04924   0.50000   0.98326   0.00000  Uiso   1.00
C9     C     0.38673   0.50000   0.49002   0.00000  Uiso   1.00
C10    C     0.99750   0.50000   0.88699   0.00000  Uiso   1.00
C11    C     0.61327   0.50000   0.50998   0.00000  Uiso   1.00
C12    C     0.00250   0.50000   0.11301   0.00000  Uiso   1.00
C13    C     0.55530   0.50000   0.50447   0.00000  Uiso   1.00
C14    C     0.99826   0.50000   0.05478   0.00000  Uiso   1.00
C15    C     0.44470   0.50000   0.49553   0.00000  Uiso   1.00
C16    C     0.00174   0.50000   0.94522   0.00000  Uiso   1.00
N17    N     0.63574   0.50000   0.46897   0.00000  Uiso   1.00
N18    N     0.96211   0.50000   0.13628   0.00000  Uiso   1.00
N19    N     0.36426   0.50000   0.53103   0.00000  Uiso   1.00
N20    N     0.03789   0.50000   0.86372   0.00000  Uiso   1.00
N21    N     0.05728   0.50000   0.44157   0.00000  Uiso   1.00
N22    N     0.94272   0.50000   0.55843   0.00000  Uiso   1.00
C23    C     0.04125   0.50000   0.38938   0.00000  Uiso   1.00
C24    C     0.89025   0.50000   0.54342   0.00000  Uiso   1.00
C25    C     0.95875   0.50000   0.61062   0.00000  Uiso   1.00
C26    C     0.10975   0.50000   0.45658   0.00000  Uiso   1.00
C27    C     0.08710   0.50000   0.36823   0.00000  Uiso   1.00
C28    C     0.87002   0.50000   0.58970   0.00000  Uiso   1.00
C29    C     0.91290   0.50000   0.63177   0.00000  Uiso   1.00
C30    C     0.12998   0.50000   0.41030   0.00000  Uiso   1.00
H31    H     0.08944   0.50000   0.32694   0.00000  Uiso   1.00
H32    H     0.82880   0.50000   0.59285   0.00000  Uiso   1.00
H33    H     0.91056   0.50000   0.67306   0.00000  Uiso   1.00
H34    H     0.17120   0.50000   0.40715   0.00000  Uiso   1.00
N35    N     0.93200   0.50000   0.43328   0.00000  Uiso   1.00
N36    N     0.06800   0.50000   0.56672   0.00000  Uiso   1.00
C37    C     0.93736   0.50000   0.37983   0.00000  Uiso   1.00
C38    C     0.87868   0.50000   0.43969   0.00000  Uiso   1.00
C39    C     0.06264   0.50000   0.62017   0.00000  Uiso   1.00
C40    C     0.12132   0.50000   0.56031   0.00000  Uiso   1.00
C41    C     0.88250   0.50000   0.35104   0.00000  Uiso   1.00
C42    C     0.84885   0.50000   0.38538   0.00000  Uiso   1.00
C43    C     0.11750   0.50000   0.64896   0.00000  Uiso   1.00
C44    C     0.15115   0.50000   0.61462   0.00000  Uiso   1.00
H45    H     0.87056   0.50000   0.30877   0.00000  Uiso   1.00
H46    H     0.80637   0.50000   0.37426   0.00000  Uiso   1.00
H47    H     0.12944   0.50000   0.69123   0.00000  Uiso   1.00
H48    H     0.19363   0.50000   0.62574   0.00000  Uiso   1.00
C49    C     0.98374   0.50000   0.35953   0.00000  Uiso   1.00
C50    C     0.85929   0.50000   0.48648   0.00000  Uiso   1.00
C51    C     0.01626   0.50000   0.64047   0.00000  Uiso   1.00
C52    C     0.14071   0.50000   0.51352   0.00000  Uiso   1.00
C53    C     0.97792   0.50000   0.30184   0.00000  Uiso   1.00
C54    C     0.80153   0.50000   0.48178   0.00000  Uiso   1.00
C55    C     0.02208   0.50000   0.69816   0.00000  Uiso   1.00
C56    C     0.19847   0.50000   0.51822   0.00000  Uiso   1.00
C57    C     0.97528   0.32018   0.27431   0.00000  Uiso   1.00
C58    C     0.77397   0.67982   0.47967   0.00000  Uiso   1.00
C59    C     0.02472   0.32018   0.72569   0.00000  Uiso   1.00
C60    C     0.22603   0.67982   0.52033   0.00000  Uiso   1.00
C61    C     0.02472   0.67982   0.72569   0.00000  Uiso   1.00
C62    C     0.22603   0.32018   0.52033   0.00000  Uiso   1.00
C63    C     0.97528   0.67982   0.27431   0.00000  Uiso   1.00
C64    C     0.77397   0.32018   0.47967   0.00000  Uiso   1.00
H65    H     0.97723   0.18086   0.29535   0.00000  Uiso   1.00
H66    H     0.79504   0.81912   0.48124   0.00000  Uiso   1.00
H67    H     0.02277   0.18086   0.70465   0.00000  Uiso   1.00
H68    H     0.20497   0.81912   0.51876   0.00000  Uiso   1.00
H69    H     0.02277   0.81914   0.70465   0.00000  Uiso   1.00
H70    H     0.20497   0.18088   0.51876   0.00000  Uiso   1.00
H71    H     0.97723   0.81914   0.29535   0.00000  Uiso   1.00
H72    H     0.79504   0.18088   0.48124   0.00000  Uiso   1.00
C73    C     0.96999   0.32052   0.21954   0.00000  Uiso   1.00
C74    C     0.71912   0.67949   0.47539   0.00000  Uiso   1.00
C75    C     0.03001   0.32052   0.78046   0.00000  Uiso   1.00
C76    C     0.28088   0.67949   0.52461   0.00000  Uiso   1.00
C77    C     0.03001   0.67948   0.78046   0.00000  Uiso   1.00
C78    C     0.28088   0.32051   0.52461   0.00000  Uiso   1.00
C79    C     0.96999   0.67948   0.21954   0.00000  Uiso   1.00
C80    C     0.71912   0.32051   0.47539   0.00000  Uiso   1.00
H81    H     0.96773   0.18233   0.19808   0.00000  Uiso   1.00
H82    H     0.69767   0.81775   0.47355   0.00000  Uiso   1.00
H83    H     0.03227   0.18233   0.80192   0.00000  Uiso   1.00
H84    H     0.30233   0.81775   0.52645   0.00000  Uiso   1.00
H85    H     0.03227   0.81767   0.80192   0.00000  Uiso   1.00
H86    H     0.30233   0.18225   0.52645   0.00000  Uiso   1.00
H87    H     0.96773   0.81767   0.19808   0.00000  Uiso   1.00
H88    H     0.69767   0.18225   0.47355   0.00000  Uiso   1.00
C89    C     0.96759   0.50000   0.19216   0.00000  Uiso   1.00
C90    C     0.69170   0.50000   0.47347   0.00000  Uiso   1.00
C91    C     0.03241   0.50000   0.80784   0.00000  Uiso   1.00
C92    C     0.30831   0.50000   0.52653   0.00000  Uiso   1.00
H93    H     0.55676   0.50000   0.58832   0.00000  Uiso   1.00
H94    H     0.53948   0.50000   0.41940   0.00000  Uiso   1.00
H95    H     0.36283   0.50000   0.45093   0.00000  Uiso   1.00
H96    H     0.08343   0.50000   0.06399   0.00000  Uiso   1.00
O97    O     0.89969   0.50000   0.02775   0.00000  Uiso   1.00
H98    H     0.95833   0.50000   0.86298   0.00000  Uiso   1.00
H99    H     0.89638   0.50000   0.06582   0.00000  Uiso   1.00
H100   H     0.96140   0.50000   0.46212   0.00000  Uiso   1.00
H101   H     0.44324   0.50000   0.41168   0.00000  Uiso   1.00
H102   H     0.46052   0.50000   0.58060   0.00000  Uiso   1.00
H103   H     0.63717   0.50000   0.54907   0.00000  Uiso   1.00
H104   H     0.91657   0.50000   0.93601   0.00000  Uiso   1.00
O105   O     0.10031   0.50000   0.97225   0.00000  Uiso   1.00
H106   H     0.04167   0.50000   0.13702   0.00000  Uiso   1.00
H107   H     0.10362   0.50000   0.93418   0.00000  Uiso   1.00
H108   H     0.03861   0.50000   0.53788   0.00000  Uiso   1.00
loop_
_geom_bond_atom_site_label_1
_geom_bond_atom_site_label_2
_geom_bond_distance
_geom_bond_site_symmetry_2
_ccdc_geom_bond_type
C1     C7      1.399   .     D
C1     C13     1.403   .     S
C1     H93     1.083   .     S
C2     C8      1.394   1_554 D
C2     C14     1.406   1_455 S
C2     H96     1.083   .     S
C3     C5      1.399   .     S
C3     C15     1.403   .     D
C3     H101    1.083   .     S
C4     C6      1.394   1_556 S
C4     C16     1.406   1_655 D
C4     H104    1.083   .     S
C5     C13     1.406   .     D
C5     H94     1.083   .     S
C6     C4      1.394   1_554 S
C6     C14     1.427   .     D
C6     O97     1.398   .     S
C7     C15     1.406   .     S
C7     H102    1.083   .     S
C8     C2      1.394   1_556 D
C8     C16     1.427   .     S
C8     O105    1.398   .     S
C9     C15     1.477   .     S
C9     N19     1.298   .     D
C9     H95     1.085   .     S
C10    C16     1.491   1_655 S
C10    N20     1.295   1_655 D
C10    H98     1.087   .     S
C11    C13     1.477   .     S
C11    N17     1.298   .     D
C11    H103    1.085   .     S
C12    C14     1.491   1_455 S
C12    N18     1.295   1_455 D
C12    H106    1.087   .     S
C14    C2      1.406   1_655 S
C14    C12     1.491   1_655 S
C16    C10     1.491   1_455 S
C16    C4      1.406   1_455 D
N17    C90     1.427   .     S
N18    C12     1.295   1_655 D
N18    C89     1.427   .     S
N19    C92     1.427   .     S
N20    C10     1.295   1_455 D
N20    C91     1.427   .     S
N21    C23     1.339   .     S
N21    C26     1.339   .     D
N22    C24     1.339   .     S
N22    C25     1.339   .     D
C23    C27     1.390   .     S
C23    C49     1.544   1_455 D
C24    C28     1.390   .     S
C24    C50     1.544   .     D
C25    C29     1.390   .     S
C25    C51     1.544   1_655 S
C26    C30     1.390   .     S
C26    C52     1.544   .     S
C27    C30     1.405   .     D
C27    H31     1.081   .     S
C28    C29     1.405   .     D
C28    H32     1.081   .     S
C29    H33     1.081   .     S
C30    H34     1.081   .     S
N35    C37     1.415   .     S
N35    C38     1.415   .     S
N35    H100    0.963   .     S
N36    C39     1.415   .     S
N36    C40     1.415   .     S
N36    H108    0.963   .     S
C37    C41     1.476   .     D
C37    C49     1.391   .     S
C38    C42     1.476   .     D
C38    C50     1.391   .     S
C39    C43     1.476   .     S
C39    C51     1.391   .     D
C40    C44     1.476   .     S
C40    C52     1.391   .     D
C41    C42     1.350   .     S
C41    H45     1.082   .     S
C42    H46     1.082   .     S
C43    C44     1.350   .     D
C43    H47     1.082   .     S
C44    H48     1.082   .     S
C49    C23     1.544   1_655 D
C49    C53     1.473   .     S
C50    C54     1.473   .     S
C51    C25     1.544   1_455 S
C51    C55     1.473   .     S
C52    C56     1.473   .     S
C53    C57     1.402   .     D
C53    C63     1.402   .     S
C54    C58     1.402   .     D
C54    C64     1.402   .     S
C55    C59     1.402   .     S
C55    C61     1.402   .     D
C56    C60     1.402   .     S
C56    C62     1.402   .     D
C57    H65     1.082   .     S
C57    C73     1.400   .     S
C58    H66     1.083   .     S
C58    C74     1.399   .     S
C59    H67     1.082   .     S
C59    C75     1.399   .     D
C60    H68     1.082   .     S
C60    C76     1.399   .     D
C61    H69     1.082   .     S
C61    C77     1.399   .     S
C62    H70     1.082   .     S
C62    C78     1.399   .     S
C63    H71     1.082   .     S
C63    C79     1.400   .     D
C64    H72     1.083   .     S
C64    C80     1.399   .     D
C73    H81     1.081   .     S
C73    C89     1.398   .     D
C74    H82     1.081   .     S
C74    C90     1.398   .     D
C75    H83     1.081   .     S
C75    C91     1.398   .     S
C76    H84     1.081   .     S
C76    C92     1.398   .     S
C77    H85     1.081   .     S
C77    C91     1.398   .     D
C78    H86     1.081   .     S
C78    C92     1.398   .     D
C79    H87     1.081   .     S
C79    C89     1.398   .     S
C80    H88     1.081   .     S
C80    C90     1.398   .     S
O97    H99     1.004   .     S
O105   H107    1.004   .     S
