data_338
_audit_creation_date              2023-09-08
_audit_creation_method            'Materials Studio'
_symmetry_space_group_name_H-M    'P1'
_symmetry_Int_Tables_number       1
_symmetry_cell_setting            triclinic
loop_
_symmetry_equiv_pos_as_xyz
  x,y,z
_cell_length_a                    24.7190
_cell_length_b                    24.7190
_cell_length_c                    3.6300
_cell_angle_alpha                 90.0000
_cell_angle_beta                  90.0000
_cell_angle_gamma                 120.0000
loop_
_atom_site_label
_atom_site_type_symbol
_atom_site_fract_x
_atom_site_fract_y
_atom_site_fract_z
_atom_site_U_iso_or_equiv
_atom_site_adp_type
_atom_site_occupancy
C1     C     0.05999   0.03005   0.43929   0.00000  Uiso   1.00
N2     N     0.02974   0.05958   0.43951   0.00000  Uiso   1.00
C3     C     0.12543   0.06281   0.44631   0.00000  Uiso   1.00
C4     C     0.15727   0.03354   0.38014   0.00000  Uiso   1.00
C5     C     0.21892   0.06439   0.39327   0.00000  Uiso   1.00
C6     C     0.25003   0.12469   0.47286   0.00000  Uiso   1.00
C7     C     0.21841   0.15421   0.54052   0.00000  Uiso   1.00
C8     C     0.15674   0.12355   0.52520   0.00000  Uiso   1.00
N9     N     0.31325   0.15325   0.49144   0.00000  Uiso   1.00
C10    C     0.35009   0.20926   0.53157   0.00000  Uiso   1.00
C11    C     0.41451   0.23256   0.53362   0.00000  Uiso   1.00
C12    C     0.44143   0.20105   0.67452   0.00000  Uiso   1.00
C13    C     0.50257   0.22605   0.65309   0.00000  Uiso   1.00
C14    C     0.53878   0.28196   0.49419   0.00000  Uiso   1.00
C15    C     0.51147   0.31267   0.35615   0.00000  Uiso   1.00
C16    C     0.45050   0.28876   0.38141   0.00000  Uiso   1.00
C17    C     0.60451   0.30837   0.48060   0.00000  Uiso   1.00
C18    C     0.63008   0.27217   0.47898   0.00000  Uiso   1.00
O19    O     0.41080   0.14709   0.85980   0.00000  Uiso   1.00
H20    H     0.13440   0.98684   0.31691   0.00000  Uiso   1.00
H21    H     0.24303   0.04147   0.34179   0.00000  Uiso   1.00
H22    H     0.24052   0.20038   0.61150   0.00000  Uiso   1.00
H23    H     0.13334   0.14708   0.58195   0.00000  Uiso   1.00
H24    H     0.33492   0.24079   0.53330   0.00000  Uiso   1.00
H25    H     0.52114   0.20177   0.78088   0.00000  Uiso   1.00
H26    H     0.53666   0.35463   0.21757   0.00000  Uiso   1.00
H27    H     0.43104   0.31346   0.26840   0.00000  Uiso   1.00
H28    H     0.60183   0.22498   0.48018   0.00000  Uiso   1.00
H29    H     0.36908   0.13531   0.93277   0.00000  Uiso   1.00
C30    C     0.96995   0.02994   0.43929   0.00000  Uiso   1.00
N31    N     0.94042   0.97016   0.43951   0.00000  Uiso   1.00
C32    C     0.93719   0.06262   0.44631   0.00000  Uiso   1.00
C33    C     0.96646   0.12373   0.38014   0.00000  Uiso   1.00
C34    C     0.93561   0.15453   0.39327   0.00000  Uiso   1.00
C35    C     0.87531   0.12534   0.47286   0.00000  Uiso   1.00
C36    C     0.84579   0.06420   0.54052   0.00000  Uiso   1.00
C37    C     0.87645   0.03319   0.52520   0.00000  Uiso   1.00
N38    N     0.84675   0.16000   0.49144   0.00000  Uiso   1.00
C39    C     0.79074   0.14083   0.53157   0.00000  Uiso   1.00
C40    C     0.76744   0.18195   0.53362   0.00000  Uiso   1.00
C41    C     0.79895   0.24038   0.67452   0.00000  Uiso   1.00
C42    C     0.77395   0.27652   0.65309   0.00000  Uiso   1.00
C43    C     0.71804   0.25682   0.49419   0.00000  Uiso   1.00
C44    C     0.68733   0.19880   0.35615   0.00000  Uiso   1.00
C45    C     0.71124   0.16174   0.38141   0.00000  Uiso   1.00
C46    C     0.69163   0.29614   0.48060   0.00000  Uiso   1.00
C47    C     0.72783   0.35791   0.47898   0.00000  Uiso   1.00
O48    O     0.85291   0.26371   0.85980   0.00000  Uiso   1.00
H49    H     0.01316   0.14756   0.31691   0.00000  Uiso   1.00
H50    H     0.95853   0.20156   0.34179   0.00000  Uiso   1.00
H51    H     0.79962   0.04014   0.61150   0.00000  Uiso   1.00
H52    H     0.85292   0.98626   0.58195   0.00000  Uiso   1.00
H53    H     0.75921   0.09413   0.53330   0.00000  Uiso   1.00
H54    H     0.79823   0.31937   0.78088   0.00000  Uiso   1.00
H55    H     0.64537   0.18203   0.21757   0.00000  Uiso   1.00
H56    H     0.68654   0.11758   0.26840   0.00000  Uiso   1.00
H57    H     0.77502   0.37685   0.48018   0.00000  Uiso   1.00
H58    H     0.86469   0.23377   0.93277   0.00000  Uiso   1.00
C59    C     0.97006   0.94001   0.43929   0.00000  Uiso   1.00
N60    N     0.02984   0.97026   0.43951   0.00000  Uiso   1.00
C61    C     0.93738   0.87457   0.44631   0.00000  Uiso   1.00
C62    C     0.87627   0.84273   0.38014   0.00000  Uiso   1.00
C63    C     0.84547   0.78108   0.39327   0.00000  Uiso   1.00
C64    C     0.87466   0.74997   0.47286   0.00000  Uiso   1.00
C65    C     0.93580   0.78159   0.54052   0.00000  Uiso   1.00
C66    C     0.96681   0.84326   0.52520   0.00000  Uiso   1.00
N67    N     0.84000   0.68675   0.49144   0.00000  Uiso   1.00
C68    C     0.85917   0.64991   0.53157   0.00000  Uiso   1.00
C69    C     0.81805   0.58549   0.53362   0.00000  Uiso   1.00
C70    C     0.75962   0.55857   0.67452   0.00000  Uiso   1.00
C71    C     0.72348   0.49743   0.65309   0.00000  Uiso   1.00
C72    C     0.74318   0.46122   0.49419   0.00000  Uiso   1.00
C73    C     0.80120   0.48853   0.35615   0.00000  Uiso   1.00
C74    C     0.83826   0.54950   0.38141   0.00000  Uiso   1.00
C75    C     0.70386   0.39549   0.48060   0.00000  Uiso   1.00
C76    C     0.64209   0.36992   0.47898   0.00000  Uiso   1.00
O77    O     0.73629   0.58920   0.85980   0.00000  Uiso   1.00
H78    H     0.85244   0.86560   0.31691   0.00000  Uiso   1.00
H79    H     0.79844   0.75697   0.34179   0.00000  Uiso   1.00
H80    H     0.95986   0.75948   0.61150   0.00000  Uiso   1.00
H81    H     0.01374   0.86666   0.58195   0.00000  Uiso   1.00
H82    H     0.90587   0.66508   0.53330   0.00000  Uiso   1.00
H83    H     0.68063   0.47886   0.78088   0.00000  Uiso   1.00
H84    H     0.81797   0.46334   0.21757   0.00000  Uiso   1.00
H85    H     0.88242   0.56896   0.26840   0.00000  Uiso   1.00
H86    H     0.62315   0.39817   0.48018   0.00000  Uiso   1.00
H87    H     0.76623   0.63092   0.93277   0.00000  Uiso   1.00
loop_
_geom_bond_atom_site_label_1
_geom_bond_atom_site_label_2
_geom_bond_distance
_geom_bond_site_symmetry_2
_ccdc_geom_bond_type
C1     N2      1.280   .     S
C1     C3      1.401   .     S
C1     N60     1.280   1_545 D
N2     C30     1.280   1_455 D
C3     C4      1.330   .     D
C3     C8      1.332   .     S
C4     C5      1.321   .     S
C4     H20     1.026   1_545 S
C5     C6      1.323   .     D
C5     H21     1.024   .     S
C6     C7      1.332   .     S
C6     N9      1.357   .     S
C7     C8      1.321   .     D
C7     H22     1.022   .     S
C8     H23     1.026   .     S
N9     C10     1.227   .     D
C10    C11     1.397   .     S
C10    H24     1.020   .     S
C11    C12     1.353   .     D
C11    C16     1.338   .     S
C12    C13     1.318   .     S
C12    O19     1.340   .     S
C13    C14     1.344   .     D
C13    H25     1.030   .     S
C14    C15     1.340   .     S
C14    C17     1.417   .     S
C15    C16     1.318   .     D
C15    H26     1.035   .     S
C16    H27     1.033   .     S
C17    C18     1.329   .     S
C17    C76     1.328   .     D
C18    H28     1.017   .     S
C18    C46     1.328   .     D
O19    H29     0.958   .     S
H20    C4      1.026   1_565 S
C30    N2      1.280   1_655 D
C30    N31     1.280   1_545 S
C30    C32     1.401   .     S
N31    C30     1.280   1_565 S
N31    C59     1.280   .     D
C32    C33     1.330   .     D
C32    C37     1.332   .     S
C33    C34     1.321   .     S
C33    H49     1.026   1_655 S
C34    C35     1.323   .     D
C34    H50     1.024   .     S
C35    C36     1.332   .     S
C35    N38     1.357   .     S
C36    C37     1.321   .     D
C36    H51     1.022   .     S
C37    H52     1.026   1_545 S
N38    C39     1.227   .     D
C39    C40     1.397   .     S
C39    H53     1.020   .     S
C40    C41     1.353   .     D
C40    C45     1.338   .     S
C41    C42     1.318   .     S
C41    O48     1.340   .     S
C42    C43     1.344   .     D
C42    H54     1.030   .     S
C43    C44     1.340   .     S
C43    C46     1.417   .     S
C44    C45     1.318   .     D
C44    H55     1.035   .     S
C45    H56     1.033   .     S
C46    C47     1.329   .     S
C47    H57     1.017   .     S
C47    C75     1.328   .     D
O48    H58     0.958   .     S
H49    C33     1.026   1_455 S
H52    C37     1.026   1_565 S
C59    N60     1.280   1_655 S
C59    C61     1.401   .     S
N60    C1      1.280   1_565 D
N60    C59     1.280   1_455 S
C61    C62     1.330   .     D
C61    C66     1.332   .     S
C62    C63     1.321   .     S
C62    H78     1.026   .     S
C63    C64     1.323   .     D
C63    H79     1.024   .     S
C64    C65     1.332   .     S
C64    N67     1.357   .     S
C65    C66     1.321   .     D
C65    H80     1.022   .     S
C66    H81     1.026   1_655 S
N67    C68     1.227   .     D
C68    C69     1.397   .     S
C68    H82     1.020   .     S
C69    C70     1.353   .     D
C69    C74     1.338   .     S
C70    C71     1.318   .     S
C70    O77     1.340   .     S
C71    C72     1.344   .     D
C71    H83     1.030   .     S
C72    C73     1.340   .     S
C72    C75     1.417   .     S
C73    C74     1.318   .     D
C73    H84     1.035   .     S
C74    H85     1.033   .     S
C75    C76     1.329   .     S
C76    H86     1.017   .     S
O77    H87     0.958   .     S
H81    C66     1.026   1_455 S
