data_339
_audit_creation_date              2023-09-08
_audit_creation_method            'Materials Studio'
_symmetry_space_group_name_H-M    'P1'
_symmetry_Int_Tables_number       1
_symmetry_cell_setting            triclinic
loop_
_symmetry_equiv_pos_as_xyz
  x,y,z
_cell_length_a                    26.0197
_cell_length_b                    22.7560
_cell_length_c                    4.4394
_cell_angle_alpha                 90.0000
_cell_angle_beta                  82.7499
_cell_angle_gamma                 90.0000
loop_
_atom_site_label
_atom_site_type_symbol
_atom_site_fract_x
_atom_site_fract_y
_atom_site_fract_z
_atom_site_U_iso_or_equiv
_atom_site_adp_type
_atom_site_occupancy
C1     C     1.69157  -0.09090   0.38865   0.00000  Uiso   1.00
C2     C     1.69259  -0.15226   0.38160   0.00000  Uiso   1.00
C3     C     1.73162  -0.18441   0.49342   0.00000  Uiso   1.00
C4     C     1.77127  -0.15290   0.61060   0.00000  Uiso   1.00
C5     C     1.77336  -0.09117   0.59454   0.00000  Uiso   1.00
C6     C     1.73282  -0.06079   0.48880   0.00000  Uiso   1.00
C7     C     1.73167  -0.24987   0.49354   0.00000  Uiso   1.00
C8     C     1.68511  -0.28225   0.52672   0.00000  Uiso   1.00
C9     C     1.68579  -0.34405   0.53004   0.00000  Uiso   1.00
C10    C     1.73312  -0.37317   0.50700   0.00000  Uiso   1.00
C11    C     1.77956  -0.34213   0.47530   0.00000  Uiso   1.00
C12    C     1.77823  -0.28092   0.46174   0.00000  Uiso   1.00
C13    C     1.64600  -0.05821   0.30876   0.00000  Uiso   1.00
C14    C     1.81926  -0.05883   0.67345   0.00000  Uiso   1.00
C15    C     1.63755  -0.37922   0.54116   0.00000  Uiso   1.00
C16    C     1.82912  -0.37452   0.46752   0.00000  Uiso   1.00
O17    O     1.80695  -0.18251   0.75188   0.00000  Uiso   1.00
O18    O     1.63900  -0.25319   0.55063   0.00000  Uiso   1.00
C19    C     1.83180  -0.42284   0.65894   0.00000  Uiso   1.00
C20    C     1.87762  -0.45316   0.66196   0.00000  Uiso   1.00
C21    C     1.92192  -0.43707   0.46804   0.00000  Uiso   1.00
C22    C     1.91913  -0.38907   0.27427   0.00000  Uiso   1.00
C23    C     1.87355  -0.35783   0.27678   0.00000  Uiso   1.00
C24    C     1.59406  -0.36828   0.75254   0.00000  Uiso   1.00
C25    C     1.54929  -0.40072   0.74771   0.00000  Uiso   1.00
C26    C     1.54674  -0.44460   0.53013   0.00000  Uiso   1.00
C27    C     1.59064  -0.45653   0.32402   0.00000  Uiso   1.00
C28    C     1.63551  -0.42458   0.33109   0.00000  Uiso   1.00
C29    C     1.86886  -0.07950   0.56625   0.00000  Uiso   1.00
C30    C     1.91219  -0.04831   0.61872   0.00000  Uiso   1.00
C31    C     1.90743   0.00458   0.77986   0.00000  Uiso   1.00
C32    C     1.85799   0.02495   0.89018   0.00000  Uiso   1.00
C33    C     1.81448  -0.00629   0.83679   0.00000  Uiso   1.00
C34    C     1.65066  -0.00235   0.17787   0.00000  Uiso   1.00
C35    C     1.60717   0.02973   0.13326   0.00000  Uiso   1.00
C36    C     1.55760   0.00715   0.22146   0.00000  Uiso   1.00
C37    C     1.55301  -0.04953   0.34341   0.00000  Uiso   1.00
C38    C     1.59642  -0.08175   0.38474   0.00000  Uiso   1.00
C39    C     1.51124   0.04295   0.20811   0.00000  Uiso   1.00
C40    C     1.49893  -0.47707   0.51059   0.00000  Uiso   1.00
C41    C     1.95401   0.03891   0.80847   0.00000  Uiso   1.00
C42    C     1.96978  -0.47034   0.47670   0.00000  Uiso   1.00
C43    C     1.19030  -0.59673   0.40713   0.00000  Uiso   1.00
C44    C     1.19061  -0.65813   0.40060   0.00000  Uiso   1.00
C45    C     1.23123  -0.69063   0.49217   0.00000  Uiso   1.00
C46    C     1.27324  -0.65975   0.58658   0.00000  Uiso   1.00
C47    C     1.27603  -0.59812   0.56600   0.00000  Uiso   1.00
C48    C     1.23387  -0.56727   0.48235   0.00000  Uiso   1.00
C49    C     1.23076  -0.75604   0.49515   0.00000  Uiso   1.00
C50    C     1.18432  -0.78778   0.56461   0.00000  Uiso   1.00
C51    C     1.18463  -0.84955   0.57452   0.00000  Uiso   1.00
C52    C     1.23167  -0.87908   0.51622   0.00000  Uiso   1.00
C53    C     1.27807  -0.84868   0.44599   0.00000  Uiso   1.00
C54    C     1.27682  -0.78745   0.43161   0.00000  Uiso   1.00
C55    C     1.14360  -0.56347   0.35010   0.00000  Uiso   1.00
C56    C     1.32382  -0.56653   0.61988   0.00000  Uiso   1.00
C57    C     1.13609  -0.88432   0.62724   0.00000  Uiso   1.00
C58    C     1.32762  -0.88144   0.39897   0.00000  Uiso   1.00
O59    O     1.31059  -0.69005   0.71112   0.00000  Uiso   1.00
O60    O     1.13862  -0.75794   0.61686   0.00000  Uiso   1.00
C61    C     1.33324  -0.93254   0.56625   0.00000  Uiso   1.00
C62    C     1.37916  -0.96344   0.53084   0.00000  Uiso   1.00
C63    C     1.42132  -0.94399   0.32828   0.00000  Uiso   1.00
C64    C     1.41567  -0.89335   0.15631   0.00000  Uiso   1.00
C65    C     1.36946  -0.86259   0.19320   0.00000  Uiso   1.00
C66    C     1.09613  -0.87110   0.85852   0.00000  Uiso   1.00
C67    C     1.05032  -0.90265   0.89000   0.00000  Uiso   1.00
C68    C     1.04377  -0.94882   0.69030   0.00000  Uiso   1.00
C69    C     1.08488  -0.96437   0.47047   0.00000  Uiso   1.00
C70    C     1.13013  -0.93226   0.43814   0.00000  Uiso   1.00
C71    C     1.37213  -0.58922   0.50188   0.00000  Uiso   1.00
C72    C     1.41723  -0.55936   0.53456   0.00000  Uiso   1.00
C73    C     1.41499  -0.50523   0.68461   0.00000  Uiso   1.00
C74    C     1.36694  -0.48302   0.81013   0.00000  Uiso   1.00
C75    C     1.32195  -0.51303   0.77488   0.00000  Uiso   1.00
C76    C     1.14682  -0.50642   0.23264   0.00000  Uiso   1.00
C77    C     1.10265  -0.47437   0.20321   0.00000  Uiso   1.00
C78    C     1.05374  -0.49804   0.29858   0.00000  Uiso   1.00
C79    C     1.05016  -0.55592   0.40523   0.00000  Uiso   1.00
C80    C     1.09451  -0.58793   0.42972   0.00000  Uiso   1.00
N81    N     1.46646   0.02151   0.31363   0.00000  Uiso   1.00
N82    N     1.99837   0.01765   0.69368   0.00000  Uiso   1.00
N83    N     1.45985  -0.47252   0.72096   0.00000  Uiso   1.00
N84    N     2.00960  -0.46310   0.27378   0.00000  Uiso   1.00
H85    H     1.85379   0.06614   1.01749   0.00000  Uiso   1.00
H86    H     1.68908   0.01633   0.11022   0.00000  Uiso   1.00
H87    H     1.61145   0.07358   0.03255   0.00000  Uiso   1.00
H88    H     1.51703   0.08885   0.12106   0.00000  Uiso   1.00
H89    H     1.94901   0.08344   0.91365   0.00000  Uiso   1.00
H90    H     0.66193   0.82462   0.28420   0.00000  Uiso   1.00
H91    H     0.73348   0.98719   0.48685   0.00000  Uiso   1.00
H92    H     0.73354   0.57886   0.51282   0.00000  Uiso   1.00
H93    H     0.81480   0.74301   0.42928   0.00000  Uiso   1.00
H94    H     0.82806   0.84517   0.85076   0.00000  Uiso   1.00
H95    H     0.61045   0.71905   0.55028   0.00000  Uiso   1.00
H96    H     0.79762   0.56410   0.81278   0.00000  Uiso   1.00
H97    H     0.87943   0.50974   0.81661   0.00000  Uiso   1.00
H98    H     0.95366   0.62364   0.12247   0.00000  Uiso   1.00
H99    H     0.87198   0.67967   0.12483   0.00000  Uiso   1.00
H100   H     0.59570   0.66508   0.92804   0.00000  Uiso   1.00
H101   H     0.51520   0.60793   0.91173   0.00000  Uiso   1.00
H102   H     0.58914   0.50880   0.15518   0.00000  Uiso   1.00
H103   H     0.66942   0.56623   0.16690   0.00000  Uiso   1.00
H104   H     0.87325   0.88041   0.43004   0.00000  Uiso   1.00
H105   H     0.95090   0.93630   0.52934   0.00000  Uiso   1.00
H106   H     0.77597   1.01013   0.92314   0.00000  Uiso   1.00
H107   H     0.51428   0.93280   0.41253   0.00000  Uiso   1.00
H108   H     0.59206   0.87476   0.48878   0.00000  Uiso   1.00
H109   H     0.49789   0.49546   0.30351   0.00000  Uiso   1.00
H110   H     0.96994   0.49817   0.66947   0.00000  Uiso   1.00
H111   H     0.15817   0.31891   0.32081   0.00000  Uiso   1.00
H112   H     0.23520   0.48069   0.47793   0.00000  Uiso   1.00
H113   H     0.23181   0.07298   0.52509   0.00000  Uiso   1.00
H114   H     0.31304   0.23630   0.37128   0.00000  Uiso   1.00
H115   H     0.33290   0.33728   0.80338   0.00000  Uiso   1.00
H116   H     0.10965   0.21455   0.63978   0.00000  Uiso   1.00
H117   H     0.30125   0.05225   0.73053   0.00000  Uiso   1.00
H118   H     0.38342  -0.00276   0.66609   0.00000  Uiso   1.00
H119   H     0.44731   0.12175  -0.01075   0.00000  Uiso   1.00
H120   H     0.36541   0.17655   0.05568   0.00000  Uiso   1.00
H121   H     0.10144   0.16351   1.02247   0.00000  Uiso   1.00
H122   H     0.01988   0.10813   1.07413   0.00000  Uiso   1.00
H123   H     0.08009  -0.00111   0.31859   0.00000  Uiso   1.00
H124   H     0.16140   0.05630   0.26026   0.00000  Uiso   1.00
H125   H     0.37432   0.36959   0.37449   0.00000  Uiso   1.00
H126   H     0.45442   0.42165   0.44241   0.00000  Uiso   1.00
H127   H     0.36519   0.55896   0.92977   0.00000  Uiso   1.00
H128   H     0.28453   0.50494   0.87104   0.00000  Uiso   1.00
H129   H     0.18473   0.51315   0.16094   0.00000  Uiso   1.00
H130   H     0.10572   0.57034   0.11378   0.00000  Uiso   1.00
H131   H     0.01227   0.42395   0.47000   0.00000  Uiso   1.00
H132   H     0.09103   0.36747   0.52072   0.00000  Uiso   1.00
loop_
_geom_bond_atom_site_label_1
_geom_bond_atom_site_label_2
_geom_bond_distance
_geom_bond_site_symmetry_2
_ccdc_geom_bond_type
C1     C2      1.397   .     D
C1     C6      1.393   .     S
C1     C13     1.480   .     S
C2     C3      1.393   .     S
C2     H90     1.090   1_645 S
C3     C4      1.409   .     D
C3     C7      1.490   .     S
C4     C5      1.407   .     S
C4     O17     1.362   .     S
C5     C6      1.391   .     D
C5     C14     1.482   .     S
C6     H91     1.092   1_645 S
C7     C8      1.410   .     D
C7     C12     1.394   .     S
C8     C9      1.407   .     S
C8     O18     1.362   .     S
C9     C10     1.391   .     D
C9     C15     1.484   .     S
C10    C11     1.391   .     S
C10    H92     1.092   1_645 S
C11    C12     1.395   .     D
C11    C16     1.482   .     S
C12    H93     1.090   1_645 S
C13    C34     1.397   .     D
C13    C38     1.398   .     S
C14    C29     1.399   .     D
C14    C33     1.396   .     S
C15    C24     1.398   .     D
C15    C28     1.397   .     S
C16    C19     1.397   .     D
C16    C23     1.397   .     S
O17    H94     0.976   1_645 S
O18    H95     0.975   1_645 S
C19    C20     1.379   .     S
C19    H96     1.092   1_645 S
C20    C21     1.398   .     D
C20    H97     1.093   1_645 S
C21    C22     1.398   .     S
C21    C42     1.462   .     S
C22    C23     1.382   .     D
C22    H98     1.092   1_645 S
C23    H99     1.092   1_645 S
C24    C25     1.382   .     S
C24    H100    1.092   1_645 S
C25    C26     1.397   .     D
C25    H101    1.092   1_645 S
C26    C27     1.397   .     S
C26    C40     1.459   .     S
C27    C28     1.379   .     D
C27    H102    1.092   1_645 S
C28    H103    1.091   1_645 S
C29    C30     1.377   .     S
C29    H104    1.092   1_645 S
C30    C31     1.398   .     D
C30    H105    1.093   1_645 S
C31    C32     1.397   .     S
C31    C41     1.461   .     S
C32    C33     1.382   .     D
C32    H85     1.093   .     S
C33    H106    1.093   1_645 S
C34    C35     1.382   .     S
C34    H86     1.093   .     S
C35    C36     1.398   .     D
C35    H87     1.093   .     S
C36    C37     1.398   .     S
C36    C39     1.463   .     S
C37    C38     1.378   .     D
C37    H107    1.092   1_645 S
C38    H108    1.092   1_645 S
C39    N81     1.295   .     D
C39    H88     1.117   .     S
C40    N83     1.295   .     D
C40    H109    1.115   1_645 S
C41    N82     1.295   .     D
C41    H89     1.116   .     S
C42    N84     1.295   .     D
C42    H110    1.117   1_645 S
C43    C44     1.398   .     D
C43    C48     1.393   .     S
C43    C55     1.480   .     S
C44    C45     1.392   .     S
C44    H111    1.089   1_645 S
C45    C46     1.407   .     D
C45    C49     1.489   .     S
C46    C47     1.407   .     S
C46    O59     1.364   .     S
C47    C48     1.392   .     D
C47    C56     1.482   .     S
C48    H112    1.092   1_645 S
C49    C50     1.408   .     D
C49    C54     1.393   .     S
C50    C51     1.406   .     S
C50    O60     1.364   .     S
C51    C52     1.392   .     D
C51    C57     1.484   .     S
C52    C53     1.392   .     S
C52    H113    1.092   1_645 S
C53    C54     1.395   .     D
C53    C58     1.481   .     S
C54    H114    1.090   1_645 S
C55    C76     1.398   .     D
C55    C80     1.397   .     S
C56    C71     1.398   .     D
C56    C75     1.396   .     S
C57    C66     1.399   .     D
C57    C70     1.397   .     S
C58    C61     1.397   .     D
C58    C65     1.397   .     S
O59    H115    0.975   1_645 S
O60    H116    0.975   1_645 S
C61    C62     1.378   .     S
C61    H117    1.091   1_645 S
C62    C63     1.400   .     D
C62    H118    1.091   1_645 S
C63    C64     1.400   .     S
C63    N81     1.407   1_545 S
C64    C65     1.383   .     D
C64    H119    1.092   1_645 S
C65    H120    1.092   1_645 S
C66    C67     1.383   .     S
C66    H121    1.093   1_645 S
C67    C68     1.399   .     D
C67    H122    1.092   1_645 S
C68    C69     1.399   .     S
C68    N82     1.405   1_445 S
C69    C70     1.378   .     D
C69    H123    1.091   1_645 S
C70    H124    1.091   1_645 S
C71    C72     1.379   .     S
C71    H125    1.092   1_645 S
C72    C73     1.398   .     D
C72    H126    1.091   1_645 S
C73    C74     1.398   .     S
C73    N83     1.411   .     S
C74    C75     1.381   .     D
C74    H127    1.091   1_645 S
C75    H128    1.092   1_645 S
C76    C77     1.381   .     S
C76    H129    1.092   1_645 S
C77    C78     1.397   .     D
C77    H130    1.091   1_645 S
C78    C79     1.399   .     S
C78    N84     1.413   1_455 S
C79    C80     1.380   .     D
C79    H131    1.092   1_645 S
C80    H132    1.092   1_645 S
N81    C63     1.407   1_565 S
N82    C68     1.405   1_665 S
N84    C78     1.413   1_655 S
H90    C2      1.090   1_465 S
H91    C6      1.092   1_465 S
H92    C10     1.092   1_465 S
H93    C12     1.090   1_465 S
H94    O17     0.976   1_465 S
H95    O18     0.975   1_465 S
H96    C19     1.092   1_465 S
H97    C20     1.093   1_465 S
H98    C22     1.092   1_465 S
H99    C23     1.092   1_465 S
H100   C24     1.092   1_465 S
H101   C25     1.092   1_465 S
H102   C27     1.092   1_465 S
H103   C28     1.091   1_465 S
H104   C29     1.092   1_465 S
H105   C30     1.093   1_465 S
H106   C33     1.093   1_465 S
H107   C37     1.092   1_465 S
H108   C38     1.092   1_465 S
H109   C40     1.115   1_465 S
H110   C42     1.117   1_465 S
H111   C44     1.089   1_465 S
H112   C48     1.092   1_465 S
H113   C52     1.092   1_465 S
H114   C54     1.090   1_465 S
H115   O59     0.975   1_465 S
H116   O60     0.975   1_465 S
H117   C61     1.091   1_465 S
H118   C62     1.091   1_465 S
H119   C64     1.092   1_465 S
H120   C65     1.092   1_465 S
H121   C66     1.093   1_465 S
H122   C67     1.092   1_465 S
H123   C69     1.091   1_465 S
H124   C70     1.091   1_465 S
H125   C71     1.092   1_465 S
H126   C72     1.091   1_465 S
H127   C74     1.091   1_465 S
H128   C75     1.092   1_465 S
H129   C76     1.092   1_465 S
H130   C77     1.091   1_465 S
H131   C79     1.092   1_465 S
H132   C80     1.092   1_465 S
