data_34
_audit_creation_date              2023-09-08
_audit_creation_method            'Materials Studio'
_symmetry_space_group_name_H-M    'P1'
_symmetry_Int_Tables_number       1
_symmetry_cell_setting            triclinic
loop_
_symmetry_equiv_pos_as_xyz
  x,y,z
_cell_length_a                    37.4439
_cell_length_b                    37.4439
_cell_length_c                    6.0044
_cell_angle_alpha                 90.0000
_cell_angle_beta                  90.0000
_cell_angle_gamma                 120.0000
loop_
_atom_site_label
_atom_site_type_symbol
_atom_site_fract_x
_atom_site_fract_y
_atom_site_fract_z
_atom_site_U_iso_or_equiv
_atom_site_adp_type
_atom_site_occupancy
C1     C     0.95900   0.97765   0.26236   0.00000  Uiso   1.00
N2     N     0.98085   0.95785   0.26232   0.00000  Uiso   1.00
C3     C     0.91340   0.95263   0.26308   0.00000  Uiso   1.00
C4     C     0.02881   0.91745   0.26628   0.00000  Uiso   1.00
C5     C     0.05233   0.89802   0.26814   0.00000  Uiso   1.00
C6     C     0.09590   0.92158   0.26657   0.00000  Uiso   1.00
C7     C     0.11446   0.96504   0.26295   0.00000  Uiso   1.00
C8     C     0.09076   0.98418   0.26131   0.00000  Uiso   1.00
N9     N     0.12279   0.90558   0.26904   0.00000  Uiso   1.00
C10    C     0.11111   0.86661   0.26895   0.00000  Uiso   1.00
C11    C     0.14015   0.85113   0.27126   0.00000  Uiso   1.00
C12    C     0.12398   0.80800   0.27062   0.00000  Uiso   1.00
C13    C     0.14924   0.79019   0.27077   0.00000  Uiso   1.00
H14    H     0.99496   0.89882   0.26760   0.00000  Uiso   1.00
H15    H     0.03658   0.86417   0.27116   0.00000  Uiso   1.00
H16    H     0.14829   0.98388   0.26143   0.00000  Uiso   1.00
H17    H     0.10579   0.01801   0.25868   0.00000  Uiso   1.00
H18    H     0.07771   0.84207   0.26648   0.00000  Uiso   1.00
O19    O     0.12966   0.74808   0.26964   0.00000  Uiso   1.00
H20    H     0.24284   0.87908   0.27674   0.00000  Uiso   1.00
H21    H     0.18303   0.92767   0.27286   0.00000  Uiso   1.00
C22    C     0.37433   0.68903   0.26161   0.00000  Uiso   1.00
N23    N     0.35246   0.70880   0.26156   0.00000  Uiso   1.00
C24    C     0.41994   0.71409   0.26287   0.00000  Uiso   1.00
C25    C     0.30395   0.74873   0.23068   0.00000  Uiso   1.00
C26    C     0.28034   0.76805   0.23141   0.00000  Uiso   1.00
C27    C     0.23727   0.74487   0.26694   0.00000  Uiso   1.00
C28    C     0.21917   0.70183   0.29829   0.00000  Uiso   1.00
C29    C     0.24296   0.68279   0.29626   0.00000  Uiso   1.00
N30    N     0.21039   0.76088   0.26689   0.00000  Uiso   1.00
C31    C     0.22209   0.79981   0.27486   0.00000  Uiso   1.00
C32    C     0.19310   0.81535   0.27284   0.00000  Uiso   1.00
C33    C     0.20926   0.85847   0.27488   0.00000  Uiso   1.00
C34    C     0.18400   0.87628   0.27349   0.00000  Uiso   1.00
H35    H     0.33742   0.76705   0.20282   0.00000  Uiso   1.00
H36    H     0.29550   0.80146   0.20233   0.00000  Uiso   1.00
H37    H     0.18574   0.68330   0.32595   0.00000  Uiso   1.00
H38    H     0.22834   0.64929   0.32107   0.00000  Uiso   1.00
H39    H     0.25548   0.82422   0.28539   0.00000  Uiso   1.00
O40    O     0.20356   0.91841   0.27446   0.00000  Uiso   1.00
H41    H     0.09040   0.78740   0.26954   0.00000  Uiso   1.00
H42    H     0.15013   0.73875   0.27018   0.00000  Uiso   1.00
C43    C     0.02235   0.98135   0.26236   0.00000  Uiso   1.00
C44    C     0.04737   0.96077   0.26308   0.00000  Uiso   1.00
C45    C     0.08255   0.11136   0.26628   0.00000  Uiso   1.00
C46    C     0.10198   0.15431   0.26814   0.00000  Uiso   1.00
C47    C     0.07842   0.17432   0.26657   0.00000  Uiso   1.00
C48    C     0.03496   0.14942   0.26295   0.00000  Uiso   1.00
C49    C     0.01582   0.10658   0.26131   0.00000  Uiso   1.00
N50    N     0.09442   0.21721   0.26904   0.00000  Uiso   1.00
C51    C     0.13339   0.24450   0.26895   0.00000  Uiso   1.00
C52    C     0.14887   0.28902   0.27126   0.00000  Uiso   1.00
C53    C     0.19200   0.31598   0.27062   0.00000  Uiso   1.00
C54    C     0.20981   0.35905   0.27077   0.00000  Uiso   1.00
H55    H     0.13583   0.17241   0.27116   0.00000  Uiso   1.00
H56    H     0.01612   0.16441   0.26143   0.00000  Uiso   1.00
H57    H     0.15793   0.23564   0.26648   0.00000  Uiso   1.00
O58    O     0.25192   0.38158   0.26964   0.00000  Uiso   1.00
H59    H     0.12092   0.36376   0.27674   0.00000  Uiso   1.00
H60    H     0.07233   0.25536   0.27286   0.00000  Uiso   1.00
C61    C     0.31097   0.68530   0.26161   0.00000  Uiso   1.00
N62    N     0.29120   0.64366   0.26156   0.00000  Uiso   1.00
C63    C     0.28591   0.70585   0.26287   0.00000  Uiso   1.00
C64    C     0.25127   0.55522   0.23068   0.00000  Uiso   1.00
C65    C     0.23195   0.51229   0.23141   0.00000  Uiso   1.00
C66    C     0.25513   0.49240   0.26694   0.00000  Uiso   1.00
C67    C     0.29817   0.51734   0.29829   0.00000  Uiso   1.00
C68    C     0.31721   0.56017   0.29626   0.00000  Uiso   1.00
N69    N     0.23912   0.44951   0.26689   0.00000  Uiso   1.00
C70    C     0.20019   0.42228   0.27486   0.00000  Uiso   1.00
C71    C     0.18465   0.37775   0.27284   0.00000  Uiso   1.00
C72    C     0.14153   0.35079   0.27488   0.00000  Uiso   1.00
C73    C     0.12372   0.30772   0.27349   0.00000  Uiso   1.00
H74    H     0.23295   0.57037   0.20282   0.00000  Uiso   1.00
H75    H     0.19854   0.49404   0.20233   0.00000  Uiso   1.00
H76    H     0.31670   0.50244   0.32595   0.00000  Uiso   1.00
H77    H     0.35071   0.57905   0.32107   0.00000  Uiso   1.00
H78    H     0.17578   0.43126   0.28539   0.00000  Uiso   1.00
O79    O     0.08159   0.28515   0.27446   0.00000  Uiso   1.00
H80    H     0.21260   0.30300   0.26954   0.00000  Uiso   1.00
H81    H     0.26125   0.41138   0.27018   0.00000  Uiso   1.00
C82    C     0.01865   0.04100   0.26236   0.00000  Uiso   1.00
C83    C     0.03923   0.08660   0.26308   0.00000  Uiso   1.00
C84    C     0.88864   0.97119   0.26628   0.00000  Uiso   1.00
C85    C     0.84569   0.94767   0.26814   0.00000  Uiso   1.00
C86    C     0.82568   0.90410   0.26657   0.00000  Uiso   1.00
C87    C     0.85058   0.88554   0.26295   0.00000  Uiso   1.00
C88    C     0.89342   0.90924   0.26131   0.00000  Uiso   1.00
N89    N     0.78279   0.87721   0.26904   0.00000  Uiso   1.00
C90    C     0.75550   0.88889   0.26895   0.00000  Uiso   1.00
C91    C     0.71098   0.85985   0.27126   0.00000  Uiso   1.00
C92    C     0.68402   0.87602   0.27062   0.00000  Uiso   1.00
C93    C     0.64095   0.85076   0.27077   0.00000  Uiso   1.00
H94    H     0.82759   0.96342   0.27116   0.00000  Uiso   1.00
H95    H     0.83559   0.85171   0.26143   0.00000  Uiso   1.00
H96    H     0.76436   0.92229   0.26648   0.00000  Uiso   1.00
O97    O     0.61842   0.87034   0.26964   0.00000  Uiso   1.00
H98    H     0.63624   0.75716   0.27674   0.00000  Uiso   1.00
H99    H     0.74464   0.81697   0.27286   0.00000  Uiso   1.00
C100   C     0.31470   0.62567   0.26161   0.00000  Uiso   1.00
N101   N     0.35634   0.64754   0.26156   0.00000  Uiso   1.00
C102   C     0.29415   0.58006   0.26287   0.00000  Uiso   1.00
C103   C     0.44478   0.69605   0.23068   0.00000  Uiso   1.00
C104   C     0.48771   0.71966   0.23141   0.00000  Uiso   1.00
C105   C     0.50760   0.76273   0.26694   0.00000  Uiso   1.00
C106   C     0.48266   0.78083   0.29829   0.00000  Uiso   1.00
C107   C     0.43983   0.75704   0.29626   0.00000  Uiso   1.00
N108   N     0.55049   0.78961   0.26689   0.00000  Uiso   1.00
C109   C     0.57772   0.77791   0.27486   0.00000  Uiso   1.00
C110   C     0.62225   0.80690   0.27284   0.00000  Uiso   1.00
C111   C     0.64921   0.79074   0.27488   0.00000  Uiso   1.00
C112   C     0.69228   0.81600   0.27349   0.00000  Uiso   1.00
H113   H     0.42963   0.66258   0.20282   0.00000  Uiso   1.00
H114   H     0.50596   0.70450   0.20233   0.00000  Uiso   1.00
H115   H     0.49756   0.81426   0.32595   0.00000  Uiso   1.00
H116   H     0.42095   0.77166   0.32107   0.00000  Uiso   1.00
H117   H     0.56874   0.74452   0.28539   0.00000  Uiso   1.00
O118   O     0.71485   0.79644   0.27446   0.00000  Uiso   1.00
H119   H     0.69700   0.90960   0.26954   0.00000  Uiso   1.00
H120   H     0.58862   0.84987   0.27018   0.00000  Uiso   1.00
C121   C     0.04100   0.02235   0.76236   0.00000  Uiso   1.00
N122   N     0.01915   0.04215   0.76232   0.00000  Uiso   1.00
C123   C     0.08660   0.04737   0.76308   0.00000  Uiso   1.00
C124   C     0.97119   0.08255   0.76628   0.00000  Uiso   1.00
C125   C     0.94767   0.10198   0.76814   0.00000  Uiso   1.00
C126   C     0.90410   0.07842   0.76657   0.00000  Uiso   1.00
C127   C     0.88554   0.03496   0.76295   0.00000  Uiso   1.00
C128   C     0.90924   0.01582   0.76131   0.00000  Uiso   1.00
N129   N     0.87721   0.09442   0.76904   0.00000  Uiso   1.00
C130   C     0.88889   0.13339   0.76895   0.00000  Uiso   1.00
C131   C     0.85985   0.14887   0.77126   0.00000  Uiso   1.00
C132   C     0.87602   0.19200   0.77062   0.00000  Uiso   1.00
C133   C     0.85076   0.20981   0.77077   0.00000  Uiso   1.00
H134   H     0.00504   0.10118   0.76760   0.00000  Uiso   1.00
H135   H     0.96342   0.13583   0.77116   0.00000  Uiso   1.00
H136   H     0.85171   0.01612   0.76143   0.00000  Uiso   1.00
H137   H     0.89421   0.98199   0.75868   0.00000  Uiso   1.00
H138   H     0.92229   0.15793   0.76648   0.00000  Uiso   1.00
O139   O     0.87034   0.25192   0.76964   0.00000  Uiso   1.00
H140   H     0.75716   0.12092   0.77674   0.00000  Uiso   1.00
H141   H     0.81697   0.07233   0.77286   0.00000  Uiso   1.00
C142   C     0.62567   0.31097   0.76161   0.00000  Uiso   1.00
N143   N     0.64754   0.29120   0.76156   0.00000  Uiso   1.00
C144   C     0.58006   0.28591   0.76287   0.00000  Uiso   1.00
C145   C     0.69605   0.25127   0.73068   0.00000  Uiso   1.00
C146   C     0.71966   0.23195   0.73141   0.00000  Uiso   1.00
C147   C     0.76273   0.25513   0.76694   0.00000  Uiso   1.00
C148   C     0.78083   0.29817   0.79829   0.00000  Uiso   1.00
C149   C     0.75704   0.31721   0.79626   0.00000  Uiso   1.00
N150   N     0.78961   0.23912   0.76689   0.00000  Uiso   1.00
C151   C     0.77791   0.20019   0.77486   0.00000  Uiso   1.00
C152   C     0.80690   0.18465   0.77284   0.00000  Uiso   1.00
C153   C     0.79074   0.14153   0.77488   0.00000  Uiso   1.00
C154   C     0.81600   0.12372   0.77349   0.00000  Uiso   1.00
H155   H     0.66258   0.23295   0.70282   0.00000  Uiso   1.00
H156   H     0.70450   0.19854   0.70233   0.00000  Uiso   1.00
H157   H     0.81426   0.31670   0.82595   0.00000  Uiso   1.00
H158   H     0.77166   0.35071   0.82107   0.00000  Uiso   1.00
H159   H     0.74452   0.17578   0.78539   0.00000  Uiso   1.00
O160   O     0.79644   0.08159   0.77446   0.00000  Uiso   1.00
H161   H     0.90960   0.21260   0.76954   0.00000  Uiso   1.00
H162   H     0.84987   0.26125   0.77018   0.00000  Uiso   1.00
C163   C     0.97765   0.01865   0.76236   0.00000  Uiso   1.00
C164   C     0.95263   0.03923   0.76308   0.00000  Uiso   1.00
C165   C     0.91745   0.88864   0.76628   0.00000  Uiso   1.00
C166   C     0.89802   0.84569   0.76814   0.00000  Uiso   1.00
C167   C     0.92158   0.82568   0.76657   0.00000  Uiso   1.00
C168   C     0.96504   0.85058   0.76295   0.00000  Uiso   1.00
C169   C     0.98418   0.89342   0.76131   0.00000  Uiso   1.00
N170   N     0.90558   0.78279   0.76904   0.00000  Uiso   1.00
C171   C     0.86661   0.75550   0.76895   0.00000  Uiso   1.00
C172   C     0.85113   0.71098   0.77126   0.00000  Uiso   1.00
C173   C     0.80800   0.68402   0.77062   0.00000  Uiso   1.00
C174   C     0.79019   0.64095   0.77077   0.00000  Uiso   1.00
H175   H     0.86417   0.82759   0.77116   0.00000  Uiso   1.00
H176   H     0.98388   0.83559   0.76143   0.00000  Uiso   1.00
H177   H     0.84207   0.76436   0.76648   0.00000  Uiso   1.00
O178   O     0.74808   0.61842   0.76964   0.00000  Uiso   1.00
H179   H     0.87908   0.63624   0.77674   0.00000  Uiso   1.00
H180   H     0.92767   0.74464   0.77286   0.00000  Uiso   1.00
C181   C     0.68903   0.31470   0.76161   0.00000  Uiso   1.00
N182   N     0.70880   0.35634   0.76156   0.00000  Uiso   1.00
C183   C     0.71409   0.29415   0.76287   0.00000  Uiso   1.00
C184   C     0.74873   0.44478   0.73068   0.00000  Uiso   1.00
C185   C     0.76805   0.48771   0.73141   0.00000  Uiso   1.00
C186   C     0.74487   0.50760   0.76694   0.00000  Uiso   1.00
C187   C     0.70183   0.48266   0.79829   0.00000  Uiso   1.00
C188   C     0.68279   0.43983   0.79626   0.00000  Uiso   1.00
N189   N     0.76088   0.55049   0.76689   0.00000  Uiso   1.00
C190   C     0.79981   0.57772   0.77486   0.00000  Uiso   1.00
C191   C     0.81535   0.62225   0.77284   0.00000  Uiso   1.00
C192   C     0.85847   0.64921   0.77488   0.00000  Uiso   1.00
C193   C     0.87628   0.69228   0.77349   0.00000  Uiso   1.00
H194   H     0.76705   0.42963   0.70282   0.00000  Uiso   1.00
H195   H     0.80146   0.50596   0.70233   0.00000  Uiso   1.00
H196   H     0.68330   0.49756   0.82595   0.00000  Uiso   1.00
H197   H     0.64929   0.42095   0.82107   0.00000  Uiso   1.00
H198   H     0.82422   0.56874   0.78539   0.00000  Uiso   1.00
O199   O     0.91841   0.71485   0.77446   0.00000  Uiso   1.00
H200   H     0.78740   0.69700   0.76954   0.00000  Uiso   1.00
H201   H     0.73875   0.58862   0.77018   0.00000  Uiso   1.00
C202   C     0.98135   0.95900   0.76236   0.00000  Uiso   1.00
C203   C     0.96077   0.91340   0.76308   0.00000  Uiso   1.00
C204   C     0.11136   0.02881   0.76628   0.00000  Uiso   1.00
C205   C     0.15431   0.05233   0.76814   0.00000  Uiso   1.00
C206   C     0.17432   0.09590   0.76657   0.00000  Uiso   1.00
C207   C     0.14942   0.11446   0.76295   0.00000  Uiso   1.00
C208   C     0.10658   0.09076   0.76131   0.00000  Uiso   1.00
N209   N     0.21721   0.12279   0.76904   0.00000  Uiso   1.00
C210   C     0.24450   0.11111   0.76895   0.00000  Uiso   1.00
C211   C     0.28902   0.14015   0.77126   0.00000  Uiso   1.00
C212   C     0.31598   0.12398   0.77062   0.00000  Uiso   1.00
C213   C     0.35905   0.14924   0.77077   0.00000  Uiso   1.00
H214   H     0.17241   0.03658   0.77116   0.00000  Uiso   1.00
H215   H     0.16441   0.14829   0.76143   0.00000  Uiso   1.00
H216   H     0.23564   0.07771   0.76648   0.00000  Uiso   1.00
O217   O     0.38158   0.12966   0.76964   0.00000  Uiso   1.00
H218   H     0.36376   0.24284   0.77674   0.00000  Uiso   1.00
H219   H     0.25536   0.18303   0.77286   0.00000  Uiso   1.00
C220   C     0.68530   0.37433   0.76161   0.00000  Uiso   1.00
N221   N     0.64366   0.35246   0.76156   0.00000  Uiso   1.00
C222   C     0.70585   0.41994   0.76287   0.00000  Uiso   1.00
C223   C     0.55522   0.30395   0.73068   0.00000  Uiso   1.00
C224   C     0.51229   0.28034   0.73141   0.00000  Uiso   1.00
C225   C     0.49240   0.23727   0.76694   0.00000  Uiso   1.00
C226   C     0.51734   0.21917   0.79829   0.00000  Uiso   1.00
C227   C     0.56017   0.24296   0.79626   0.00000  Uiso   1.00
N228   N     0.44951   0.21039   0.76689   0.00000  Uiso   1.00
C229   C     0.42228   0.22209   0.77486   0.00000  Uiso   1.00
C230   C     0.37775   0.19310   0.77284   0.00000  Uiso   1.00
C231   C     0.35079   0.20926   0.77488   0.00000  Uiso   1.00
C232   C     0.30772   0.18400   0.77349   0.00000  Uiso   1.00
H233   H     0.57037   0.33742   0.70282   0.00000  Uiso   1.00
H234   H     0.49404   0.29550   0.70233   0.00000  Uiso   1.00
H235   H     0.50244   0.18574   0.82595   0.00000  Uiso   1.00
H236   H     0.57905   0.22834   0.82107   0.00000  Uiso   1.00
H237   H     0.43126   0.25548   0.78539   0.00000  Uiso   1.00
O238   O     0.28515   0.20356   0.77446   0.00000  Uiso   1.00
H239   H     0.30300   0.09040   0.76954   0.00000  Uiso   1.00
H240   H     0.41138   0.15013   0.77018   0.00000  Uiso   1.00
N241   N     0.04215   0.02300   0.26232   0.00000  Uiso   1.00
H242   H     0.10118   0.09614   0.26760   0.00000  Uiso   1.00
H243   H     0.98199   0.08778   0.25868   0.00000  Uiso   1.00
N244   N     0.97700   0.01915   0.26232   0.00000  Uiso   1.00
H245   H     0.90386   0.00504   0.26760   0.00000  Uiso   1.00
H246   H     0.91222   0.89421   0.25868   0.00000  Uiso   1.00
N247   N     0.95785   0.97700   0.76232   0.00000  Uiso   1.00
H248   H     0.89882   0.90386   0.76760   0.00000  Uiso   1.00
H249   H     0.01801   0.91222   0.75868   0.00000  Uiso   1.00
N250   N     0.02300   0.98085   0.76232   0.00000  Uiso   1.00
H251   H     0.09614   0.99496   0.76760   0.00000  Uiso   1.00
H252   H     0.08778   0.10579   0.75868   0.00000  Uiso   1.00
loop_
_geom_bond_atom_site_label_1
_geom_bond_atom_site_label_2
_geom_bond_distance
_geom_bond_site_symmetry_2
_ccdc_geom_bond_type
C1     N2      1.351   .     D
C1     C3      1.481   .     S
C1     N244    1.350   1_565 S
N2     C43     1.350   1_655 S
C3     C84     1.410   .     D
C3     C88     1.409   .     S
C4     C5      1.395   .     S
C4     H14     1.100   1_455 S
C4     C44     1.410   .     D
C5     C6      1.414   .     D
C5     H15     1.099   .     S
C6     C7      1.414   .     S
C6     N9      1.406   .     S
C7     C8      1.392   .     D
C7     H16     1.099   .     S
C8     H17     1.099   1_565 S
C8     C44     1.409   .     S
N9     C10     1.297   .     D
C10    C11     1.466   .     S
C10    H18     1.122   .     S
C11    C12     1.413   .     D
C11    C34     1.427   .     S
C12    C13     1.404   .     S
C12    H41     1.098   .     S
C13    O19     1.367   .     S
C13    C32     1.427   .     D
H14    C4      1.100   1_655 S
H17    C8      1.099   1_545 S
O19    H42     0.989   .     S
H20    C33     1.098   .     S
H21    O40     0.989   .     S
C22    N23     1.351   .     S
C22    C24     1.481   .     S
C22    N101    1.349   .     D
N23    C61     1.349   .     D
C24    C103    1.410   .     D
C24    C107    1.408   .     S
C25    C26     1.394   .     S
C25    H35     1.100   .     S
C25    C63     1.410   .     D
C26    C27     1.414   .     D
C26    H36     1.099   .     S
C27    C28     1.414   .     S
C27    N30     1.406   .     S
C28    C29     1.392   .     D
C28    H37     1.099   .     S
C29    H38     1.099   .     S
C29    C63     1.408   .     S
N30    C31     1.296   .     D
C31    C32     1.466   .     S
C31    H39     1.122   .     S
C32    C33     1.413   .     S
C33    C34     1.404   .     D
C34    O40     1.367   .     S
C43    N2      1.350   1_455 S
C43    C44     1.481   .     S
C43    N241    1.351   1_565 D
C45    C46     1.395   .     S
C45    C83     1.410   .     D
C45    H242    1.100   .     S
C46    C47     1.414   .     D
C46    H55     1.099   .     S
C47    C48     1.414   .     S
C47    N50     1.406   .     S
C48    C49     1.392   .     D
C48    H56     1.099   .     S
C49    C83     1.409   .     S
C49    H243    1.099   1_455 S
N50    C51     1.297   .     D
C51    C52     1.466   .     S
C51    H57     1.122   .     S
C52    C53     1.413   .     D
C52    C73     1.427   .     S
C53    C54     1.404   .     S
C53    H80     1.098   .     S
C54    O58     1.367   .     S
C54    C71     1.427   .     D
O58    H81     0.989   .     S
H59    C72     1.098   .     S
H60    O79     0.989   .     S
C61    N62     1.351   .     S
C61    C63     1.481   .     S
N62    C100    1.349   .     D
C64    C65     1.394   .     S
C64    H74     1.100   .     S
C64    C102    1.410   .     D
C65    C66     1.414   .     D
C65    H75     1.099   .     S
C66    C67     1.414   .     S
C66    N69     1.406   .     S
C67    C68     1.392   .     D
C67    H76     1.099   .     S
C68    H77     1.099   .     S
C68    C102    1.408   .     S
N69    C70     1.296   .     D
C70    C71     1.466   .     S
C70    H78     1.122   .     S
C71    C72     1.413   .     S
C72    C73     1.404   .     D
C73    O79     1.367   .     S
C82    C83     1.481   .     S
C82    N241    1.350   .     S
C82    N244    1.351   1_455 D
C84    C85     1.395   .     S
C84    H245    1.100   1_565 S
C85    C86     1.414   .     D
C85    H94     1.099   .     S
C86    C87     1.414   .     S
C86    N89     1.406   .     S
C87    C88     1.392   .     D
C87    H95     1.099   .     S
C88    H246    1.099   .     S
N89    C90     1.297   .     D
C90    C91     1.466   .     S
C90    H96     1.122   .     S
C91    C92     1.413   .     D
C91    C112    1.427   .     S
C92    C93     1.404   .     S
C92    H119    1.098   .     S
C93    O97     1.367   .     S
C93    C110    1.427   .     D
O97    H120    0.989   .     S
H98    C111    1.098   .     S
H99    O118    0.989   .     S
C100   N101    1.351   .     S
C100   C102    1.481   .     S
C103   C104    1.394   .     S
C103   H113    1.100   .     S
C104   C105    1.414   .     D
C104   H114    1.099   .     S
C105   C106    1.414   .     S
C105   N108    1.406   .     S
C106   C107    1.392   .     D
C106   H115    1.099   .     S
C107   H116    1.099   .     S
N108   C109    1.296   .     D
C109   C110    1.466   .     S
C109   H117    1.122   .     S
C110   C111    1.413   .     S
C111   C112    1.404   .     D
C112   O118    1.367   .     S
C121   N122    1.351   .     D
C121   C123    1.481   .     S
C121   N250    1.350   1_545 S
N122   C163    1.350   1_455 S
C123   C204    1.410   .     D
C123   C208    1.409   .     S
C124   C125    1.395   .     D
C124   H134    1.100   1_655 S
C124   C164    1.410   .     S
C125   C126    1.414   .     S
C125   H135    1.099   .     S
C126   C127    1.414   .     D
C126   N129    1.406   .     S
C127   C128    1.392   .     S
C127   H136    1.099   .     S
C128   H137    1.099   1_545 S
C128   C164    1.409   .     D
N129   C130    1.297   .     D
C130   C131    1.466   .     S
C130   H138    1.122   .     S
C131   C132    1.413   .     D
C131   C154    1.427   .     S
C132   C133    1.404   .     S
C132   H161    1.098   .     S
C133   O139    1.367   .     S
C133   C152    1.427   .     D
H134   C124    1.100   1_455 S
H137   C128    1.099   1_565 S
O139   H162    0.989   .     S
H140   C153    1.098   .     S
H141   O160    0.989   .     S
C142   N143    1.351   .     S
C142   C144    1.481   .     S
C142   N221    1.349   .     D
N143   C181    1.349   .     D
C144   C223    1.410   .     D
C144   C227    1.408   .     S
C145   C146    1.394   .     S
C145   H155    1.100   .     S
C145   C183    1.410   .     D
C146   C147    1.414   .     D
C146   H156    1.099   .     S
C147   C148    1.414   .     S
C147   N150    1.406   .     S
C148   C149    1.392   .     D
C148   H157    1.099   .     S
C149   H158    1.099   .     S
C149   C183    1.408   .     S
N150   C151    1.296   .     D
C151   C152    1.466   .     S
C151   H159    1.122   .     S
C152   C153    1.413   .     S
C153   C154    1.404   .     D
C154   O160    1.367   .     S
C163   N122    1.350   1_655 S
C163   C164    1.481   .     S
C163   N247    1.351   1_545 D
C165   C166    1.395   .     S
C165   C203    1.410   .     D
C165   H248    1.100   .     S
C166   C167    1.414   .     D
C166   H175    1.099   .     S
C167   C168    1.414   .     S
C167   N170    1.406   .     S
C168   C169    1.392   .     D
C168   H176    1.099   .     S
C169   C203    1.409   .     S
C169   H249    1.099   1_655 S
N170   C171    1.297   .     D
C171   C172    1.466   .     S
C171   H177    1.122   .     S
C172   C173    1.413   .     D
C172   C193    1.427   .     S
C173   C174    1.404   .     S
C173   H200    1.098   .     S
C174   O178    1.367   .     S
C174   C191    1.427   .     D
O178   H201    0.989   .     S
H179   C192    1.098   .     S
H180   O199    0.989   .     S
C181   N182    1.351   .     S
C181   C183    1.481   .     S
N182   C220    1.349   .     D
C184   C185    1.394   .     S
C184   H194    1.100   .     S
C184   C222    1.410   .     D
C185   C186    1.414   .     D
C185   H195    1.099   .     S
C186   C187    1.414   .     S
C186   N189    1.406   .     S
C187   C188    1.392   .     D
C187   H196    1.099   .     S
C188   H197    1.099   .     S
C188   C222    1.408   .     S
N189   C190    1.296   .     D
C190   C191    1.466   .     S
C190   H198    1.122   .     S
C191   C192    1.413   .     S
C192   C193    1.404   .     D
C193   O199    1.367   .     S
C202   C203    1.481   .     S
C202   N247    1.350   .     S
C202   N250    1.351   1_655 D
C204   C205    1.395   .     S
C204   H251    1.100   1_545 S
C205   C206    1.414   .     D
C205   H214    1.099   .     S
C206   C207    1.414   .     S
C206   N209    1.406   .     S
C207   C208    1.392   .     D
C207   H215    1.099   .     S
C208   H252    1.099   .     S
N209   C210    1.297   .     D
C210   C211    1.466   .     S
C210   H216    1.122   .     S
C211   C212    1.413   .     D
C211   C232    1.427   .     S
C212   C213    1.404   .     S
C212   H239    1.098   .     S
C213   O217    1.367   .     S
C213   C230    1.427   .     D
O217   H240    0.989   .     S
H218   C231    1.098   .     S
H219   O238    0.989   .     S
C220   N221    1.351   .     S
C220   C222    1.481   .     S
C223   C224    1.394   .     S
C223   H233    1.100   .     S
C224   C225    1.414   .     D
C224   H234    1.099   .     S
C225   C226    1.414   .     S
C225   N228    1.406   .     S
C226   C227    1.392   .     D
C226   H235    1.099   .     S
C227   H236    1.099   .     S
N228   C229    1.296   .     D
C229   C230    1.466   .     S
C229   H237    1.122   .     S
C230   C231    1.413   .     S
C231   C232    1.404   .     D
C232   O238    1.367   .     S
N241   C43     1.351   1_545 D
H243   C49     1.099   1_655 S
N244   C82     1.351   1_655 D
N244   C1      1.350   1_545 S
H245   C84     1.100   1_545 S
N247   C163    1.351   1_565 D
H249   C169    1.099   1_455 S
N250   C202    1.351   1_455 D
N250   C121    1.350   1_565 S
H251   C204    1.100   1_565 S
