data_340
_audit_creation_date              2023-09-08
_audit_creation_method            'Materials Studio'
_symmetry_space_group_name_H-M    'P1'
_symmetry_Int_Tables_number       1
_symmetry_cell_setting            triclinic
loop_
_symmetry_equiv_pos_as_xyz
  x,y,z
_cell_length_a                    26.8350
_cell_length_b                    21.7360
_cell_length_c                    4.6578
_cell_angle_alpha                 90.0000
_cell_angle_beta                  118.3542
_cell_angle_gamma                 90.0000
loop_
_atom_site_label
_atom_site_type_symbol
_atom_site_fract_x
_atom_site_fract_y
_atom_site_fract_z
_atom_site_U_iso_or_equiv
_atom_site_adp_type
_atom_site_occupancy
C1     C     4.37910  -1.89634   0.58781   0.00000  Uiso   1.00
C2     C     4.37933  -1.96063   0.58844   0.00000  Uiso   1.00
C3     C     4.41537  -1.99499   0.51158   0.00000  Uiso   1.00
C4     C     4.45312  -1.96177   0.43791   0.00000  Uiso   1.00
C5     C     4.45912  -1.89758   0.48301   0.00000  Uiso   1.00
C6     C     4.42093  -1.86537   0.54839   0.00000  Uiso   1.00
C7     C     4.41564  -2.06372   0.51771   0.00000  Uiso   1.00
C8     C     4.36995  -2.09889   0.49965   0.00000  Uiso   1.00
C9     C     4.37375  -2.16343   0.52991   0.00000  Uiso   1.00
C10    C     4.42239  -2.19311   0.56793   0.00000  Uiso   1.00
C11    C     4.46724  -2.15981   0.57479   0.00000  Uiso   1.00
C12    C     4.46360  -2.09577   0.55813   0.00000  Uiso   1.00
C13    C     4.33450  -1.86125   0.61785   0.00000  Uiso   1.00
C14    C     4.50727  -1.86499   0.47922   0.00000  Uiso   1.00
C15    C     4.32868  -2.20053   0.54630   0.00000  Uiso   1.00
C16    C     4.51726  -2.19195   0.59286   0.00000  Uiso   1.00
C17    C     4.27130  -2.19370   0.32275   0.00000  Uiso   1.00
C18    C     4.23072  -2.22633   0.36163   0.00000  Uiso   1.00
C19    C     4.24652  -2.26743   0.62100   0.00000  Uiso   1.00
C20    C     4.30398  -2.27660   0.83415   0.00000  Uiso   1.00
C21    C     4.34444  -2.24324   0.79864   0.00000  Uiso   1.00
C22    C     4.53460  -2.24877   0.74977   0.00000  Uiso   1.00
C23    C     4.57990  -2.27968   0.75423   0.00000  Uiso   1.00
C24    C     4.60915  -2.25499   0.60041   0.00000  Uiso   1.00
C25    C     4.59217  -2.19793   0.44575   0.00000  Uiso   1.00
C26    C     4.54709  -2.16690   0.44294   0.00000  Uiso   1.00
C27    C     4.31859  -1.80336   0.47087   0.00000  Uiso   1.00
C28    C     4.27471  -1.77112   0.47558   0.00000  Uiso   1.00
C29    C     4.24498  -1.79567   0.62677   0.00000  Uiso   1.00
C30    C     4.26136  -1.85307   0.77857   0.00000  Uiso   1.00
C31    C     4.30532  -1.88529   0.77396   0.00000  Uiso   1.00
C32    C     4.56121  -1.89161   0.63145   0.00000  Uiso   1.00
C33    C     4.60715  -1.86085   0.64443   0.00000  Uiso   1.00
C34    C     4.60059  -1.80224   0.50848   0.00000  Uiso   1.00
C35    C     4.54696  -1.77522   0.36051   0.00000  Uiso   1.00
C36    C     4.50084  -1.80624   0.34512   0.00000  Uiso   1.00
C37    C     4.19716  -1.76187   0.61790   0.00000  Uiso   1.00
C38    C     4.64949  -1.76971   0.52456   0.00000  Uiso   1.00
O39    O     4.48308  -1.99101   0.31086   0.00000  Uiso   1.00
O40    O     4.32195  -2.07037   0.45977   0.00000  Uiso   1.00
N41    N     4.69666  -1.79845   0.61165   0.00000  Uiso   1.00
N42    N     4.16637  -1.78579   0.73421   0.00000  Uiso   1.00
N43    N     4.15165  -2.28280   0.52325   0.00000  Uiso   1.00
C44    C     4.20401  -2.30031   0.67286   0.00000  Uiso   1.00
C45    C     4.86367  -2.40455   0.45688   0.00000  Uiso   1.00
C46    C     4.86706  -2.46799   0.50717   0.00000  Uiso   1.00
C47    C     4.91480  -2.50256   0.56365   0.00000  Uiso   1.00
C48    C     4.96224  -2.46895   0.59549   0.00000  Uiso   1.00
C49    C     4.95725  -2.40681   0.50440   0.00000  Uiso   1.00
C50    C     4.90761  -2.37525   0.43141   0.00000  Uiso   1.00
C51    C     4.91458  -2.57146   0.57827   0.00000  Uiso   1.00
C52    C     4.87268  -2.60669   0.60314   0.00000  Uiso   1.00
C53    C     4.87600  -2.67121   0.62449   0.00000  Uiso   1.00
C54    C     4.92079  -2.70101   0.61227   0.00000  Uiso   1.00
C55    C     4.96081  -2.66806   0.56496   0.00000  Uiso   1.00
C56    C     4.95647  -2.60418   0.54438   0.00000  Uiso   1.00
C57    C     4.81530  -2.36888   0.43971   0.00000  Uiso   1.00
C58    C     5.00321  -2.37431   0.47403   0.00000  Uiso   1.00
C59    C     4.83155  -2.70890   0.64390   0.00000  Uiso   1.00
C60    C     5.00750  -2.70077   0.54477   0.00000  Uiso   1.00
C61    C     4.80376  -2.68936   0.81631   0.00000  Uiso   1.00
C62    C     4.75904  -2.72278   0.80464   0.00000  Uiso   1.00
C63    C     4.74240  -2.77762   0.62799   0.00000  Uiso   1.00
C64    C     4.77261  -2.79987   0.47529   0.00000  Uiso   1.00
C65    C     4.81600  -2.76515   0.47916   0.00000  Uiso   1.00
C66    C     5.00172  -2.76261   0.45112   0.00000  Uiso   1.00
C67    C     5.04589  -2.79452   0.44793   0.00000  Uiso   1.00
C68    C     5.09706  -2.76481   0.52933   0.00000  Uiso   1.00
C69    C     5.10310  -2.70280   0.61915   0.00000  Uiso   1.00
C70    C     5.05897  -2.67156   0.62812   0.00000  Uiso   1.00
C71    C     4.82163  -2.30626   0.51879   0.00000  Uiso   1.00
C72    C     4.77829  -2.27271   0.52244   0.00000  Uiso   1.00
C73    C     4.72747  -2.30153   0.45681   0.00000  Uiso   1.00
C74    C     4.72016  -2.36377   0.37133   0.00000  Uiso   1.00
C75    C     4.76344  -2.39664   0.36176   0.00000  Uiso   1.00
C76    C     5.05981  -2.37815   0.71256   0.00000  Uiso   1.00
C77    C     5.10151  -2.34820   0.67286   0.00000  Uiso   1.00
C78    C     5.08749  -2.31414   0.38974   0.00000  Uiso   1.00
C79    C     5.03058  -2.30843   0.15592   0.00000  Uiso   1.00
C80    C     4.98912  -2.33831   0.19783   0.00000  Uiso   1.00
N81    N     4.68373  -2.26606   0.45968   0.00000  Uiso   1.00
O82    O     5.01597  -2.49543   0.70803   0.00000  Uiso   1.00
O83    O     4.82610  -2.57830   0.60999   0.00000  Uiso   1.00
C84    C     4.65621  -2.28876   0.59985   0.00000  Uiso   1.00
C85    C     4.77446  -2.58512   0.30801   0.00000  Uiso   1.00
C86    C     5.03990  -2.51618   1.04161   0.00000  Uiso   1.00
H87    H     4.34910  -1.98446   0.64274   0.00000  Uiso   1.00
H88    H     4.42493  -1.81547   0.57582   0.00000  Uiso   1.00
H89    H     4.42444  -2.24324   0.58436   0.00000  Uiso   1.00
H90    H     4.50052  -2.07028   0.58544   0.00000  Uiso   1.00
H91    H     4.25829  -2.16341   0.11205   0.00000  Uiso   1.00
H92    H     4.18585  -2.22049   0.18959   0.00000  Uiso   1.00
H93    H     4.31669  -2.30924   1.03520   0.00000  Uiso   1.00
H94    H     4.38917  -2.24921   0.97281   0.00000  Uiso   1.00
H95    H     4.51258  -2.26875   0.87335   0.00000  Uiso   1.00
H96    H     4.59320  -2.32391   0.87959   0.00000  Uiso   1.00
H97    H     4.61500  -2.17847   0.32569   0.00000  Uiso   1.00
H98    H     4.53386  -2.12285   0.31627   0.00000  Uiso   1.00
H99    H     4.34002  -1.78393   0.34276   0.00000  Uiso   1.00
H100   H     4.26219  -1.72647   0.35403   0.00000  Uiso   1.00
H101   H     4.23844  -1.87235   0.89849   0.00000  Uiso   1.00
H102   H     4.31732  -1.93002   0.89446   0.00000  Uiso   1.00
H103   H     4.56731  -1.93651   0.74879   0.00000  Uiso   1.00
H104   H     4.64927  -1.88151   0.76452   0.00000  Uiso   1.00
H105   H     4.54155  -1.72931   0.25411   0.00000  Uiso   1.00
H106   H     4.45902  -1.78490   0.22601   0.00000  Uiso   1.00
H107   H     4.18782  -1.71575   0.49767   0.00000  Uiso   1.00
H108   H     4.64371  -1.72018   0.45227   0.00000  Uiso   1.00
H109   H     4.50192  -1.96091   0.23968   0.00000  Uiso   1.00
H110   H     4.29673  -2.09974   0.48438   0.00000  Uiso   1.00
H111   H     4.21942  -2.33967   0.84750   0.00000  Uiso   1.00
H112   H     4.83163  -2.49111   0.51275   0.00000  Uiso   1.00
H113   H     4.90435  -2.32667   0.36555   0.00000  Uiso   1.00
H114   H     4.92450  -2.75086   0.64204   0.00000  Uiso   1.00
H115   H     4.98649  -2.57862   0.49442   0.00000  Uiso   1.00
H116   H     4.81697  -2.64695   0.95846   0.00000  Uiso   1.00
H117   H     4.73696  -2.70691   0.93654   0.00000  Uiso   1.00
H118   H     4.76006  -2.84306   0.34020   0.00000  Uiso   1.00
H119   H     4.83769  -2.78149   0.34614   0.00000  Uiso   1.00
H120   H     4.96169  -2.78639   0.37917   0.00000  Uiso   1.00
H121   H     5.04069  -2.84276   0.37476   0.00000  Uiso   1.00
H122   H     5.14331  -2.67940   0.68990   0.00000  Uiso   1.00
H123   H     5.06503  -2.62353   0.70645   0.00000  Uiso   1.00
H124   H     4.86179  -2.28334   0.58311   0.00000  Uiso   1.00
H125   H     4.78427  -2.22410   0.58863   0.00000  Uiso   1.00
H126   H     4.67990  -2.38627   0.30928   0.00000  Uiso   1.00
H127   H     4.75660  -2.44513   0.29197   0.00000  Uiso   1.00
H128   H     5.07137  -2.40402   0.93588   0.00000  Uiso   1.00
H129   H     5.14527  -2.35070   0.86693   0.00000  Uiso   1.00
H130   H     5.01942  -2.28123  -0.06313   0.00000  Uiso   1.00
H131   H     4.94489  -2.33462   0.01052   0.00000  Uiso   1.00
H132   H     4.66736  -2.33407   0.72828   0.00000  Uiso   1.00
H133   H     4.76384  -2.63398   0.24588   0.00000  Uiso   1.00
H134   H     4.77796  -2.56248   0.10636   0.00000  Uiso   1.00
H135   H     4.74055  -2.56309   0.33869   0.00000  Uiso   1.00
H136   H     5.08042  -2.53835   1.10355   0.00000  Uiso   1.00
H137   H     5.01201  -2.54943   1.07352   0.00000  Uiso   1.00
H138   H     5.04727  -2.47687   1.20624   0.00000  Uiso   1.00
loop_
_geom_bond_atom_site_label_1
_geom_bond_atom_site_label_2
_geom_bond_distance
_geom_bond_site_symmetry_2
_ccdc_geom_bond_type
C1     C2      1.397   .     D
C1     C6      1.394   .     S
C1     C13     1.481   .     S
C2     C3      1.396   .     S
C2     H87     1.089   .     S
C3     C4      1.413   .     D
C3     C7      1.494   .     S
C4     C5      1.409   .     S
C4     O39     1.361   .     S
C5     C6      1.389   .     D
C5     C14     1.481   .     S
C6     H88     1.091   .     S
C7     C8      1.413   .     D
C7     C12     1.395   .     S
C8     C9      1.409   .     S
C8     O40     1.360   .     S
C9     C10     1.390   .     D
C9     C15     1.485   .     S
C10    C11     1.392   .     S
C10    H89     1.092   .     S
C11    C12     1.395   .     D
C11    C16     1.480   .     S
C12    H90     1.089   .     S
C13    C27     1.399   .     D
C13    C31     1.398   .     S
C14    C32     1.399   .     D
C14    C36     1.396   .     S
C15    C17     1.398   .     D
C15    C21     1.396   .     S
C16    C22     1.397   .     D
C16    C26     1.399   .     S
C17    C18     1.382   .     S
C17    H91     1.092   .     S
C18    C19     1.397   .     D
C18    H92     1.092   .     S
C19    C20     1.396   .     S
C19    C44     1.460   .     S
C20    C21     1.379   .     D
C20    H93     1.092   .     S
C21    H94     1.091   .     S
C22    C23     1.380   .     S
C22    H95     1.092   .     S
C23    C24     1.397   .     D
C23    H96     1.093   .     S
C24    C25     1.398   .     S
C24    C84     1.462   .     S
C25    C26     1.380   .     D
C25    H97     1.092   .     S
C26    H98     1.092   .     S
C27    C28     1.379   .     S
C27    H99     1.091   .     S
C28    C29     1.397   .     D
C28    H100    1.093   .     S
C29    C30     1.398   .     S
C29    C37     1.462   .     S
C30    C31     1.381   .     D
C30    H101    1.092   .     S
C31    H102    1.092   .     S
C32    C33     1.378   .     S
C32    H103    1.092   .     S
C33    C34     1.396   .     D
C33    H104    1.092   .     S
C34    C35     1.396   .     S
C34    C38     1.461   .     S
C35    C36     1.381   .     D
C35    H105    1.093   .     S
C36    H106    1.091   .     S
C37    N42     1.293   .     D
C37    H107    1.117   .     S
C38    N41     1.292   .     D
C38    H108    1.117   .     S
O39    H109    0.976   .     S
O40    H110    0.976   .     S
N41    C63     1.276   1_565 S
N42    C68     1.701   1_465 S
N43    C44     1.294   .     D
N43    C78     1.673   1_455 S
C44    H111    1.116   .     S
C45    C46     1.394   .     D
C45    C50     1.394   .     S
C45    C57     1.481   .     S
C46    C47     1.398   .     S
C46    H112    1.087   .     S
C47    C48     1.413   .     D
C47    C51     1.499   .     S
C48    C49     1.403   .     S
C48    O82     1.403   .     S
C49    C50     1.389   .     D
C49    C58     1.485   .     S
C50    H113    1.091   .     S
C51    C52     1.410   .     S
C51    C56     1.401   .     D
C52    C53     1.406   .     D
C52    O83     1.408   .     S
C53    C54     1.390   .     S
C53    C59     1.485   .     S
C54    C55     1.393   .     D
C54    H114    1.091   .     S
C55    C56     1.393   .     S
C55    C60     1.482   .     S
C56    H115    1.091   .     S
C57    C71     1.399   .     D
C57    C75     1.397   .     S
C58    C76     1.395   .     D
C58    C80     1.396   .     S
C59    C61     1.397   .     D
C59    C65     1.398   .     S
C60    C66     1.399   .     D
C60    C70     1.397   .     S
C61    C62     1.382   .     S
C61    H116    1.091   .     S
C62    C63     1.396   .     D
C62    H117    1.092   .     S
C63    N41     1.276   1_545 S
C63    C64     1.395   .     S
C64    C65     1.380   .     D
C64    H118    1.091   .     S
C65    H119    1.091   .     S
C66    C67     1.379   .     S
C66    H120    1.092   .     S
C67    C68     1.397   .     D
C67    H121    1.091   .     S
C68    N42     1.701   1_645 S
C68    C69     1.398   .     S
C69    C70     1.383   .     D
C69    H122    1.093   .     S
C70    H123    1.092   .     S
C71    C72     1.380   .     S
C71    H124    1.092   .     S
C72    C73     1.396   .     D
C72    H125    1.091   .     S
C73    C74     1.398   .     S
C73    N81     1.410   .     S
C74    C75     1.382   .     D
C74    H126    1.092   .     S
C75    H127    1.093   .     S
C76    C77     1.381   .     S
C76    H128    1.090   .     S
C77    C78     1.399   .     D
C77    H129    1.091   .     S
C78    N43     1.673   1_655 S
C78    C79     1.398   .     S
C79    C80     1.380   .     D
C79    H130    1.091   .     S
C80    H131    1.092   .     S
N81    C84     1.293   .     D
O82    C86     1.443   .     S
O83    C85     1.439   .     S
C84    H132    1.117   .     S
C85    H133    1.102   .     S
C85    H134    1.103   .     S
C85    H135    1.096   .     S
C86    H136    1.095   .     S
C86    H137    1.100   .     S
C86    H138    1.101   .     S
