data_341
_audit_creation_date              2023-09-08
_audit_creation_method            'Materials Studio'
_symmetry_space_group_name_H-M    'P1'
_symmetry_Int_Tables_number       1
_symmetry_cell_setting            triclinic
loop_
_symmetry_equiv_pos_as_xyz
  x,y,z
_cell_length_a                    26.3549
_cell_length_b                    22.2376
_cell_length_c                    5.0527
_cell_angle_alpha                 90.0000
_cell_angle_beta                  64.5191
_cell_angle_gamma                 90.0000
loop_
_atom_site_label
_atom_site_type_symbol
_atom_site_fract_x
_atom_site_fract_y
_atom_site_fract_z
_atom_site_U_iso_or_equiv
_atom_site_adp_type
_atom_site_occupancy
C1     C     0.43420  -0.91572   1.15896   0.00000  Uiso   1.00
C2     C     0.43466  -0.85299   1.15805   0.00000  Uiso   1.00
C3     C     0.48441  -0.82320   1.10740   0.00000  Uiso   1.00
C4     C     0.53431  -0.85496   1.02928   0.00000  Uiso   1.00
C5     C     0.53393  -0.91772   0.99913   0.00000  Uiso   1.00
C6     C     0.48298  -0.94957   1.08440   0.00000  Uiso   1.00
C7     C     0.38338  -0.81884   1.20300   0.00000  Uiso   1.00
C8     C     0.58554  -0.82180   0.99716   0.00000  Uiso   1.00
C9     C     0.34626  -0.84200   1.09706   0.00000  Uiso   1.00
C10    C     0.30010  -0.80934   1.11990   0.00000  Uiso   1.00
C11    C     0.28930  -0.75249   1.25106   0.00000  Uiso   1.00
C12    C     0.32587  -0.72967   1.36095   0.00000  Uiso   1.00
C13    C     0.37230  -0.76226   1.33659   0.00000  Uiso   1.00
C14    C     0.57945  -0.77555   1.19661   0.00000  Uiso   1.00
C15    C     0.62574  -0.74488   1.18646   0.00000  Uiso   1.00
C16    C     0.67962  -0.76031   0.97924   0.00000  Uiso   1.00
C17    C     0.68577  -0.80569   0.77606   0.00000  Uiso   1.00
C18    C     0.63932  -0.83572   0.78332   0.00000  Uiso   1.00
C19    C     0.24115  -0.71737   1.26645   0.00000  Uiso   1.00
C20    C     0.72833  -0.72925   0.98206   0.00000  Uiso   1.00
C21    C     0.52206  -1.04685   1.15797   0.00000  Uiso   1.00
C22    C     0.52477  -1.10935   1.16312   0.00000  Uiso   1.00
C23    C     0.48563  -1.14288   1.10859   0.00000  Uiso   1.00
C24    C     0.44268  -1.11511   1.06319   0.00000  Uiso   1.00
C25    C     0.43954  -1.05187   1.07084   0.00000  Uiso   1.00
C26    C     0.48113  -1.01676   1.10195   0.00000  Uiso   1.00
C27    C     0.56991  -1.14029   1.21062   0.00000  Uiso   1.00
C28    C     0.40177  -1.15321   1.00974   0.00000  Uiso   1.00
C29    C     0.62333  -1.11467   1.11357   0.00000  Uiso   1.00
C30    C     0.66631  -1.14533   1.14124   0.00000  Uiso   1.00
C31    C     0.65720  -1.20258   1.26813   0.00000  Uiso   1.00
C32    C     0.60343  -1.22753   1.37226   0.00000  Uiso   1.00
C33    C     0.56049  -1.19689   1.34381   0.00000  Uiso   1.00
C34    C     0.38759  -1.20995   1.14051   0.00000  Uiso   1.00
C35    C     0.34745  -1.24480   1.10612   0.00000  Uiso   1.00
C36    C     0.31950  -1.22330   0.94478   0.00000  Uiso   1.00
C37    C     0.33527  -1.16776   0.80358   0.00000  Uiso   1.00
C38    C     0.37641  -1.13366   0.83146   0.00000  Uiso   1.00
C39    C     0.70356  -1.23711   1.27786   0.00000  Uiso   1.00
C40    C     0.27212  -1.25666   0.93803   0.00000  Uiso   1.00
O41    O     0.39510  -1.02342   1.03826   0.00000  Uiso   1.00
O42    O     0.58584  -0.94711   0.89861   0.00000  Uiso   1.00
C43    C     0.34132  -1.03247   1.28591   0.00000  Uiso   1.00
C44    C     0.60205  -0.97702   0.61945   0.00000  Uiso   1.00
N45    N     0.20699  -0.74030   1.17125   0.00000  Uiso   1.00
N46    N     0.77830  -0.75129   0.84990   0.00000  Uiso   1.00
N47    N     0.75340  -1.21396   1.17851   0.00000  Uiso   1.00
C48    C     0.02719  -1.54680   1.08546   0.00000  Uiso   1.00
C49    C     0.03017  -1.60935   1.07809   0.00000  Uiso   1.00
C50    C    -0.00924  -1.64150   1.01943   0.00000  Uiso   1.00
C51    C    -0.05252  -1.61256   0.98197   0.00000  Uiso   1.00
C52    C    -0.05531  -1.54939   0.99743   0.00000  Uiso   1.00
C53    C    -0.01366  -1.51548   1.03385   0.00000  Uiso   1.00
C54    C     0.07553  -1.64153   1.11846   0.00000  Uiso   1.00
C55    C    -0.09436  -1.64956   0.93044   0.00000  Uiso   1.00
C56    C     0.12777  -1.61457   1.04402   0.00000  Uiso   1.00
C57    C     0.17084  -1.64559   1.07037   0.00000  Uiso   1.00
C58    C     0.16278  -1.70512   1.16919   0.00000  Uiso   1.00
C59    C     0.11070  -1.73248   1.24324   0.00000  Uiso   1.00
C60    C     0.06763  -1.70073   1.22222   0.00000  Uiso   1.00
C61    C    -0.10948  -1.70603   1.06310   0.00000  Uiso   1.00
C62    C    -0.15020  -1.74032   1.03090   0.00000  Uiso   1.00
C63    C    -0.17790  -1.71757   0.87110   0.00000  Uiso   1.00
C64    C    -0.16163  -1.66244   0.72732   0.00000  Uiso   1.00
C65    C    -0.11967  -1.62928   0.75358   0.00000  Uiso   1.00
C66    C    -0.05963  -1.41346   1.10190   0.00000  Uiso   1.00
C67    C    -0.05735  -1.35091   1.08469   0.00000  Uiso   1.00
C68    C    -0.00640  -1.32204   1.01585   0.00000  Uiso   1.00
C69    C     0.04278  -1.35480   0.94322   0.00000  Uiso   1.00
C70    C     0.04057  -1.41765   0.92482   0.00000  Uiso   1.00
C71    C    -0.01114  -1.44827   1.02017   0.00000  Uiso   1.00
C72    C    -0.10774  -1.31513   1.12719   0.00000  Uiso   1.00
C73    C     0.09462  -1.32236   0.90690   0.00000  Uiso   1.00
C74    C    -0.16125  -1.32910   1.34321   0.00000  Uiso   1.00
C75    C    -0.20772  -1.29634   1.36863   0.00000  Uiso   1.00
C76    C    -0.20169  -1.24907   1.17365   0.00000  Uiso   1.00
C77    C    -0.14792  -1.23401   0.96205   0.00000  Uiso   1.00
C78    C    -0.10177  -1.26671   0.93924   0.00000  Uiso   1.00
C79    C     0.08910  -1.27428   1.09634   0.00000  Uiso   1.00
C80    C     0.13555  -1.24336   1.08262   0.00000  Uiso   1.00
C81    C     0.18913  -1.26150   0.88336   0.00000  Uiso   1.00
C82    C     0.19527  -1.30891   0.69091   0.00000  Uiso   1.00
C83    C     0.14833  -1.33857   0.70087   0.00000  Uiso   1.00
N84    N     0.23617  -1.22898   0.87146   0.00000  Uiso   1.00
O85    O     0.09186  -1.44876   0.82176   0.00000  Uiso   1.00
O86    O    -0.09938  -1.51958   0.96600   0.00000  Uiso   1.00
C87    C     0.10664  -1.47727   0.54081   0.00000  Uiso   1.00
C88    C    -0.15308  -1.52834   1.21276   0.00000  Uiso   1.00
H89    H     0.39412  -0.93842   1.22326   0.00000  Uiso   1.00
H90    H     0.48499  -0.77415   1.11651   0.00000  Uiso   1.00
H91    H     0.35469  -0.88582   0.98859   0.00000  Uiso   1.00
H92    H     0.27161  -0.82713   1.03314   0.00000  Uiso   1.00
H93    H     0.31759  -0.68554   1.46678   0.00000  Uiso   1.00
H94    H     0.40025  -0.74371   1.42496   0.00000  Uiso   1.00
H95    H     0.53774  -0.76438   1.36642   0.00000  Uiso   1.00
H96    H     0.62049  -0.70937   1.34624   0.00000  Uiso   1.00
H97    H     0.72786  -0.81716   0.61112   0.00000  Uiso   1.00
H98    H     0.64500  -0.87023   0.61924   0.00000  Uiso   1.00
H99    H     0.23555  -0.67128   1.36306   0.00000  Uiso   1.00
H100   H     0.71957  -0.68688   1.11347   0.00000  Uiso   1.00
H101   H     0.55258  -1.02053   1.20177   0.00000  Uiso   1.00
H102   H     0.48943  -1.19177   1.09471   0.00000  Uiso   1.00
H103   H     0.63162  -1.07069   1.00660   0.00000  Uiso   1.00
H104   H     0.70836  -1.12583   1.05884   0.00000  Uiso   1.00
H105   H     0.59555  -1.27196   1.47507   0.00000  Uiso   1.00
H106   H     0.51876  -1.21717   1.42673   0.00000  Uiso   1.00
H107   H     0.40714  -1.22649   1.27854   0.00000  Uiso   1.00
H108   H     0.33585  -1.28847   1.21539   0.00000  Uiso   1.00
H109   H     0.31387  -1.15138   0.67386   0.00000  Uiso   1.00
H110   H     0.38843  -1.09050   0.71835   0.00000  Uiso   1.00
H111   H     0.69402  -1.28423   1.36167   0.00000  Uiso   1.00
H112   H     0.26704  -1.30471   1.00945   0.00000  Uiso   1.00
H113   H     0.33045  -1.08051   1.32318   0.00000  Uiso   1.00
H114   H     0.30971  -1.00917   1.23737   0.00000  Uiso   1.00
H115   H     0.34146  -1.01343   1.48796   0.00000  Uiso   1.00
H116   H     0.60649  -0.94421   0.44674   0.00000  Uiso   1.00
H117   H     0.57109  -1.01134   0.63056   0.00000  Uiso   1.00
H118   H     0.64266  -0.99867   0.56425   0.00000  Uiso   1.00
H119   H     0.05755  -1.52139   1.13422   0.00000  Uiso   1.00
H120   H    -0.00566  -1.69029   0.99682   0.00000  Uiso   1.00
H121   H     0.13527  -1.56869   0.95828   0.00000  Uiso   1.00
H122   H     0.21182  -1.62427   1.00486   0.00000  Uiso   1.00
H123   H     0.10406  -1.77874   1.32314   0.00000  Uiso   1.00
H124   H     0.02693  -1.72247   1.28614   0.00000  Uiso   1.00
H125   H    -0.08988  -1.72304   1.20002   0.00000  Uiso   1.00
H126   H    -0.16251  -1.78373   1.14113   0.00000  Uiso   1.00
H127   H    -0.18222  -1.64571   0.59444   0.00000  Uiso   1.00
H128   H    -0.10690  -1.58637   0.63874   0.00000  Uiso   1.00
H129   H    -0.10037  -1.43512   1.17354   0.00000  Uiso   1.00
H130   H    -0.00488  -1.27299   1.01667   0.00000  Uiso   1.00
H131   H    -0.16639  -1.36581   1.49688   0.00000  Uiso   1.00
H132   H    -0.24898  -1.30715   1.54371   0.00000  Uiso   1.00
H133   H    -0.14301  -1.19718   0.80967   0.00000  Uiso   1.00
H134   H    -0.06017  -1.25547   0.76839   0.00000  Uiso   1.00
H135   H     0.04740  -1.26145   1.26112   0.00000  Uiso   1.00
H136   H     0.13077  -1.20646   1.23427   0.00000  Uiso   1.00
H137   H     0.23725  -1.32204   0.53023   0.00000  Uiso   1.00
H138   H     0.15382  -1.37467   0.54456   0.00000  Uiso   1.00
H139   H     0.11129  -1.44351   0.37146   0.00000  Uiso   1.00
H140   H     0.07475  -1.51039   0.55186   0.00000  Uiso   1.00
H141   H     0.14690  -1.50021   0.47988   0.00000  Uiso   1.00
H142   H    -0.16492  -1.57624   1.24560   0.00000  Uiso   1.00
H143   H    -0.18442  -1.50354   1.16748   0.00000  Uiso   1.00
H144   H    -0.15265  -1.51084   1.41704   0.00000  Uiso   1.00
loop_
_geom_bond_atom_site_label_1
_geom_bond_atom_site_label_2
_geom_bond_distance
_geom_bond_site_symmetry_2
_ccdc_geom_bond_type
C1     C2      1.395   .     D
C1     C6      1.394   .     S
C1     H89     1.087   .     S
C2     C3      1.391   .     S
C2     C7      1.480   .     S
C3     C4      1.392   .     D
C3     H90     1.092   .     S
C4     C5      1.404   .     S
C4     C8      1.485   .     S
C5     C6      1.412   .     D
C5     O42     1.400   .     S
C6     C26     1.496   .     S
C7     C9      1.400   .     D
C7     C13     1.398   .     S
C8     C14     1.400   .     D
C8     C18     1.398   .     S
C9     C10     1.378   .     S
C9     H91     1.093   .     S
C10    C11     1.399   .     D
C10    H92     1.093   .     S
C11    C12     1.398   .     S
C11    C19     1.463   .     S
C12    C13     1.381   .     D
C12    H93     1.094   .     S
C13    H94     1.093   .     S
C14    C15     1.379   .     S
C14    H95     1.093   .     S
C15    C16     1.397   .     D
C15    H96     1.095   .     S
C16    C17     1.398   .     S
C16    C20     1.463   .     S
C17    C18     1.381   .     D
C17    H97     1.093   .     S
C18    H98     1.092   .     S
C19    N45     1.294   .     D
C19    H99     1.117   .     S
C20    N46     1.290   .     D
C20    H100    1.118   .     S
C21    C22     1.393   .     D
C21    C26     1.398   .     S
C21    H101    1.092   .     S
C22    C23     1.393   .     S
C22    C27     1.481   .     S
C23    C24     1.392   .     D
C23    H102    1.091   .     S
C24    C25     1.408   .     S
C24    C28     1.485   .     S
C25    C26     1.409   .     D
C25    O41     1.402   .     S
C27    C29     1.398   .     D
C27    C33     1.398   .     S
C28    C34     1.399   .     D
C28    C38     1.402   .     S
C29    C30     1.380   .     S
C29    H103    1.093   .     S
C30    C31     1.399   .     D
C30    H104    1.092   .     S
C31    C32     1.397   .     S
C31    C39     1.462   .     S
C32    C33     1.380   .     D
C32    H105    1.094   .     S
C33    H106    1.092   .     S
C34    C35     1.381   .     S
C34    H107    1.094   .     S
C35    C36     1.397   .     D
C35    H108    1.094   .     S
C36    C37     1.397   .     S
C36    C40     1.465   .     S
C37    C38     1.379   .     D
C37    H109    1.095   .     S
C38    H110    1.092   .     S
C39    N47     1.294   .     D
C39    H111    1.118   .     S
C40    N84     1.290   .     D
C40    H112    1.117   .     S
O41    C43     1.445   .     S
O42    C44     1.448   .     S
C43    H113    1.101   .     S
C43    H114    1.095   .     S
C43    H115    1.107   .     S
C44    H116    1.104   .     S
C44    H117    1.101   .     S
C44    H118    1.095   .     S
N45    C58     1.407   1_565 S
N46    C63     1.419   1_665 S
N47    C76     1.409   1_655 S
C48    C49     1.393   .     S
C48    C53     1.398   .     D
C48    H119    1.091   .     S
C49    C50     1.394   .     D
C49    C54     1.481   .     S
C50    C51     1.392   .     S
C50    H120    1.091   .     S
C51    C52     1.407   .     D
C51    C55     1.486   .     S
C52    C53     1.408   .     S
C52    O86     1.404   .     S
C53    C71     1.496   .     S
C54    C56     1.397   .     D
C54    C60     1.399   .     S
C55    C61     1.398   .     D
C55    C65     1.400   .     S
C56    C57     1.383   .     S
C56    H121    1.093   .     S
C57    C58     1.398   .     D
C57    H122    1.092   .     S
C58    N45     1.407   1_545 S
C58    C59     1.397   .     S
C59    C60     1.379   .     D
C59    H123    1.091   .     S
C60    H124    1.091   .     S
C61    C62     1.382   .     S
C61    H125    1.094   .     S
C62    C63     1.396   .     D
C62    H126    1.092   .     S
C63    N46     1.419   1_445 S
C63    C64     1.395   .     S
C64    C65     1.382   .     D
C64    H127    1.094   .     S
C65    H128    1.092   .     S
C66    C67     1.393   .     D
C66    C71     1.396   .     S
C66    H129    1.087   .     S
C67    C68     1.391   .     S
C67    C72     1.482   .     S
C68    C69     1.391   .     D
C68    H130    1.092   .     S
C69    C70     1.404   .     S
C69    C73     1.485   .     S
C70    C71     1.410   .     D
C70    O85     1.404   .     S
C72    C74     1.397   .     D
C72    C78     1.399   .     S
C73    C79     1.400   .     D
C73    C83     1.396   .     S
C74    C75     1.383   .     S
C74    H131    1.094   .     S
C75    C76     1.402   .     D
C75    H132    1.093   .     S
C76    N47     1.409   1_455 S
C76    C77     1.400   .     S
C77    C78     1.379   .     D
C77    H133    1.093   .     S
C78    H134    1.093   .     S
C79    C80     1.380   .     S
C79    H135    1.093   .     S
C80    C81     1.395   .     D
C80    H136    1.092   .     S
C81    C82     1.396   .     S
C81    N84     1.414   .     S
C82    C83     1.384   .     D
C82    H137    1.093   .     S
C83    H138    1.091   .     S
O85    C87     1.447   .     S
O86    C88     1.441   .     S
C87    H139    1.105   .     S
C87    H140    1.101   .     S
C87    H141    1.095   .     S
C88    H142    1.102   .     S
C88    H143    1.096   .     S
C88    H144    1.108   .     S
