data_342
_audit_creation_date              2023-09-08
_audit_creation_method            'Materials Studio'
_symmetry_space_group_name_H-M    'P1'
_symmetry_Int_Tables_number       1
_symmetry_cell_setting            triclinic
loop_
_symmetry_equiv_pos_as_xyz
  x,y,z
_cell_length_a                    61.0419
_cell_length_b                    3.5335
_cell_length_c                    59.1305
_cell_angle_alpha                 90.0000
_cell_angle_beta                  61.0662
_cell_angle_gamma                 90.0000
loop_
_atom_site_label
_atom_site_type_symbol
_atom_site_fract_x
_atom_site_fract_y
_atom_site_fract_z
_atom_site_U_iso_or_equiv
_atom_site_adp_type
_atom_site_occupancy
C1     C     0.34093   0.50000   0.34985   0.00000  Uiso   1.00
C2     C     0.31432   0.50000   0.36298   0.00000  Uiso   1.00
C3     C     0.29894   0.50000   0.35095   0.00000  Uiso   1.00
C4     C     0.31247   0.50000   0.32346   0.00000  Uiso   1.00
C5     C     0.33892   0.50000   0.30803   0.00000  Uiso   1.00
C6     C     0.35184   0.50000   0.32254   0.00000  Uiso   1.00
H7     H     0.30537   0.50000   0.38495   0.00000  Uiso   1.00
H8     H     0.30197   0.50000   0.31193   0.00000  Uiso   1.00
H9     H     0.37317   0.50000   0.31218   0.00000  Uiso   1.00
C10    C     0.35177   0.50000   0.28005   0.00000  Uiso   1.00
C11    C     0.37845   0.50000   0.26482   0.00000  Uiso   1.00
C12    C     0.39117   0.50000   0.23765   0.00000  Uiso   1.00
C13    C     0.37805   0.50000   0.22366   0.00000  Uiso   1.00
C14    C     0.35170   0.50000   0.23782   0.00000  Uiso   1.00
C15    C     0.33910   0.50000   0.26508   0.00000  Uiso   1.00
H16    H     0.38946   0.50000   0.27582   0.00000  Uiso   1.00
H17    H     0.41251   0.50000   0.22663   0.00000  Uiso   1.00
H18    H     0.34026   0.50000   0.22725   0.00000  Uiso   1.00
H19    H     0.31777   0.50000   0.27624   0.00000  Uiso   1.00
C20    C     0.27186   0.50000   0.36525   0.00000  Uiso   1.00
C21    C     0.25632   0.50000   0.35331   0.00000  Uiso   1.00
C22    C     0.22997   0.50000   0.36741   0.00000  Uiso   1.00
C23    C     0.21732   0.50000   0.39450   0.00000  Uiso   1.00
C24    C     0.23190   0.50000   0.40707   0.00000  Uiso   1.00
C25    C     0.25819   0.50000   0.39282   0.00000  Uiso   1.00
H26    H     0.26625   0.50000   0.33128   0.00000  Uiso   1.00
H27    H     0.21858   0.50000   0.35679   0.00000  Uiso   1.00
H28    H     0.22240   0.50000   0.42907   0.00000  Uiso   1.00
H29    H     0.26971   0.50000   0.40329   0.00000  Uiso   1.00
C30    C     0.35593   0.50000   0.36275   0.00000  Uiso   1.00
C31    C     0.38270   0.50000   0.34916   0.00000  Uiso   1.00
C32    C     0.39744   0.50000   0.36147   0.00000  Uiso   1.00
C33    C     0.38628   0.50000   0.38860   0.00000  Uiso   1.00
C34    C     0.36003   0.50000   0.40273   0.00000  Uiso   1.00
C35    C     0.34539   0.50000   0.39020   0.00000  Uiso   1.00
H36    H     0.39203   0.50000   0.32716   0.00000  Uiso   1.00
H37    H     0.41872   0.50000   0.34947   0.00000  Uiso   1.00
H38    H     0.35015   0.50000   0.42475   0.00000  Uiso   1.00
H39    H     0.32409   0.50000   0.40208   0.00000  Uiso   1.00
C40    C     0.14919   0.50000   0.44180   0.00000  Uiso   1.00
C41    C     0.13290   0.50000   0.46868   0.00000  Uiso   1.00
C42    C     0.10680   0.50000   0.47873   0.00000  Uiso   1.00
C43    C     0.09516   0.50000   0.46283   0.00000  Uiso   1.00
C44    C     0.11221   0.50000   0.43573   0.00000  Uiso   1.00
C45    C     0.13838   0.50000   0.42548   0.00000  Uiso   1.00
H46    H     0.14116   0.50000   0.48233   0.00000  Uiso   1.00
H47    H     0.09389   0.50000   0.50052   0.00000  Uiso   1.00
H48    H     0.10479   0.50000   0.42136   0.00000  Uiso   1.00
H49    H     0.15116   0.50000   0.40365   0.00000  Uiso   1.00
N50    N     0.06839   0.50000   0.47340   0.00000  Uiso   1.00
C51    C     0.05661   0.50000   0.45774   0.00000  Uiso   1.00
C52    C     0.03045   0.50000   0.46807   0.00000  Uiso   1.00
C53    C     0.01336   0.50000   0.49498   0.00000  Uiso   1.00
C54    C     0.02511   0.50000   0.51073   0.00000  Uiso   1.00
C55    C     0.05131   0.50000   0.50039   0.00000  Uiso   1.00
H56    H     0.06934   0.50000   0.43591   0.00000  Uiso   1.00
H57    H     0.02198   0.50000   0.45460   0.00000  Uiso   1.00
H58    H     0.01323   0.50000   0.53268   0.00000  Uiso   1.00
H59    H     0.05978   0.50000   0.51386   0.00000  Uiso   1.00
C60    C     0.17527   0.50000   0.43213   0.00000  Uiso   1.00
N61    N     0.19195   0.50000   0.40658   0.00000  Uiso   1.00
H62    H     0.18215   0.50000   0.44694   0.00000  Uiso   1.00
C63    C     0.56545   0.50000   0.58982   0.00000  Uiso   1.00
C64    C     0.53920   0.50000   0.60040   0.00000  Uiso   1.00
C65    C     0.52805   0.50000   0.58443   0.00000  Uiso   1.00
C66    C     0.54211   0.50000   0.55690   0.00000  Uiso   1.00
C67    C     0.56859   0.50000   0.54680   0.00000  Uiso   1.00
C68    C     0.57998   0.50000   0.56264   0.00000  Uiso   1.00
H69    H     0.52699   0.50000   0.62231   0.00000  Uiso   1.00
H70    H     0.50679   0.50000   0.59339   0.00000  Uiso   1.00
H71    H     0.58157   0.50000   0.52502   0.00000  Uiso   1.00
H72    H     0.60125   0.50000   0.55351   0.00000  Uiso   1.00
N73    N     0.53039   0.50000   0.54079   0.00000  Uiso   1.00
C74    C     0.54406   0.50000   0.51333   0.00000  Uiso   1.00
C75    C     0.53248   0.50000   0.49766   0.00000  Uiso   1.00
C76    C     0.50603   0.50000   0.50789   0.00000  Uiso   1.00
C77    C     0.49241   0.50000   0.53532   0.00000  Uiso   1.00
C78    C     0.50399   0.50000   0.55092   0.00000  Uiso   1.00
H79    H     0.56535   0.50000   0.50404   0.00000  Uiso   1.00
H80    H     0.54442   0.50000   0.47572   0.00000  Uiso   1.00
H81    H     0.47108   0.50000   0.54570   0.00000  Uiso   1.00
H82    H     0.49208   0.50000   0.57287   0.00000  Uiso   1.00
C83    C     0.57596   0.50000   0.60645   0.00000  Uiso   1.00
N84    N     0.60094   0.50000   0.59791   0.00000  Uiso   1.00
H85    H     0.56228   0.50000   0.62808   0.00000  Uiso   1.00
C86    C     0.40270   0.50000   0.15228   0.00000  Uiso   1.00
C87    C     0.39453   0.50000   0.13369   0.00000  Uiso   1.00
C88    C     0.41174   0.50000   0.10708   0.00000  Uiso   1.00
C89    C     0.43818   0.50000   0.09710   0.00000  Uiso   1.00
C90    C     0.44586   0.50000   0.11638   0.00000  Uiso   1.00
C91    C     0.42877   0.50000   0.14307   0.00000  Uiso   1.00
H92    H     0.37357   0.50000   0.14054   0.00000  Uiso   1.00
H93    H     0.40472   0.50000   0.09238   0.00000  Uiso   1.00
H94    H     0.46663   0.50000   0.11044   0.00000  Uiso   1.00
H95    H     0.43592   0.50000   0.15766   0.00000  Uiso   1.00
N96    N     0.45554   0.50000   0.06977   0.00000  Uiso   1.00
C97    C     0.48193   0.50000   0.05958   0.00000  Uiso   1.00
C98    C     0.49897   0.50000   0.03288   0.00000  Uiso   1.00
C99    C     0.49133   0.50000   0.01365   0.00000  Uiso   1.00
C100   C     0.46496   0.50000   0.02379   0.00000  Uiso   1.00
C101   C     0.44794   0.50000   0.05048   0.00000  Uiso   1.00
H102   H     0.48913   0.50000   0.07413   0.00000  Uiso   1.00
H103   H     0.51997   0.50000   0.02584   0.00000  Uiso   1.00
H104   H     0.45670   0.50000   0.01013   0.00000  Uiso   1.00
H105   H     0.42694   0.50000   0.05755   0.00000  Uiso   1.00
C106   C     0.38511   0.50000   0.17889   0.00000  Uiso   1.00
N107   N     0.39198   0.50000   0.19750   0.00000  Uiso   1.00
H108   H     0.36444   0.50000   0.18446   0.00000  Uiso   1.00
Cl109  Cl    0.70645   0.32594   0.41016   0.00000  Uiso   1.00
Cl110  Cl    0.52654   0.61680   0.12006   0.00000  Uiso   1.00
Cl111  Cl    0.09658   0.48745   0.35353   0.00000  Uiso   1.00
C112   C     0.65907   0.50000   0.65015   0.00000  Uiso   1.00
C113   C     0.68568   0.50000   0.63702   0.00000  Uiso   1.00
C114   C     0.70106   0.50000   0.64905   0.00000  Uiso   1.00
C115   C     0.68753   0.50000   0.67654   0.00000  Uiso   1.00
C116   C     0.66108   0.50000   0.69197   0.00000  Uiso   1.00
C117   C     0.64816   0.50000   0.67746   0.00000  Uiso   1.00
H118   H     0.69463   0.50000   0.61505   0.00000  Uiso   1.00
H119   H     0.69803   0.50000   0.68807   0.00000  Uiso   1.00
H120   H     0.62683   0.50000   0.68782   0.00000  Uiso   1.00
C121   C     0.64823   0.50000   0.71995   0.00000  Uiso   1.00
C122   C     0.62156   0.50000   0.73519   0.00000  Uiso   1.00
C123   C     0.60883   0.50000   0.76235   0.00000  Uiso   1.00
C124   C     0.62195   0.50000   0.77634   0.00000  Uiso   1.00
C125   C     0.64830   0.50000   0.76218   0.00000  Uiso   1.00
C126   C     0.66090   0.50000   0.73492   0.00000  Uiso   1.00
H127   H     0.61054   0.50000   0.72418   0.00000  Uiso   1.00
H128   H     0.58749   0.50000   0.77337   0.00000  Uiso   1.00
H129   H     0.65974   0.50000   0.77275   0.00000  Uiso   1.00
H130   H     0.68223   0.50000   0.72376   0.00000  Uiso   1.00
C131   C     0.72814   0.50000   0.63475   0.00000  Uiso   1.00
C132   C     0.74369   0.50000   0.64669   0.00000  Uiso   1.00
C133   C     0.77004   0.50000   0.63259   0.00000  Uiso   1.00
C134   C     0.78268   0.50000   0.60550   0.00000  Uiso   1.00
C135   C     0.76811   0.50000   0.59293   0.00000  Uiso   1.00
C136   C     0.74182   0.50000   0.60718   0.00000  Uiso   1.00
H137   H     0.73375   0.50000   0.66872   0.00000  Uiso   1.00
H138   H     0.78142   0.50000   0.64321   0.00000  Uiso   1.00
H139   H     0.77760   0.50000   0.57093   0.00000  Uiso   1.00
H140   H     0.73029   0.50000   0.59671   0.00000  Uiso   1.00
C141   C     0.64407   0.50000   0.63725   0.00000  Uiso   1.00
C142   C     0.61730   0.50000   0.65084   0.00000  Uiso   1.00
C143   C     0.60256   0.50000   0.63853   0.00000  Uiso   1.00
C144   C     0.61372   0.50000   0.61140   0.00000  Uiso   1.00
C145   C     0.63997   0.50000   0.59727   0.00000  Uiso   1.00
C146   C     0.65461   0.50000   0.60980   0.00000  Uiso   1.00
H147   H     0.60797   0.50000   0.67284   0.00000  Uiso   1.00
H148   H     0.58128   0.50000   0.65053   0.00000  Uiso   1.00
H149   H     0.64985   0.50000   0.57525   0.00000  Uiso   1.00
H150   H     0.67591   0.50000   0.59792   0.00000  Uiso   1.00
C151   C     0.85081   0.50000   0.55820   0.00000  Uiso   1.00
C152   C     0.86710   0.50000   0.53132   0.00000  Uiso   1.00
C153   C     0.89320   0.50000   0.52127   0.00000  Uiso   1.00
C154   C     0.90484   0.50000   0.53717   0.00000  Uiso   1.00
C155   C     0.88779   0.50000   0.56427   0.00000  Uiso   1.00
C156   C     0.86162   0.50000   0.57452   0.00000  Uiso   1.00
H157   H     0.85884   0.50000   0.51767   0.00000  Uiso   1.00
H158   H     0.90611   0.50000   0.49948   0.00000  Uiso   1.00
H159   H     0.89521   0.50000   0.57864   0.00000  Uiso   1.00
H160   H     0.84884   0.50000   0.59635   0.00000  Uiso   1.00
N161   N     0.93161   0.50000   0.52660   0.00000  Uiso   1.00
C162   C     0.94339   0.50000   0.54226   0.00000  Uiso   1.00
C163   C     0.96955   0.50000   0.53193   0.00000  Uiso   1.00
C164   C     0.98664   0.50000   0.50502   0.00000  Uiso   1.00
C165   C     0.97489   0.50000   0.48927   0.00000  Uiso   1.00
C166   C     0.94869   0.50000   0.49961   0.00000  Uiso   1.00
H167   H     0.93066   0.50000   0.56409   0.00000  Uiso   1.00
H168   H     0.97802   0.50000   0.54540   0.00000  Uiso   1.00
H169   H     0.98677   0.50000   0.46732   0.00000  Uiso   1.00
H170   H     0.94022   0.50000   0.48614   0.00000  Uiso   1.00
C171   C     0.82473   0.50000   0.56787   0.00000  Uiso   1.00
N172   N     0.80806   0.50000   0.59342   0.00000  Uiso   1.00
H173   H     0.81785   0.50000   0.55306   0.00000  Uiso   1.00
C174   C     0.43456   0.50000   0.41018   0.00000  Uiso   1.00
C175   C     0.46080   0.50000   0.39960   0.00000  Uiso   1.00
C176   C     0.47195   0.50000   0.41557   0.00000  Uiso   1.00
C177   C     0.45789   0.50000   0.44310   0.00000  Uiso   1.00
C178   C     0.43141   0.50000   0.45320   0.00000  Uiso   1.00
C179   C     0.42003   0.50000   0.43736   0.00000  Uiso   1.00
H180   H     0.47302   0.50000   0.37769   0.00000  Uiso   1.00
H181   H     0.49321   0.50000   0.40661   0.00000  Uiso   1.00
H182   H     0.41843   0.50000   0.47498   0.00000  Uiso   1.00
H183   H     0.39875   0.50000   0.44649   0.00000  Uiso   1.00
N184   N     0.46961   0.50000   0.45921   0.00000  Uiso   1.00
C185   C     0.45594   0.50000   0.48667   0.00000  Uiso   1.00
C186   C     0.46752   0.50000   0.50234   0.00000  Uiso   1.00
C187   C     0.49397   0.50000   0.49211   0.00000  Uiso   1.00
C188   C     0.50758   0.50000   0.46468   0.00000  Uiso   1.00
C189   C     0.49601   0.50000   0.44908   0.00000  Uiso   1.00
H190   H     0.43465   0.50000   0.49596   0.00000  Uiso   1.00
H191   H     0.45559   0.50000   0.52428   0.00000  Uiso   1.00
H192   H     0.52892   0.50000   0.45430   0.00000  Uiso   1.00
H193   H     0.50792   0.50000   0.42713   0.00000  Uiso   1.00
C194   C     0.42404   0.50000   0.39355   0.00000  Uiso   1.00
N195   N     0.39906   0.50000   0.40209   0.00000  Uiso   1.00
H196   H     0.43772   0.50000   0.37192   0.00000  Uiso   1.00
C197   C     0.59730   0.50000   0.84772   0.00000  Uiso   1.00
C198   C     0.60547   0.50000   0.86632   0.00000  Uiso   1.00
C199   C     0.58826   0.50000   0.89292   0.00000  Uiso   1.00
C200   C     0.56183   0.50000   0.90290   0.00000  Uiso   1.00
C201   C     0.55414   0.50000   0.88362   0.00000  Uiso   1.00
C202   C     0.57124   0.50000   0.85693   0.00000  Uiso   1.00
H203   H     0.62643   0.50000   0.85946   0.00000  Uiso   1.00
H204   H     0.59528   0.50000   0.90762   0.00000  Uiso   1.00
H205   H     0.53337   0.50000   0.88956   0.00000  Uiso   1.00
H206   H     0.56408   0.50000   0.84234   0.00000  Uiso   1.00
N207   N     0.54446   0.50000   0.93023   0.00000  Uiso   1.00
C208   C     0.51807   0.50000   0.94042   0.00000  Uiso   1.00
C209   C     0.50103   0.50000   0.96711   0.00000  Uiso   1.00
C210   C     0.50867   0.50000   0.98635   0.00000  Uiso   1.00
C211   C     0.53505   0.50000   0.97621   0.00000  Uiso   1.00
C212   C     0.55206   0.50000   0.94952   0.00000  Uiso   1.00
H213   H     0.51087   0.50000   0.92587   0.00000  Uiso   1.00
H214   H     0.48003   0.50000   0.97416   0.00000  Uiso   1.00
H215   H     0.54330   0.50000   0.98987   0.00000  Uiso   1.00
H216   H     0.57306   0.50000   0.94245   0.00000  Uiso   1.00
C217   C     0.61489   0.50000   0.82111   0.00000  Uiso   1.00
N218   N     0.60802   0.50000   0.80250   0.00000  Uiso   1.00
H219   H     0.63557   0.50000   0.81554   0.00000  Uiso   1.00
Cl220  Cl    0.29355   0.67406   0.58984   0.00000  Uiso   1.00
Cl221  Cl    0.47346   0.38321   0.87995   0.00000  Uiso   1.00
Cl222  Cl    0.90342   0.51256   0.64647   0.00000  Uiso   1.00
loop_
_geom_bond_atom_site_label_1
_geom_bond_atom_site_label_2
_geom_bond_distance
_geom_bond_site_symmetry_2
_ccdc_geom_bond_type
C1     C2      1.422   .     S
C1     C6      1.418   .     D
C1     C30     1.448   .     S
C2     C3      1.426   .     D
C2     H7      1.140   .     S
C3     C4      1.423   .     S
C3     C20     1.447   .     S
C4     C5      1.419   .     D
C4     H8      1.140   .     S
C5     C6      1.418   .     S
C5     C10     1.448   .     S
C6     H9      1.140   .     S
C10    C11     1.429   .     D
C10    C15     1.430   .     S
C11    C12     1.406   .     S
C11    H16     1.140   .     S
C12    C13     1.403   .     D
C12    H17     1.140   .     S
C13    C14     1.409   .     S
C13    N107    1.357   .     S
C14    C15     1.411   .     D
C14    H18     1.140   .     S
C15    H19     1.140   .     S
C20    C21     1.431   .     D
C20    C25     1.427   .     S
C21    C22     1.409   .     S
C21    H26     1.140   .     S
C22    C23     1.402   .     D
C22    H27     1.140   .     S
C23    C24     1.408   .     S
C23    N61     1.356   .     S
C24    C25     1.406   .     D
C24    H28     1.140   .     S
C25    H29     1.140   .     S
C30    C31     1.430   .     D
C30    C35     1.428   .     S
C31    C32     1.405   .     S
C31    H36     1.140   .     S
C32    C33     1.407   .     D
C32    H37     1.140   .     S
C33    C34     1.404   .     S
C33    N195    1.359   .     S
C34    C35     1.410   .     D
C34    H38     1.140   .     S
C35    H39     1.140   .     S
C40    C41     1.409   .     D
C40    C45     1.408   .     S
C40    C60     1.407   .     S
C41    C42     1.406   .     S
C41    H46     1.140   .     S
C42    C43     1.426   .     D
C42    H47     1.140   .     S
C43    C44     1.427   .     S
C43    N50     1.440   .     S
C44    C45     1.408   .     D
C44    H48     1.140   .     S
C45    H49     1.140   .     S
N50    C51     1.420   .     S
N50    C55     1.423   .     S
C51    C52     1.407   .     D
C51    H56     1.140   .     S
C52    C53     1.419   .     S
C52    H57     1.140   .     S
C53    C54     1.424   .     S
C53    C164    1.441   1_455 D
C54    C55     1.409   .     D
C54    H58     1.140   .     S
C55    H59     1.140   .     S
C60    N61     1.353   .     D
C60    H62     1.140   .     S
C63    C64     1.410   .     D
C63    C68     1.411   .     S
C63    C83     1.411   .     S
C64    C65     1.407   .     S
C64    H69     1.140   .     S
C65    C66     1.426   .     D
C65    H70     1.140   .     S
C66    C67     1.427   .     S
C66    N73     1.442   .     S
C67    C68     1.410   .     D
C67    H71     1.140   .     S
C68    H72     1.140   .     S
N73    C74     1.422   .     S
N73    C78     1.422   .     S
C74    C75     1.411   .     D
C74    H79     1.140   .     S
C75    C76     1.424   .     S
C75    H80     1.140   .     S
C76    C77     1.420   .     S
C76    C187    1.442   .     D
C77    C78     1.408   .     D
C77    H81     1.140   .     S
C78    H82     1.140   .     S
C83    N84     1.355   .     D
C83    H85     1.140   .     S
N84    C144    1.359   .     S
C86    C87     1.410   .     D
C86    C91     1.410   .     S
C86    C106    1.412   .     S
C87    C88     1.407   .     S
C87    H92     1.140   .     S
C88    C89     1.425   .     D
C88    H93     1.140   .     S
C89    C90     1.428   .     S
C89    N96     1.442   .     S
C90    C91     1.409   .     D
C90    H94     1.140   .     S
C91    H95     1.140   .     S
N96    C97     1.421   .     S
N96    C101    1.424   .     S
C97    C98     1.409   .     D
C97    H102    1.140   .     S
C98    C99     1.423   .     S
C98    H103    1.140   .     S
C99    C100    1.420   .     S
C99    C210    1.440   1_554 D
C100   C101    1.408   .     D
C100   H104    1.140   .     S
C101   H105    1.140   .     S
C106   N107    1.354   .     D
C106   H108    1.140   .     S
C112   C113    1.422   .     D
C112   C117    1.418   .     S
C112   C141    1.448   .     S
C113   C114    1.426   .     S
C113   H118    1.140   .     S
C114   C115    1.423   .     D
C114   C131    1.447   .     S
C115   C116    1.419   .     S
C115   H119    1.140   .     S
C116   C117    1.418   .     D
C116   C121    1.448   .     S
C117   H120    1.140   .     S
C121   C122    1.429   .     S
C121   C126    1.430   .     D
C122   C123    1.406   .     D
C122   H127    1.140   .     S
C123   C124    1.403   .     S
C123   H128    1.140   .     S
C124   C125    1.409   .     D
C124   N218    1.357   .     S
C125   C126    1.411   .     S
C125   H129    1.140   .     S
C126   H130    1.140   .     S
C131   C132    1.431   .     D
C131   C136    1.427   .     S
C132   C133    1.409   .     S
C132   H137    1.140   .     S
C133   C134    1.402   .     D
C133   H138    1.140   .     S
C134   C135    1.408   .     S
C134   N172    1.356   .     S
C135   C136    1.406   .     D
C135   H139    1.140   .     S
C136   H140    1.140   .     S
C141   C142    1.430   .     D
C141   C146    1.428   .     S
C142   C143    1.405   .     S
C142   H147    1.140   .     S
C143   C144    1.407   .     D
C143   H148    1.140   .     S
C144   C145    1.404   .     S
C145   C146    1.410   .     D
C145   H149    1.140   .     S
C146   H150    1.140   .     S
C151   C152    1.409   .     D
C151   C156    1.408   .     S
C151   C171    1.407   .     S
C152   C153    1.406   .     S
C152   H157    1.140   .     S
C153   C154    1.426   .     D
C153   H158    1.140   .     S
C154   C155    1.427   .     S
C154   N161    1.440   .     S
C155   C156    1.408   .     D
C155   H159    1.140   .     S
C156   H160    1.140   .     S
N161   C162    1.420   .     S
N161   C166    1.423   .     S
C162   C163    1.407   .     D
C162   H167    1.140   .     S
C163   C164    1.419   .     S
C163   H168    1.140   .     S
C164   C53     1.441   1_655 D
C164   C165    1.424   .     S
C165   C166    1.409   .     D
C165   H169    1.140   .     S
C166   H170    1.140   .     S
C171   N172    1.353   .     D
C171   H173    1.140   .     S
C174   C175    1.410   .     D
C174   C179    1.411   .     S
C174   C194    1.411   .     S
C175   C176    1.407   .     S
C175   H180    1.140   .     S
C176   C177    1.426   .     D
C176   H181    1.140   .     S
C177   C178    1.427   .     S
C177   N184    1.442   .     S
C178   C179    1.410   .     D
C178   H182    1.140   .     S
C179   H183    1.140   .     S
N184   C185    1.422   .     S
N184   C189    1.422   .     S
C185   C186    1.411   .     D
C185   H190    1.140   .     S
C186   C187    1.424   .     S
C186   H191    1.140   .     S
C187   C188    1.420   .     S
C188   C189    1.408   .     D
C188   H192    1.140   .     S
C189   H193    1.140   .     S
C194   N195    1.355   .     D
C194   H196    1.140   .     S
C197   C198    1.410   .     S
C197   C202    1.410   .     D
C197   C217    1.412   .     S
C198   C199    1.407   .     D
C198   H203    1.140   .     S
C199   C200    1.425   .     S
C199   H204    1.140   .     S
C200   C201    1.428   .     D
C200   N207    1.442   .     S
C201   C202    1.409   .     S
C201   H205    1.140   .     S
C202   H206    1.140   .     S
N207   C208    1.421   .     S
N207   C212    1.424   .     S
C208   C209    1.409   .     D
C208   H213    1.140   .     S
C209   C210    1.423   .     S
C209   H214    1.140   .     S
C210   C99     1.440   1_556 D
C210   C211    1.420   .     S
C211   C212    1.408   .     D
C211   H215    1.140   .     S
C212   H216    1.140   .     S
C217   N218    1.354   .     D
C217   H219    1.140   .     S
