data_343
_audit_creation_date              2023-09-08
_audit_creation_method            'Materials Studio'
_symmetry_space_group_name_H-M    'P1'
_symmetry_Int_Tables_number       1
_symmetry_cell_setting            triclinic
loop_
_symmetry_equiv_pos_as_xyz
  x,y,z
_cell_length_a                    18.6700
_cell_length_b                    18.6700
_cell_length_c                    3.6200
_cell_angle_alpha                 90.0000
_cell_angle_beta                  90.0000
_cell_angle_gamma                 120.0000
loop_
_atom_site_label
_atom_site_type_symbol
_atom_site_fract_x
_atom_site_fract_y
_atom_site_fract_z
_atom_site_U_iso_or_equiv
_atom_site_adp_type
_atom_site_occupancy
C1     C     0.16192   0.61462   0.50000   0.00000  Uiso   1.00
C2     C     0.38538   0.54729   0.50000   0.00000  Uiso   1.00
C3     C     0.45271   0.83808   0.50000   0.00000  Uiso   1.00
N4     N     0.10883   0.53647   0.50000   0.00000  Uiso   1.00
N5     N     0.46353   0.57236   0.50000   0.00000  Uiso   1.00
N6     N     0.42764   0.89117   0.50000   0.00000  Uiso   1.00
C7     C     0.97606   0.41385   0.50000   0.00000  Uiso   1.00
C8     C     0.58615   0.56222   0.50000   0.00000  Uiso   1.00
C9     C     0.43779   0.02394   0.50000   0.00000  Uiso   1.00
C10    C     0.89042   0.37314   0.50000   0.00000  Uiso   1.00
C11    C     0.62686   0.51727   0.50000   0.00000  Uiso   1.00
C12    C     0.48273   0.10959   0.50000   0.00000  Uiso   1.00
H13    H     0.00785   0.37873   0.50000   0.00000  Uiso   1.00
H14    H     0.62127   0.62913   0.50000   0.00000  Uiso   1.00
H15    H     0.37087   0.99215   0.50000   0.00000  Uiso   1.00
H16    H     0.86110   0.30693   0.50000   0.00000  Uiso   1.00
H17    H     0.69307   0.55417   0.50000   0.00000  Uiso   1.00
H18    H     0.44583   0.13890   0.50000   0.00000  Uiso   1.00
C19    C     0.56411   0.01888   0.50000   0.00000  Uiso   1.00
C20    C     0.98112   0.54523   0.50000   0.00000  Uiso   1.00
C21    C     0.45477   0.43589   0.50000   0.00000  Uiso   1.00
C22    C     0.60966   0.10440   0.50000   0.00000  Uiso   1.00
C23    C     0.89560   0.50526   0.50000   0.00000  Uiso   1.00
C24    C     0.49474   0.39034   0.50000   0.00000  Uiso   1.00
H25    H     0.59759   0.98573   0.50000   0.00000  Uiso   1.00
H26    H     0.01427   0.61185   0.50000   0.00000  Uiso   1.00
H27    H     0.38815   0.40241   0.50000   0.00000  Uiso   1.00
H28    H     0.67539   0.12950   0.50000   0.00000  Uiso   1.00
H29    H     0.87050   0.54589   0.50000   0.00000  Uiso   1.00
H30    H     0.45411   0.32461   0.50000   0.00000  Uiso   1.00
C31    C     0.39152   0.75074   0.50000   0.00000  Uiso   1.00
C32    C     0.24926   0.64078   0.50000   0.00000  Uiso   1.00
C33    C     0.35922   0.60848   0.50000   0.00000  Uiso   1.00
C34    C     0.41750   0.69289   0.50000   0.00000  Uiso   1.00
C35    C     0.30711   0.72461   0.50000   0.00000  Uiso   1.00
C36    C     0.27539   0.58250   0.50000   0.00000  Uiso   1.00
C37    C     0.62001   0.24569   0.50000   0.00000  Uiso   1.00
C38    C     0.75431   0.37432   0.50000   0.00000  Uiso   1.00
C39    C     0.62568   0.37999   0.50000   0.00000  Uiso   1.00
C40    C     0.47783   0.97847   0.50000   0.00000  Uiso   1.00
C41    C     0.02153   0.49936   0.50000   0.00000  Uiso   1.00
C42    C     0.50064   0.52217   0.50000   0.00000  Uiso   1.00
C43    C     0.57043   0.15263   0.50000   0.00000  Uiso   1.00
C44    C     0.84737   0.41780   0.50000   0.00000  Uiso   1.00
C45    C     0.58220   0.42957   0.50000   0.00000  Uiso   1.00
C46    C     0.58124   0.29335   0.50000   0.00000  Uiso   1.00
C47    C     0.70665   0.28789   0.50000   0.00000  Uiso   1.00
C48    C     0.71211   0.41876   0.50000   0.00000  Uiso   1.00
H49    H     0.28640   0.76943   0.50000   0.00000  Uiso   1.00
H50    H     0.23057   0.51697   0.50000   0.00000  Uiso   1.00
H51    H     0.48303   0.71360   0.50000   0.00000  Uiso   1.00
H52    H     0.51740   0.85625   0.50000   0.00000  Uiso   1.00
H53    H     0.14375   0.66115   0.50000   0.00000  Uiso   1.00
H54    H     0.33885   0.48260   0.50000   0.00000  Uiso   1.00
H55    H     0.74660   0.48383   0.50000   0.00000  Uiso   1.00
H56    H     0.51617   0.26276   0.50000   0.00000  Uiso   1.00
H57    H     0.73724   0.25340   0.50000   0.00000  Uiso   1.00
loop_
_geom_bond_atom_site_label_1
_geom_bond_atom_site_label_2
_geom_bond_distance
_geom_bond_site_symmetry_2
_ccdc_geom_bond_type
C1     N4      1.290   .     D
C1     C32     1.450   .     S
C1     H53     1.079   .     S
C2     N5      1.290   .     D
C2     C33     1.450   .     S
C2     H54     1.079   .     S
C3     N6      1.290   .     D
C3     C31     1.450   .     S
C3     H52     1.079   .     S
N4     C41     1.417   .     S
N5     C42     1.417   .     S
N6     C40     1.417   .     S
C7     C10     1.385   .     D
C7     H13     1.082   1_655 S
C7     C41     1.384   1_655 S
C8     C11     1.385   .     D
C8     H14     1.082   .     S
C8     C42     1.384   .     S
C9     C12     1.385   .     S
C9     H15     1.082   1_545 S
C9     C40     1.384   1_545 D
C10    H16     1.073   .     S
C10    C44     1.418   .     S
C11    H17     1.073   .     S
C11    C45     1.418   .     S
C12    H18     1.073   .     S
C12    C43     1.418   .     D
H13    C7      1.082   1_455 S
H15    C9      1.082   1_565 S
C19    C22     1.384   .     D
C19    H25     1.077   1_545 S
C19    C40     1.396   1_545 S
C20    C23     1.384   .     S
C20    H26     1.077   1_655 S
C20    C41     1.396   1_655 D
C21    C24     1.384   .     S
C21    H27     1.077   .     S
C21    C42     1.396   .     D
C22    H28     1.073   .     S
C22    C43     1.417   .     S
C23    H29     1.073   .     S
C23    C44     1.417   .     D
C24    H30     1.073   .     S
C24    C45     1.417   .     D
H25    C19     1.077   1_565 S
H26    C20     1.077   1_455 S
C31    C34     1.388   .     S
C31    C35     1.397   .     D
C32    C35     1.388   .     S
C32    C36     1.397   .     D
C33    C34     1.397   .     D
C33    C36     1.388   .     S
C34    H51     1.083   .     S
C35    H49     1.083   .     S
C36    H50     1.083   .     S
C37    C43     1.506   .     S
C37    C46     1.400   .     S
C37    C47     1.401   .     D
C38    C44     1.506   .     S
C38    C47     1.400   .     S
C38    C48     1.401   .     D
C39    C45     1.506   .     S
C39    C46     1.401   .     D
C39    C48     1.400   .     S
C40    C19     1.396   1_565 S
C40    C9      1.384   1_565 D
C41    C20     1.396   1_455 D
C41    C7      1.384   1_455 S
C46    H56     1.053   .     S
C47    H57     1.053   .     S
C48    H55     1.053   .     S
