data_344
_audit_creation_date              2023-09-08
_audit_creation_method            'Materials Studio'
_symmetry_space_group_name_H-M    'P1'
_symmetry_Int_Tables_number       1
_symmetry_cell_setting            triclinic
loop_
_symmetry_equiv_pos_as_xyz
  x,y,z
_cell_length_a                    32.5490
_cell_length_b                    32.5490
_cell_length_c                    7.9215
_cell_angle_alpha                 90.0000
_cell_angle_beta                  90.0000
_cell_angle_gamma                 120.0000
loop_
_atom_site_label
_atom_site_type_symbol
_atom_site_fract_x
_atom_site_fract_y
_atom_site_fract_z
_atom_site_U_iso_or_equiv
_atom_site_adp_type
_atom_site_occupancy
P1     P     0.66656   0.33399   0.67897   0.00000  Uiso   1.00
C2     C     0.63023   0.27044   0.65384   0.00000  Uiso   1.00
C3     C     0.64171   0.24877   0.52437   0.00000  Uiso   1.00
H4     H     0.66934   0.26699   0.45807   0.00000  Uiso   1.00
C5     C     0.61276   0.20059   0.49239   0.00000  Uiso   1.00
H6     H     0.62044   0.18590   0.40374   0.00000  Uiso   1.00
C7     C     0.57240   0.17393   0.59115   0.00000  Uiso   1.00
C8     C     0.56163   0.19511   0.72349   0.00000  Uiso   1.00
H9     H     0.53463   0.17657   0.79235   0.00000  Uiso   1.00
C10    C     0.59031   0.24331   0.75499   0.00000  Uiso   1.00
H11    H     0.58287   0.25783   0.84477   0.00000  Uiso   1.00
C12    C     0.54003   0.12273   0.55674   0.00000  Uiso   1.00
H13    H     0.51413   0.10558   0.63148   0.00000  Uiso   1.00
N14    N     0.54572   0.09624   0.41050   0.00000  Uiso   1.00
C15    C     0.48158   0.96963   0.55003   0.00000  Uiso   1.00
H16    H     0.47188   0.94974   0.66695   0.00000  Uiso   1.00
C17    C     0.46883   0.94590   0.39451   0.00000  Uiso   1.00
C18    C     0.48168   0.97222   0.24431   0.00000  Uiso   1.00
H19    H     0.51674   0.04170   0.13266   0.00000  Uiso   1.00
P20    P     0.66601   0.33257   0.67897   0.00000  Uiso   1.00
C21    C     0.72956   0.35979   0.65384   0.00000  Uiso   1.00
C22    C     0.75123   0.39294   0.52437   0.00000  Uiso   1.00
H23    H     0.73301   0.40235   0.45807   0.00000  Uiso   1.00
C24    C     0.79941   0.41217   0.49239   0.00000  Uiso   1.00
H25    H     0.81410   0.43454   0.40374   0.00000  Uiso   1.00
C26    C     0.82607   0.39847   0.59115   0.00000  Uiso   1.00
C27    C     0.80489   0.36652   0.72349   0.00000  Uiso   1.00
H28    H     0.82343   0.35806   0.79235   0.00000  Uiso   1.00
C29    C     0.75669   0.34700   0.75499   0.00000  Uiso   1.00
H30    H     0.74217   0.32504   0.84477   0.00000  Uiso   1.00
C31    C     0.87727   0.41730   0.55674   0.00000  Uiso   1.00
H32    H     0.89442   0.40855   0.63148   0.00000  Uiso   1.00
N33    N     0.90376   0.44948   0.41050   0.00000  Uiso   1.00
C34    C     0.03037   0.51195   0.55003   0.00000  Uiso   1.00
H35    H     0.05026   0.52214   0.66695   0.00000  Uiso   1.00
C36    C     0.05410   0.52293   0.39451   0.00000  Uiso   1.00
C37    C     0.02778   0.50946   0.24431   0.00000  Uiso   1.00
H38    H     0.95830   0.47504   0.13266   0.00000  Uiso   1.00
P39    P     0.66743   0.33344   0.67897   0.00000  Uiso   1.00
C40    C     0.64021   0.36977   0.65384   0.00000  Uiso   1.00
C41    C     0.60706   0.35829   0.52437   0.00000  Uiso   1.00
H42    H     0.59765   0.33066   0.45807   0.00000  Uiso   1.00
C43    C     0.58783   0.38724   0.49239   0.00000  Uiso   1.00
H44    H     0.56546   0.37956   0.40374   0.00000  Uiso   1.00
C45    C     0.60153   0.42760   0.59115   0.00000  Uiso   1.00
C46    C     0.63348   0.43837   0.72349   0.00000  Uiso   1.00
H47    H     0.64194   0.46537   0.79235   0.00000  Uiso   1.00
C48    C     0.65300   0.40969   0.75499   0.00000  Uiso   1.00
H49    H     0.67496   0.41713   0.84477   0.00000  Uiso   1.00
C50    C     0.58270   0.45997   0.55674   0.00000  Uiso   1.00
H51    H     0.59145   0.48587   0.63148   0.00000  Uiso   1.00
N52    N     0.55052   0.45428   0.41050   0.00000  Uiso   1.00
C53    C     0.48805   0.51842   0.55003   0.00000  Uiso   1.00
H54    H     0.47786   0.52812   0.66695   0.00000  Uiso   1.00
C55    C     0.47707   0.53117   0.39451   0.00000  Uiso   1.00
C56    C     0.49054   0.51832   0.24431   0.00000  Uiso   1.00
H57    H     0.52496   0.48326   0.13266   0.00000  Uiso   1.00
P58    P     0.33344   0.66601   0.67897   0.00000  Uiso   1.00
C59    C     0.36977   0.72956   0.65384   0.00000  Uiso   1.00
C60    C     0.35829   0.75123   0.52437   0.00000  Uiso   1.00
H61    H     0.33066   0.73301   0.45807   0.00000  Uiso   1.00
C62    C     0.38724   0.79941   0.49239   0.00000  Uiso   1.00
H63    H     0.37956   0.81410   0.40374   0.00000  Uiso   1.00
C64    C     0.42760   0.82607   0.59115   0.00000  Uiso   1.00
C65    C     0.43837   0.80489   0.72349   0.00000  Uiso   1.00
H66    H     0.46537   0.82343   0.79235   0.00000  Uiso   1.00
C67    C     0.40969   0.75669   0.75499   0.00000  Uiso   1.00
H68    H     0.41713   0.74217   0.84477   0.00000  Uiso   1.00
C69    C     0.45997   0.87727   0.55674   0.00000  Uiso   1.00
H70    H     0.48587   0.89442   0.63148   0.00000  Uiso   1.00
N71    N     0.45428   0.90376   0.41050   0.00000  Uiso   1.00
C72    C     0.51842   0.03037   0.55003   0.00000  Uiso   1.00
H73    H     0.52812   0.05026   0.66695   0.00000  Uiso   1.00
C74    C     0.53117   0.05410   0.39451   0.00000  Uiso   1.00
C75    C     0.51832   0.02778   0.24431   0.00000  Uiso   1.00
H76    H     0.48326   0.95830   0.13266   0.00000  Uiso   1.00
P77    P     0.33399   0.66743   0.67897   0.00000  Uiso   1.00
C78    C     0.27044   0.64021   0.65384   0.00000  Uiso   1.00
C79    C     0.24877   0.60706   0.52437   0.00000  Uiso   1.00
H80    H     0.26699   0.59765   0.45807   0.00000  Uiso   1.00
C81    C     0.20059   0.58783   0.49239   0.00000  Uiso   1.00
H82    H     0.18590   0.56546   0.40374   0.00000  Uiso   1.00
C83    C     0.17393   0.60153   0.59115   0.00000  Uiso   1.00
C84    C     0.19511   0.63348   0.72349   0.00000  Uiso   1.00
H85    H     0.17657   0.64194   0.79235   0.00000  Uiso   1.00
C86    C     0.24331   0.65300   0.75499   0.00000  Uiso   1.00
H87    H     0.25783   0.67496   0.84477   0.00000  Uiso   1.00
C88    C     0.12273   0.58270   0.55674   0.00000  Uiso   1.00
H89    H     0.10558   0.59145   0.63148   0.00000  Uiso   1.00
N90    N     0.09624   0.55052   0.41050   0.00000  Uiso   1.00
C91    C     0.96963   0.48805   0.55003   0.00000  Uiso   1.00
H92    H     0.94974   0.47786   0.66695   0.00000  Uiso   1.00
C93    C     0.94590   0.47707   0.39451   0.00000  Uiso   1.00
C94    C     0.97222   0.49054   0.24431   0.00000  Uiso   1.00
H95    H     0.04170   0.52496   0.13266   0.00000  Uiso   1.00
P96    P     0.33257   0.66656   0.67897   0.00000  Uiso   1.00
C97    C     0.35979   0.63023   0.65384   0.00000  Uiso   1.00
C98    C     0.39294   0.64171   0.52437   0.00000  Uiso   1.00
H99    H     0.40235   0.66934   0.45807   0.00000  Uiso   1.00
C100   C     0.41217   0.61276   0.49239   0.00000  Uiso   1.00
H101   H     0.43454   0.62044   0.40374   0.00000  Uiso   1.00
C102   C     0.39847   0.57240   0.59115   0.00000  Uiso   1.00
C103   C     0.36652   0.56163   0.72349   0.00000  Uiso   1.00
H104   H     0.35806   0.53463   0.79235   0.00000  Uiso   1.00
C105   C     0.34700   0.59031   0.75499   0.00000  Uiso   1.00
H106   H     0.32504   0.58287   0.84477   0.00000  Uiso   1.00
C107   C     0.41730   0.54003   0.55674   0.00000  Uiso   1.00
H108   H     0.40855   0.51413   0.63148   0.00000  Uiso   1.00
N109   N     0.44948   0.54572   0.41050   0.00000  Uiso   1.00
C110   C     0.51195   0.48158   0.55003   0.00000  Uiso   1.00
H111   H     0.52214   0.47188   0.66695   0.00000  Uiso   1.00
C112   C     0.52293   0.46883   0.39451   0.00000  Uiso   1.00
C113   C     0.50946   0.48168   0.24431   0.00000  Uiso   1.00
H114   H     0.47504   0.51674   0.13266   0.00000  Uiso   1.00
loop_
_geom_bond_atom_site_label_1
_geom_bond_atom_site_label_2
_geom_bond_distance
_geom_bond_site_symmetry_2
_ccdc_geom_bond_type
P1     C2      1.808   .     S
P1     C21     1.797   .     S
P1     C40     1.769   .     S
C2     C3      1.397   .     S
C2     C10     1.401   .     S
C2     P20     1.769   .     S
C2     P39     1.797   .     S
C3     H4      0.950   .     S
C3     C5      1.391   .     D
C5     H6      0.951   .     S
C5     C7      1.397   .     S
C7     C8      1.392   .     S
C7     C12     1.485   .     D
C8     H9      0.951   .     S
C8     C10     1.389   .     D
C10    H11     0.950   .     S
C12    H13     0.950   .     S
C12    N14     1.510   .     S
N14    C74     1.213   .     D
C15    H16     1.083   .     S
C15    C17     1.402   .     S
C15    C72     1.725   1_565 D
C17    C18     1.402   .     S
C17    N71     1.213   .     D
C18    C75     1.592   1_565 D
C18    H76     1.007   .     S
H19    C75     1.007   .     S
P20    C21     1.808   .     S
P20    C40     1.797   .     S
C21    C22     1.397   .     S
C21    C29     1.401   .     S
C21    P39     1.769   .     S
C22    H23     0.950   .     S
C22    C24     1.391   .     D
C24    H25     0.951   .     S
C24    C26     1.397   .     S
C26    C27     1.392   .     S
C26    C31     1.485   .     D
C27    H28     0.951   .     S
C27    C29     1.389   .     D
C29    H30     0.950   .     S
C31    H32     0.950   .     S
C31    N33     1.510   .     S
N33    C93     1.213   .     D
C34    H35     1.083   .     S
C34    C36     1.402   .     S
C34    C91     1.725   1_455 D
C36    C37     1.402   .     S
C36    N90     1.213   .     D
C37    C94     1.592   1_455 D
C37    H95     1.007   .     S
H38    C94     1.007   .     S
P39    C40     1.808   .     S
C40    C41     1.397   .     S
C40    C48     1.401   .     S
C41    H42     0.950   .     S
C41    C43     1.391   .     D
C43    H44     0.951   .     S
C43    C45     1.397   .     S
C45    C46     1.392   .     S
C45    C50     1.485   .     D
C46    H47     0.951   .     S
C46    C48     1.389   .     D
C48    H49     0.950   .     S
C50    H51     0.950   .     S
C50    N52     1.510   .     S
N52    C112    1.213   .     D
C53    H54     1.083   .     S
C53    C55     1.402   .     S
C53    C110    1.725   .     D
C55    C56     1.402   .     S
C55    N109    1.213   .     D
C56    C113    1.592   .     D
C56    H114    1.007   .     S
H57    C113    1.007   .     S
P58    C59     1.808   .     S
P58    C78     1.797   .     S
P58    C97     1.769   .     S
C59    C60     1.397   .     S
C59    C67     1.401   .     S
C59    P77     1.769   .     S
C59    P96     1.797   .     S
C60    H61     0.950   .     S
C60    C62     1.391   .     D
C62    H63     0.951   .     S
C62    C64     1.397   .     S
C64    C65     1.392   .     S
C64    C69     1.485   .     D
C65    H66     0.951   .     S
C65    C67     1.389   .     D
C67    H68     0.950   .     S
C69    H70     0.950   .     S
C69    N71     1.510   .     S
C72    C15     1.725   1_545 D
C72    H73     1.083   .     S
C72    C74     1.402   .     S
C74    C75     1.402   .     S
C75    C18     1.592   1_545 D
P77    C78     1.808   .     S
P77    C97     1.797   .     S
C78    C79     1.397   .     S
C78    C86     1.401   .     S
C78    P96     1.769   .     S
C79    H80     0.950   .     S
C79    C81     1.391   .     D
C81    H82     0.951   .     S
C81    C83     1.397   .     S
C83    C84     1.392   .     S
C83    C88     1.485   .     D
C84    H85     0.951   .     S
C84    C86     1.389   .     D
C86    H87     0.950   .     S
C88    H89     0.950   .     S
C88    N90     1.510   .     S
C91    C34     1.725   1_655 D
C91    H92     1.083   .     S
C91    C93     1.402   .     S
C93    C94     1.402   .     S
C94    C37     1.592   1_655 D
P96    C97     1.808   .     S
C97    C98     1.397   .     S
C97    C105    1.401   .     S
C98    H99     0.950   .     S
C98    C100    1.391   .     D
C100   H101    0.951   .     S
C100   C102    1.397   .     S
C102   C103    1.392   .     S
C102   C107    1.485   .     D
C103   H104    0.951   .     S
C103   C105    1.389   .     D
C105   H106    0.950   .     S
C107   H108    0.950   .     S
C107   N109    1.510   .     S
C110   H111    1.083   .     S
C110   C112    1.402   .     S
C112   C113    1.402   .     S
