data_345
_audit_creation_date              2023-09-08
_audit_creation_method            'Materials Studio'
_symmetry_space_group_name_H-M    'P1'
_symmetry_Int_Tables_number       1
_symmetry_cell_setting            triclinic
loop_
_symmetry_equiv_pos_as_xyz
  x,y,z
_cell_length_a                    32.5490
_cell_length_b                    32.5490
_cell_length_c                    15.8430
_cell_angle_alpha                 90.0000
_cell_angle_beta                  90.0000
_cell_angle_gamma                 120.0000
loop_
_atom_site_label
_atom_site_type_symbol
_atom_site_fract_x
_atom_site_fract_y
_atom_site_fract_z
_atom_site_U_iso_or_equiv
_atom_site_adp_type
_atom_site_occupancy
P1     P     0.00776   0.99169   0.00746   0.00000  Uiso   1.00
C2     C     0.03429   0.95903   0.05179   0.00000  Uiso   1.00
C3     C     0.07752   0.96426   0.02325   0.00000  Uiso   1.00
H4     H     0.09484   0.98645  -0.02003   0.00000  Uiso   1.00
C5     C     0.09482   0.93690   0.05869   0.00000  Uiso   1.00
H6     H     0.12354   0.93965   0.03844   0.00000  Uiso   1.00
C7     C     0.07001   0.90533   0.12421   0.00000  Uiso   1.00
C8     C     0.02720   0.89999   0.15227   0.00000  Uiso   1.00
H9     H     0.01032   0.87831   0.19648   0.00000  Uiso   1.00
C10    C     0.00898   0.92648   0.11558   0.00000  Uiso   1.00
H11    H    -0.02063   0.92237   0.13400   0.00000  Uiso   1.00
C12    C     0.08996   0.87846   0.16625   0.00000  Uiso   1.00
H13    H     0.07305   0.85908   0.21296   0.00000  Uiso   1.00
N14    N     0.13517   0.87962   0.14035   0.00000  Uiso   1.00
C15    C     0.15159   0.85238   0.18496   0.00000  Uiso   1.00
C16    C     0.12575   0.82410   0.25369   0.00000  Uiso   1.00
H17    H     0.09323   0.82270   0.27341   0.00000  Uiso   1.00
C18    C     0.14181   0.79746   0.29731   0.00000  Uiso   1.00
H19    H     0.12151   0.77577   0.35027   0.00000  Uiso   1.00
C20    C     0.18385   0.79884   0.27263   0.00000  Uiso   1.00
C21    C     0.20969   0.82713   0.20390   0.00000  Uiso   1.00
H22    H     0.24222   0.82852   0.18417   0.00000  Uiso   1.00
C23    C     0.19364   0.85377   0.16027   0.00000  Uiso   1.00
H24    H     0.21393   0.87546   0.10731   0.00000  Uiso   1.00
N25    N     0.20027   0.77160   0.31723   0.00000  Uiso   1.00
P26    P     0.33469   0.66989   0.46492   0.00000  Uiso   1.00
C27    C     0.30614   0.69956   0.41632   0.00000  Uiso   1.00
C28    C     0.26446   0.69661   0.44814   0.00000  Uiso   1.00
H29    H     0.25043   0.67930   0.49839   0.00000  Uiso   1.00
C30    C     0.24392   0.71919   0.40586   0.00000  Uiso   1.00
H31    H     0.21524   0.71651   0.42621   0.00000  Uiso   1.00
C32    C     0.26544   0.74589   0.33338   0.00000  Uiso   1.00
C33    C     0.30653   0.74869   0.30169   0.00000  Uiso   1.00
H34    H     0.32088   0.76666   0.25216   0.00000  Uiso   1.00
C35    C     0.32674   0.72516   0.34259   0.00000  Uiso   1.00
H36    H     0.35451   0.72654   0.32029   0.00000  Uiso   1.00
C37    C     0.24548   0.77277   0.29134   0.00000  Uiso   1.00
H38    H     0.26240   0.79216   0.24465   0.00000  Uiso   1.00
P39    P     0.00831   0.01607   0.00746   0.00000  Uiso   1.00
C40    C     0.04097   0.07526   0.05179   0.00000  Uiso   1.00
C41    C     0.03574   0.11326   0.02325   0.00000  Uiso   1.00
H42    H     0.01355   0.10839  -0.02003   0.00000  Uiso   1.00
C43    C     0.06310   0.15792   0.05869   0.00000  Uiso   1.00
H44    H     0.06035   0.18389   0.03844   0.00000  Uiso   1.00
C45    C     0.09467   0.16468   0.12421   0.00000  Uiso   1.00
C46    C     0.10001   0.12721   0.15227   0.00000  Uiso   1.00
H47    H     0.12169   0.13201   0.19648   0.00000  Uiso   1.00
C48    C     0.07352   0.08250   0.11558   0.00000  Uiso   1.00
H49    H     0.07763   0.05700   0.13400   0.00000  Uiso   1.00
C50    C     0.12154   0.21150   0.16625   0.00000  Uiso   1.00
H51    H     0.14092   0.21397   0.21296   0.00000  Uiso   1.00
N52    N     0.12038   0.25555   0.14035   0.00000  Uiso   1.00
C53    C     0.14762   0.29921   0.18496   0.00000  Uiso   1.00
C54    C     0.17590   0.30165   0.25369   0.00000  Uiso   1.00
H55    H     0.17730   0.27053   0.27341   0.00000  Uiso   1.00
C56    C     0.20254   0.34435   0.29731   0.00000  Uiso   1.00
H57    H     0.22423   0.34574   0.35027   0.00000  Uiso   1.00
C58    C     0.20116   0.38501   0.27263   0.00000  Uiso   1.00
C59    C     0.17287   0.38256   0.20390   0.00000  Uiso   1.00
H60    H     0.17148   0.41370   0.18417   0.00000  Uiso   1.00
C61    C     0.14623   0.33987   0.16027   0.00000  Uiso   1.00
H62    H     0.12454   0.33847   0.10731   0.00000  Uiso   1.00
N63    N     0.22840   0.42867   0.31723   0.00000  Uiso   1.00
P64    P     0.33011   0.66480   0.46492   0.00000  Uiso   1.00
C65    C     0.30044   0.60658   0.41632   0.00000  Uiso   1.00
C66    C     0.30339   0.56785   0.44814   0.00000  Uiso   1.00
H67    H     0.32070   0.57113   0.49839   0.00000  Uiso   1.00
C68    C     0.28081   0.52473   0.40586   0.00000  Uiso   1.00
H69    H     0.28349   0.49873   0.42621   0.00000  Uiso   1.00
C70    C     0.25411   0.51955   0.33338   0.00000  Uiso   1.00
C71    C     0.25131   0.55784   0.30169   0.00000  Uiso   1.00
H72    H     0.23334   0.55422   0.25216   0.00000  Uiso   1.00
C73    C     0.27484   0.60158   0.34259   0.00000  Uiso   1.00
H74    H     0.27346   0.62797   0.32029   0.00000  Uiso   1.00
C75    C     0.22723   0.47271   0.29134   0.00000  Uiso   1.00
H76    H     0.20784   0.47024   0.24465   0.00000  Uiso   1.00
P77    P     0.98393   0.99224   0.00746   0.00000  Uiso   1.00
C78    C     0.92474   0.96571   0.05179   0.00000  Uiso   1.00
C79    C     0.88674   0.92248   0.02325   0.00000  Uiso   1.00
H80    H     0.89161   0.90516  -0.02003   0.00000  Uiso   1.00
C81    C     0.84208   0.90518   0.05869   0.00000  Uiso   1.00
H82    H     0.81611   0.87646   0.03844   0.00000  Uiso   1.00
C83    C     0.83532   0.92999   0.12421   0.00000  Uiso   1.00
C84    C     0.87279   0.97280   0.15227   0.00000  Uiso   1.00
H85    H     0.86799   0.98968   0.19648   0.00000  Uiso   1.00
C86    C     0.91750   0.99102   0.11558   0.00000  Uiso   1.00
H87    H     0.94300   1.02063   0.13400   0.00000  Uiso   1.00
C88    C     0.78850   0.91004   0.16625   0.00000  Uiso   1.00
H89    H     0.78603   0.92695   0.21296   0.00000  Uiso   1.00
N90    N     0.74445   0.86483   0.14035   0.00000  Uiso   1.00
C91    C     0.70079   0.84841   0.18496   0.00000  Uiso   1.00
C92    C     0.69835   0.87425   0.25369   0.00000  Uiso   1.00
H93    H     0.72947   0.90677   0.27341   0.00000  Uiso   1.00
C94    C     0.65565   0.85819   0.29731   0.00000  Uiso   1.00
H95    H     0.65426   0.87849   0.35027   0.00000  Uiso   1.00
C96    C     0.61499   0.81615   0.27263   0.00000  Uiso   1.00
C97    C     0.61744   0.79031   0.20390   0.00000  Uiso   1.00
H98    H     0.58630   0.75778   0.18417   0.00000  Uiso   1.00
C99    C     0.66013   0.80636   0.16027   0.00000  Uiso   1.00
H100   H     0.66153   0.78607   0.10731   0.00000  Uiso   1.00
N101   N     0.57133   0.79973   0.31723   0.00000  Uiso   1.00
P102   P     0.33520   0.66531   0.46492   0.00000  Uiso   1.00
C103   C     0.39342   0.69386   0.41632   0.00000  Uiso   1.00
C104   C     0.43215   0.73554   0.44814   0.00000  Uiso   1.00
H105   H     0.42887   0.74957   0.49839   0.00000  Uiso   1.00
C106   C     0.47527   0.75608   0.40586   0.00000  Uiso   1.00
H107   H     0.50127   0.78476   0.42621   0.00000  Uiso   1.00
C108   C     0.48045   0.73456   0.33338   0.00000  Uiso   1.00
C109   C     0.44216   0.69347   0.30169   0.00000  Uiso   1.00
H110   H     0.44578   0.67912   0.25216   0.00000  Uiso   1.00
C111   C     0.39842   0.67326   0.34259   0.00000  Uiso   1.00
H112   H     0.37203   0.64549   0.32029   0.00000  Uiso   1.00
C113   C     0.52729   0.75452   0.29134   0.00000  Uiso   1.00
H114   H     0.52976   0.73760   0.24465   0.00000  Uiso   1.00
P115   P     0.99224   0.00831   0.50746   0.00000  Uiso   1.00
C116   C     0.96571   0.04097   0.55179   0.00000  Uiso   1.00
C117   C     0.92248   0.03574   0.52325   0.00000  Uiso   1.00
H118   H     0.90516   0.01355   0.47997   0.00000  Uiso   1.00
C119   C     0.90518   0.06310   0.55869   0.00000  Uiso   1.00
H120   H     0.87646   0.06035   0.53844   0.00000  Uiso   1.00
C121   C     0.92999   0.09467   0.62421   0.00000  Uiso   1.00
C122   C     0.97280   0.10001   0.65227   0.00000  Uiso   1.00
H123   H     0.98968   0.12169   0.69648   0.00000  Uiso   1.00
C124   C     0.99102   0.07352   0.61558   0.00000  Uiso   1.00
H125   H     1.02063   0.07763   0.63400   0.00000  Uiso   1.00
C126   C     0.91004   0.12154   0.66625   0.00000  Uiso   1.00
H127   H     0.92695   0.14092   0.71296   0.00000  Uiso   1.00
N128   N     0.86483   0.12038   0.64035   0.00000  Uiso   1.00
C129   C     0.84841   0.14762   0.68496   0.00000  Uiso   1.00
C130   C     0.87425   0.17590   0.75369   0.00000  Uiso   1.00
H131   H     0.90677   0.17730   0.77341   0.00000  Uiso   1.00
C132   C     0.85819   0.20254   0.79731   0.00000  Uiso   1.00
H133   H     0.87849   0.22423   0.85027   0.00000  Uiso   1.00
C134   C     0.81615   0.20116   0.77263   0.00000  Uiso   1.00
C135   C     0.79031   0.17287   0.70390   0.00000  Uiso   1.00
H136   H     0.75778   0.17148   0.68417   0.00000  Uiso   1.00
C137   C     0.80636   0.14623   0.66027   0.00000  Uiso   1.00
H138   H     0.78607   0.12454   0.60731   0.00000  Uiso   1.00
N139   N     0.79973   0.22840   0.81723   0.00000  Uiso   1.00
P140   P     0.66531   0.33011   0.96492   0.00000  Uiso   1.00
C141   C     0.69386   0.30044   0.91632   0.00000  Uiso   1.00
C142   C     0.73554   0.30339   0.94814   0.00000  Uiso   1.00
H143   H     0.74957   0.32070   0.99839   0.00000  Uiso   1.00
C144   C     0.75608   0.28081   0.90586   0.00000  Uiso   1.00
H145   H     0.78476   0.28349   0.92621   0.00000  Uiso   1.00
C146   C     0.73456   0.25411   0.83338   0.00000  Uiso   1.00
C147   C     0.69347   0.25131   0.80169   0.00000  Uiso   1.00
H148   H     0.67912   0.23334   0.75216   0.00000  Uiso   1.00
C149   C     0.67326   0.27484   0.84259   0.00000  Uiso   1.00
H150   H     0.64549   0.27346   0.82029   0.00000  Uiso   1.00
C151   C     0.75452   0.22723   0.79134   0.00000  Uiso   1.00
H152   H     0.73760   0.20784   0.74465   0.00000  Uiso   1.00
P153   P     0.99169   0.98393   0.50746   0.00000  Uiso   1.00
C154   C     0.95903   0.92474   0.55179   0.00000  Uiso   1.00
C155   C     0.96426   0.88674   0.52325   0.00000  Uiso   1.00
H156   H     0.98645   0.89161   0.47997   0.00000  Uiso   1.00
C157   C     0.93690   0.84208   0.55869   0.00000  Uiso   1.00
H158   H     0.93965   0.81611   0.53844   0.00000  Uiso   1.00
C159   C     0.90533   0.83532   0.62421   0.00000  Uiso   1.00
C160   C     0.89999   0.87279   0.65227   0.00000  Uiso   1.00
H161   H     0.87831   0.86799   0.69648   0.00000  Uiso   1.00
C162   C     0.92648   0.91750   0.61558   0.00000  Uiso   1.00
H163   H     0.92237   0.94300   0.63400   0.00000  Uiso   1.00
C164   C     0.87846   0.78850   0.66625   0.00000  Uiso   1.00
H165   H     0.85908   0.78603   0.71296   0.00000  Uiso   1.00
N166   N     0.87962   0.74445   0.64035   0.00000  Uiso   1.00
C167   C     0.85238   0.70079   0.68496   0.00000  Uiso   1.00
C168   C     0.82410   0.69835   0.75369   0.00000  Uiso   1.00
H169   H     0.82270   0.72947   0.77341   0.00000  Uiso   1.00
C170   C     0.79746   0.65565   0.79731   0.00000  Uiso   1.00
H171   H     0.77577   0.65426   0.85027   0.00000  Uiso   1.00
C172   C     0.79884   0.61499   0.77263   0.00000  Uiso   1.00
C173   C     0.82713   0.61744   0.70390   0.00000  Uiso   1.00
H174   H     0.82852   0.58630   0.68417   0.00000  Uiso   1.00
C175   C     0.85377   0.66013   0.66027   0.00000  Uiso   1.00
H176   H     0.87546   0.66153   0.60731   0.00000  Uiso   1.00
N177   N     0.77160   0.57133   0.81723   0.00000  Uiso   1.00
P178   P     0.66989   0.33520   0.96492   0.00000  Uiso   1.00
C179   C     0.69956   0.39342   0.91632   0.00000  Uiso   1.00
C180   C     0.69661   0.43215   0.94814   0.00000  Uiso   1.00
H181   H     0.67930   0.42887   0.99839   0.00000  Uiso   1.00
C182   C     0.71919   0.47527   0.90586   0.00000  Uiso   1.00
H183   H     0.71651   0.50127   0.92621   0.00000  Uiso   1.00
C184   C     0.74589   0.48045   0.83338   0.00000  Uiso   1.00
C185   C     0.74869   0.44216   0.80169   0.00000  Uiso   1.00
H186   H     0.76666   0.44578   0.75216   0.00000  Uiso   1.00
C187   C     0.72516   0.39842   0.84259   0.00000  Uiso   1.00
H188   H     0.72654   0.37203   0.82029   0.00000  Uiso   1.00
C189   C     0.77277   0.52729   0.79134   0.00000  Uiso   1.00
H190   H     0.79216   0.52976   0.74465   0.00000  Uiso   1.00
P191   P     0.01607   0.00776   0.50746   0.00000  Uiso   1.00
C192   C     0.07526   0.03429   0.55179   0.00000  Uiso   1.00
C193   C     0.11326   0.07752   0.52325   0.00000  Uiso   1.00
H194   H     0.10839   0.09484   0.47997   0.00000  Uiso   1.00
C195   C     0.15792   0.09482   0.55869   0.00000  Uiso   1.00
H196   H     0.18389   0.12354   0.53844   0.00000  Uiso   1.00
C197   C     0.16468   0.07001   0.62421   0.00000  Uiso   1.00
C198   C     0.12721   0.02720   0.65227   0.00000  Uiso   1.00
H199   H     0.13201   0.01032   0.69648   0.00000  Uiso   1.00
C200   C     0.08250   0.00898   0.61558   0.00000  Uiso   1.00
H201   H     0.05700  -0.02063   0.63400   0.00000  Uiso   1.00
C202   C     0.21150   0.08996   0.66625   0.00000  Uiso   1.00
H203   H     0.21397   0.07305   0.71296   0.00000  Uiso   1.00
N204   N     0.25555   0.13517   0.64035   0.00000  Uiso   1.00
C205   C     0.29921   0.15159   0.68496   0.00000  Uiso   1.00
C206   C     0.30165   0.12575   0.75369   0.00000  Uiso   1.00
H207   H     0.27053   0.09323   0.77341   0.00000  Uiso   1.00
C208   C     0.34435   0.14181   0.79731   0.00000  Uiso   1.00
H209   H     0.34574   0.12151   0.85027   0.00000  Uiso   1.00
C210   C     0.38501   0.18385   0.77263   0.00000  Uiso   1.00
C211   C     0.38256   0.20969   0.70390   0.00000  Uiso   1.00
H212   H     0.41370   0.24222   0.68417   0.00000  Uiso   1.00
C213   C     0.33987   0.19364   0.66027   0.00000  Uiso   1.00
H214   H     0.33847   0.21393   0.60731   0.00000  Uiso   1.00
N215   N     0.42867   0.20027   0.81723   0.00000  Uiso   1.00
P216   P     0.66480   0.33469   0.96492   0.00000  Uiso   1.00
C217   C     0.60658   0.30614   0.91632   0.00000  Uiso   1.00
C218   C     0.56785   0.26446   0.94814   0.00000  Uiso   1.00
H219   H     0.57113   0.25043   0.99839   0.00000  Uiso   1.00
C220   C     0.52473   0.24392   0.90586   0.00000  Uiso   1.00
H221   H     0.49873   0.21524   0.92621   0.00000  Uiso   1.00
C222   C     0.51955   0.26544   0.83338   0.00000  Uiso   1.00
C223   C     0.55784   0.30653   0.80169   0.00000  Uiso   1.00
H224   H     0.55422   0.32088   0.75216   0.00000  Uiso   1.00
C225   C     0.60158   0.32674   0.84259   0.00000  Uiso   1.00
H226   H     0.62797   0.35451   0.82029   0.00000  Uiso   1.00
C227   C     0.47271   0.24548   0.79134   0.00000  Uiso   1.00
H228   H     0.47024   0.26240   0.74465   0.00000  Uiso   1.00
loop_
_geom_bond_atom_site_label_1
_geom_bond_atom_site_label_2
_geom_bond_distance
_geom_bond_site_symmetry_2
_ccdc_geom_bond_type
P1     C2      1.813   .     D
C2     C3      1.405   .     S
C2     C10     1.396   .     S
C3     H4      0.950   .     S
C3     C5      1.388   .     D
C5     H6      0.949   .     S
C5     C7      1.398   .     S
C7     C8      1.388   .     S
C7     C12     1.483   .     D
C8     H9      0.950   .     S
C8     C10     1.394   .     D
C10    H11     0.950   .     S
C12    H13     0.949   .     S
C12    N14     1.510   .     S
N14    C15     1.430   .     D
C15    C16     1.402   .     S
C15    C23     1.402   .     S
C16    H17     1.083   .     S
C16    C18     1.399   .     D
C18    H19     1.083   .     S
C18    C20     1.402   .     S
C20    C21     1.402   .     S
C20    N25     1.430   .     D
C21    H22     1.083   .     S
C21    C23     1.398   .     D
C23    H24     1.083   .     S
N25    C37     1.510   .     S
P26    C27     1.813   .     S
P26    C65     1.945   .     S
P26    C103    1.834   .     S
C27    C28     1.405   .     S
C27    C35     1.396   .     S
C27    P64     1.834   .     S
C27    P102    1.945   .     S
C28    H29     0.950   .     S
C28    C30     1.388   .     D
C30    H31     0.950   .     S
C30    C32     1.398   .     S
C32    C33     1.388   .     S
C32    C37     1.483   .     D
C33    H34     0.950   .     S
C33    C35     1.394   .     D
C35    H36     0.950   .     S
C37    H38     0.949   .     S
P39    C40     1.813   .     D
C40    C41     1.405   .     S
C40    C48     1.396   .     S
C41    H42     0.950   .     S
C41    C43     1.388   .     D
C43    H44     0.949   .     S
C43    C45     1.398   .     S
C45    C46     1.388   .     S
C45    C50     1.483   .     D
C46    H47     0.950   .     S
C46    C48     1.394   .     D
C48    H49     0.950   .     S
C50    H51     0.949   .     S
C50    N52     1.510   .     S
N52    C53     1.430   .     D
C53    C54     1.402   .     S
C53    C61     1.402   .     S
C54    H55     1.083   .     S
C54    C56     1.399   .     D
C56    H57     1.083   .     S
C56    C58     1.402   .     S
C58    C59     1.402   .     S
C58    N63     1.430   .     D
C59    H60     1.083   .     S
C59    C61     1.398   .     D
C61    H62     1.083   .     S
N63    C75     1.510   .     S
P64    C65     1.813   .     S
P64    C103    1.945   .     S
C65    C66     1.405   .     S
C65    C73     1.396   .     S
C65    P102    1.834   .     S
C66    H67     0.950   .     S
C66    C68     1.388   .     D
C68    H69     0.950   .     S
C68    C70     1.398   .     S
C70    C71     1.388   .     S
C70    C75     1.483   .     D
C71    H72     0.950   .     S
C71    C73     1.394   .     D
C73    H74     0.950   .     S
C75    H76     0.949   .     S
P77    C78     1.813   .     D
C78    C79     1.405   .     S
C78    C86     1.396   .     S
C79    H80     0.950   .     S
C79    C81     1.388   .     D
C81    H82     0.949   .     S
C81    C83     1.398   .     S
C83    C84     1.388   .     S
C83    C88     1.483   .     D
C84    H85     0.950   .     S
C84    C86     1.394   .     D
C86    H87     0.950   .     S
C88    H89     0.949   .     S
C88    N90     1.510   .     S
N90    C91     1.430   .     D
C91    C92     1.402   .     S
C91    C99     1.402   .     S
C92    H93     1.083   .     S
C92    C94     1.399   .     D
C94    H95     1.083   .     S
C94    C96     1.402   .     S
C96    C97     1.402   .     S
C96    N101    1.430   .     D
C97    H98     1.083   .     S
C97    C99     1.398   .     D
C99    H100    1.083   .     S
N101   C113    1.510   .     S
P102   C103    1.813   .     S
C103   C104    1.405   .     S
C103   C111    1.396   .     S
C104   H105    0.950   .     S
C104   C106    1.388   .     D
C106   H107    0.950   .     S
C106   C108    1.398   .     S
C108   C109    1.388   .     S
C108   C113    1.483   .     D
C109   H110    0.950   .     S
C109   C111    1.394   .     D
C111   H112    0.950   .     S
C113   H114    0.949   .     S
P115   C116    1.813   .     D
C116   C117    1.405   .     S
C116   C124    1.396   .     S
C117   H118    0.950   .     S
C117   C119    1.388   .     D
C119   H120    0.949   .     S
C119   C121    1.398   .     S
C121   C122    1.388   .     S
C121   C126    1.483   .     D
C122   H123    0.950   .     S
C122   C124    1.394   .     D
C124   H125    0.950   .     S
C126   H127    0.949   .     S
C126   N128    1.510   .     S
N128   C129    1.430   .     D
C129   C130    1.402   .     S
C129   C137    1.402   .     S
C130   H131    1.083   .     S
C130   C132    1.399   .     D
C132   H133    1.083   .     S
C132   C134    1.402   .     S
C134   C135    1.402   .     S
C134   N139    1.430   .     D
C135   H136    1.083   .     S
C135   C137    1.398   .     D
C137   H138    1.083   .     S
N139   C151    1.510   .     S
P140   C141    1.813   .     S
P140   C179    1.945   .     S
P140   C217    1.834   .     S
C141   C142    1.405   .     S
C141   C149    1.396   .     S
C141   P178    1.834   .     S
C141   P216    1.945   .     S
C142   H143    0.950   .     S
C142   C144    1.388   .     D
C144   H145    0.950   .     S
C144   C146    1.398   .     S
C146   C147    1.388   .     S
C146   C151    1.483   .     D
C147   H148    0.950   .     S
C147   C149    1.394   .     D
C149   H150    0.950   .     S
C151   H152    0.949   .     S
P153   C154    1.813   .     D
C154   C155    1.405   .     S
C154   C162    1.396   .     S
C155   H156    0.950   .     S
C155   C157    1.388   .     D
C157   H158    0.949   .     S
C157   C159    1.398   .     S
C159   C160    1.388   .     S
C159   C164    1.483   .     D
C160   H161    0.950   .     S
C160   C162    1.394   .     D
C162   H163    0.950   .     S
C164   H165    0.949   .     S
C164   N166    1.510   .     S
N166   C167    1.430   .     D
C167   C168    1.402   .     S
C167   C175    1.402   .     S
C168   H169    1.083   .     S
C168   C170    1.399   .     D
C170   H171    1.083   .     S
C170   C172    1.402   .     S
C172   C173    1.402   .     S
C172   N177    1.430   .     D
C173   H174    1.083   .     S
C173   C175    1.398   .     D
C175   H176    1.083   .     S
N177   C189    1.510   .     S
P178   C179    1.813   .     S
P178   C217    1.945   .     S
C179   C180    1.405   .     S
C179   C187    1.396   .     S
C179   P216    1.834   .     S
C180   H181    0.950   .     S
C180   C182    1.388   .     D
C182   H183    0.950   .     S
C182   C184    1.398   .     S
C184   C185    1.388   .     S
C184   C189    1.483   .     D
C185   H186    0.950   .     S
C185   C187    1.394   .     D
C187   H188    0.950   .     S
C189   H190    0.949   .     S
P191   C192    1.813   .     D
C192   C193    1.405   .     S
C192   C200    1.396   .     S
C193   H194    0.950   .     S
C193   C195    1.388   .     D
C195   H196    0.949   .     S
C195   C197    1.398   .     S
C197   C198    1.388   .     S
C197   C202    1.483   .     D
C198   H199    0.950   .     S
C198   C200    1.394   .     D
C200   H201    0.950   .     S
C202   H203    0.949   .     S
C202   N204    1.510   .     S
N204   C205    1.430   .     D
C205   C206    1.402   .     S
C205   C213    1.402   .     S
C206   H207    1.083   .     S
C206   C208    1.399   .     D
C208   H209    1.083   .     S
C208   C210    1.402   .     S
C210   C211    1.402   .     S
C210   N215    1.430   .     D
C211   H212    1.083   .     S
C211   C213    1.398   .     D
C213   H214    1.083   .     S
N215   C227    1.510   .     S
P216   C217    1.813   .     S
C217   C218    1.405   .     S
C217   C225    1.396   .     S
C218   H219    0.950   .     S
C218   C220    1.388   .     D
C220   H221    0.950   .     S
C220   C222    1.398   .     S
C222   C223    1.388   .     S
C222   C227    1.483   .     D
C223   H224    0.950   .     S
C223   C225    1.394   .     D
C225   H226    0.950   .     S
C227   H228    0.949   .     S
