data_346
_audit_creation_date              2023-09-08
_audit_creation_method            'Materials Studio'
_symmetry_space_group_name_H-M    'P1'
_symmetry_Int_Tables_number       1
_symmetry_cell_setting            triclinic
loop_
_symmetry_equiv_pos_as_xyz
  x,y,z
_cell_length_a                    40.3490
_cell_length_b                    40.3490
_cell_length_c                    7.9215
_cell_angle_alpha                 90.0000
_cell_angle_beta                  90.0000
_cell_angle_gamma                 120.0000
loop_
_atom_site_label
_atom_site_type_symbol
_atom_site_fract_x
_atom_site_fract_y
_atom_site_fract_z
_atom_site_U_iso_or_equiv
_atom_site_adp_type
_atom_site_occupancy
C1     C     0.65247   0.36048   0.70281   0.00000  Uiso   1.00
C2     C     0.62574   0.35060   0.57282   0.00000  Uiso   1.00
H3     H     0.61735   0.32402   0.49321   0.00000  Uiso   1.00
C4     C     0.60935   0.37315   0.54035   0.00000  Uiso   1.00
H5     H     0.58773   0.36519   0.43354   0.00000  Uiso   1.00
C6     C     0.61950   0.40552   0.63913   0.00000  Uiso   1.00
C7     C     0.64527   0.41481   0.77197   0.00000  Uiso   1.00
H8     H     0.65273   0.44075   0.85460   0.00000  Uiso   1.00
C9     C     0.66189   0.39248   0.80397   0.00000  Uiso   1.00
H10    H     0.68314   0.40012   0.91213   0.00000  Uiso   1.00
C11    C     0.60336   0.43080   0.60422   0.00000  Uiso   1.00
H12    H     0.61047   0.45603   0.69102   0.00000  Uiso   1.00
N13    N     0.57730   0.42555   0.45745   0.00000  Uiso   1.00
C14    C     0.55486   0.44630   0.45222   0.00000  Uiso   1.00
C15    C     0.57353   0.48817   0.51174   0.00000  Uiso   1.00
C16    C     0.55065   0.50934   0.50641   0.00000  Uiso   1.00
C17    C     0.50911   0.48863   0.44156   0.00000  Uiso   1.00
C18    C     0.49044   0.44676   0.38203   0.00000  Uiso   1.00
C19    C     0.51332   0.42559   0.38736   0.00000  Uiso   1.00
H20    H     0.60428   0.50350   0.55975   0.00000  Uiso   1.00
H21    H     0.56447   0.54033   0.55048   0.00000  Uiso   1.00
H22    H     0.45968   0.43143   0.33402   0.00000  Uiso   1.00
H23    H     0.49950   0.39460   0.34330   0.00000  Uiso   1.00
C24    C     0.63952   0.29199   0.70281   0.00000  Uiso   1.00
C25    C     0.64940   0.27514   0.57282   0.00000  Uiso   1.00
H26    H     0.67598   0.29333   0.49321   0.00000  Uiso   1.00
C27    C     0.62685   0.23620   0.54035   0.00000  Uiso   1.00
H28    H     0.63481   0.22254   0.43354   0.00000  Uiso   1.00
C29    C     0.59448   0.21398   0.63913   0.00000  Uiso   1.00
C30    C     0.58519   0.23046   0.77197   0.00000  Uiso   1.00
H31    H     0.55925   0.21198   0.85460   0.00000  Uiso   1.00
C32    C     0.60752   0.26941   0.80397   0.00000  Uiso   1.00
H33    H     0.59988   0.28302   0.91213   0.00000  Uiso   1.00
C34    C     0.56920   0.17256   0.60422   0.00000  Uiso   1.00
H35    H     0.54397   0.15444   0.69102   0.00000  Uiso   1.00
N36    N     0.57445   0.15175   0.45745   0.00000  Uiso   1.00
C37    C     0.55370   0.10856   0.45222   0.00000  Uiso   1.00
C38    C     0.51183   0.08536   0.51174   0.00000  Uiso   1.00
C39    C     0.49066   0.04131   0.50641   0.00000  Uiso   1.00
C40    C     0.51137   0.02048   0.44156   0.00000  Uiso   1.00
C41    C     0.55324   0.04368   0.38203   0.00000  Uiso   1.00
C42    C     0.57441   0.08773   0.38736   0.00000  Uiso   1.00
H43    H     0.49650   0.10078   0.55975   0.00000  Uiso   1.00
H44    H     0.45967   0.02414   0.55048   0.00000  Uiso   1.00
H45    H     0.56857   0.02825   0.33402   0.00000  Uiso   1.00
H46    H     0.60540   0.10490   0.34330   0.00000  Uiso   1.00
C47    C     0.70801   0.34753   0.70281   0.00000  Uiso   1.00
C48    C     0.72486   0.37426   0.57282   0.00000  Uiso   1.00
H49    H     0.70667   0.38265   0.49321   0.00000  Uiso   1.00
C50    C     0.76380   0.39065   0.54035   0.00000  Uiso   1.00
H51    H     0.77746   0.41227   0.43354   0.00000  Uiso   1.00
C52    C     0.78602   0.38050   0.63913   0.00000  Uiso   1.00
C53    C     0.76954   0.35473   0.77197   0.00000  Uiso   1.00
H54    H     0.78802   0.34727   0.85460   0.00000  Uiso   1.00
C55    C     0.73059   0.33811   0.80397   0.00000  Uiso   1.00
H56    H     0.71698   0.31686   0.91213   0.00000  Uiso   1.00
C57    C     0.82744   0.39664   0.60422   0.00000  Uiso   1.00
H58    H     0.84556   0.38953   0.69102   0.00000  Uiso   1.00
N59    N     0.84825   0.42270   0.45745   0.00000  Uiso   1.00
C60    C     0.89144   0.44514   0.45222   0.00000  Uiso   1.00
C61    C     0.91464   0.42647   0.51174   0.00000  Uiso   1.00
C62    C     0.95869   0.44935   0.50641   0.00000  Uiso   1.00
C63    C     0.97952   0.49089   0.44156   0.00000  Uiso   1.00
C64    C     0.95632   0.50956   0.38203   0.00000  Uiso   1.00
C65    C     0.91227   0.48668   0.38736   0.00000  Uiso   1.00
H66    H     0.89922   0.39572   0.55975   0.00000  Uiso   1.00
H67    H     0.97586   0.43553   0.55048   0.00000  Uiso   1.00
H68    H     0.97175   0.54032   0.33402   0.00000  Uiso   1.00
H69    H     0.89510   0.50050   0.34330   0.00000  Uiso   1.00
C70    C     0.34753   0.63952   0.70281   0.00000  Uiso   1.00
C71    C     0.37426   0.64940   0.57282   0.00000  Uiso   1.00
H72    H     0.38265   0.67598   0.49321   0.00000  Uiso   1.00
C73    C     0.39065   0.62685   0.54035   0.00000  Uiso   1.00
H74    H     0.41227   0.63481   0.43354   0.00000  Uiso   1.00
C75    C     0.38050   0.59448   0.63913   0.00000  Uiso   1.00
C76    C     0.35473   0.58519   0.77197   0.00000  Uiso   1.00
H77    H     0.34727   0.55925   0.85460   0.00000  Uiso   1.00
C78    C     0.33811   0.60752   0.80397   0.00000  Uiso   1.00
H79    H     0.31686   0.59988   0.91213   0.00000  Uiso   1.00
C80    C     0.39664   0.56920   0.60422   0.00000  Uiso   1.00
H81    H     0.38953   0.54397   0.69102   0.00000  Uiso   1.00
N82    N     0.42270   0.57445   0.45745   0.00000  Uiso   1.00
C83    C     0.44514   0.55370   0.45222   0.00000  Uiso   1.00
C84    C     0.42647   0.51183   0.51174   0.00000  Uiso   1.00
C85    C     0.44935   0.49066   0.50641   0.00000  Uiso   1.00
C86    C     0.49089   0.51137   0.44156   0.00000  Uiso   1.00
C87    C     0.50956   0.55324   0.38203   0.00000  Uiso   1.00
C88    C     0.48668   0.57441   0.38736   0.00000  Uiso   1.00
H89    H     0.39572   0.49650   0.55975   0.00000  Uiso   1.00
H90    H     0.43553   0.45967   0.55048   0.00000  Uiso   1.00
H91    H     0.54032   0.56857   0.33402   0.00000  Uiso   1.00
H92    H     0.50050   0.60540   0.34330   0.00000  Uiso   1.00
C93    C     0.36048   0.70801   0.70281   0.00000  Uiso   1.00
C94    C     0.35060   0.72486   0.57282   0.00000  Uiso   1.00
H95    H     0.32402   0.70667   0.49321   0.00000  Uiso   1.00
C96    C     0.37315   0.76380   0.54035   0.00000  Uiso   1.00
H97    H     0.36519   0.77746   0.43354   0.00000  Uiso   1.00
C98    C     0.40552   0.78602   0.63913   0.00000  Uiso   1.00
C99    C     0.41481   0.76954   0.77197   0.00000  Uiso   1.00
H100   H     0.44075   0.78802   0.85460   0.00000  Uiso   1.00
C101   C     0.39248   0.73059   0.80397   0.00000  Uiso   1.00
H102   H     0.40012   0.71698   0.91213   0.00000  Uiso   1.00
C103   C     0.43080   0.82744   0.60422   0.00000  Uiso   1.00
H104   H     0.45603   0.84556   0.69102   0.00000  Uiso   1.00
N105   N     0.42555   0.84825   0.45745   0.00000  Uiso   1.00
C106   C     0.44630   0.89144   0.45222   0.00000  Uiso   1.00
C107   C     0.48817   0.91464   0.51174   0.00000  Uiso   1.00
C108   C     0.50934   0.95869   0.50641   0.00000  Uiso   1.00
C109   C     0.48863   0.97952   0.44156   0.00000  Uiso   1.00
C110   C     0.44676   0.95632   0.38203   0.00000  Uiso   1.00
C111   C     0.42559   0.91227   0.38736   0.00000  Uiso   1.00
H112   H     0.50350   0.89922   0.55975   0.00000  Uiso   1.00
H113   H     0.54033   0.97586   0.55048   0.00000  Uiso   1.00
H114   H     0.43143   0.97175   0.33402   0.00000  Uiso   1.00
H115   H     0.39460   0.89510   0.34330   0.00000  Uiso   1.00
C116   C     0.29199   0.65247   0.70281   0.00000  Uiso   1.00
C117   C     0.27514   0.62574   0.57282   0.00000  Uiso   1.00
H118   H     0.29333   0.61735   0.49321   0.00000  Uiso   1.00
C119   C     0.23620   0.60935   0.54035   0.00000  Uiso   1.00
H120   H     0.22254   0.58773   0.43354   0.00000  Uiso   1.00
C121   C     0.21398   0.61950   0.63913   0.00000  Uiso   1.00
C122   C     0.23046   0.64527   0.77197   0.00000  Uiso   1.00
H123   H     0.21198   0.65273   0.85460   0.00000  Uiso   1.00
C124   C     0.26941   0.66189   0.80397   0.00000  Uiso   1.00
H125   H     0.28302   0.68314   0.91213   0.00000  Uiso   1.00
C126   C     0.17256   0.60336   0.60422   0.00000  Uiso   1.00
H127   H     0.15444   0.61047   0.69102   0.00000  Uiso   1.00
N128   N     0.15175   0.57730   0.45745   0.00000  Uiso   1.00
C129   C     0.10856   0.55486   0.45222   0.00000  Uiso   1.00
C130   C     0.08536   0.57353   0.51174   0.00000  Uiso   1.00
C131   C     0.04131   0.55065   0.50641   0.00000  Uiso   1.00
C132   C     0.02048   0.50911   0.44156   0.00000  Uiso   1.00
C133   C     0.04368   0.49044   0.38203   0.00000  Uiso   1.00
C134   C     0.08773   0.51332   0.38736   0.00000  Uiso   1.00
H135   H     0.10078   0.60428   0.55975   0.00000  Uiso   1.00
H136   H     0.02414   0.56447   0.55048   0.00000  Uiso   1.00
H137   H     0.02825   0.45968   0.33402   0.00000  Uiso   1.00
H138   H     0.10490   0.49950   0.34330   0.00000  Uiso   1.00
P139   P     0.66667   0.33333   0.72843   0.00000  Uiso   1.00
P140   P     0.33333   0.66667   0.72843   0.00000  Uiso   1.00
loop_
_geom_bond_atom_site_label_1
_geom_bond_atom_site_label_2
_geom_bond_distance
_geom_bond_site_symmetry_2
_ccdc_geom_bond_type
C1     C2      1.397   .     D
C1     C9      1.401   .     S
C1     P139    1.482   .     S
C2     H3      1.140   .     S
C2     C4      1.390   .     S
C4     H5      1.140   .     S
C4     C6      1.397   .     D
C6     C7      1.393   .     S
C6     C11     1.485   .     S
C7     H8      1.140   .     S
C7     C9      1.389   .     D
C9     H10     1.140   .     S
C11    H12     1.140   .     S
C11    N13     1.510   .     D
N13    C14     1.510   .     S
C14    C15     1.540   .     D
C14    C19     1.540   .     S
C15    C16     1.540   .     S
C15    H20     1.140   .     S
C16    C17     1.540   .     D
C16    H21     1.140   .     S
C17    C18     1.540   .     S
C17    C86     1.434   .     S
C18    C19     1.540   .     D
C18    H22     1.140   .     S
C19    H23     1.140   .     S
C24    C25     1.397   .     D
C24    C32     1.401   .     S
C24    P139    1.482   .     S
C25    H26     1.140   .     S
C25    C27     1.390   .     S
C27    H28     1.140   .     S
C27    C29     1.397   .     D
C29    C30     1.393   .     S
C29    C34     1.485   .     S
C30    H31     1.140   .     S
C30    C32     1.389   .     D
C32    H33     1.140   .     S
C34    H35     1.140   .     S
C34    N36     1.510   .     D
N36    C37     1.510   .     S
C37    C38     1.540   .     D
C37    C42     1.540   .     S
C38    C39     1.540   .     S
C38    H43     1.140   .     S
C39    C40     1.540   .     D
C39    H44     1.140   .     S
C40    C41     1.540   .     S
C40    C109    1.434   1_545 S
C41    C42     1.540   .     D
C41    H45     1.140   .     S
C42    H46     1.140   .     S
C47    C48     1.397   .     D
C47    C55     1.401   .     S
C47    P139    1.482   .     S
C48    H49     1.140   .     S
C48    C50     1.390   .     S
C50    H51     1.140   .     S
C50    C52     1.397   .     D
C52    C53     1.393   .     S
C52    C57     1.485   .     S
C53    H54     1.140   .     S
C53    C55     1.389   .     D
C55    H56     1.140   .     S
C57    H58     1.140   .     S
C57    N59     1.510   .     D
N59    C60     1.510   .     S
C60    C61     1.540   .     D
C60    C65     1.540   .     S
C61    C62     1.540   .     S
C61    H66     1.140   .     S
C62    C63     1.540   .     D
C62    H67     1.140   .     S
C63    C64     1.540   .     S
C63    C132    1.434   1_655 S
C64    C65     1.540   .     D
C64    H68     1.140   .     S
C65    H69     1.140   .     S
C70    C71     1.397   .     D
C70    C78     1.401   .     S
C70    P140    1.482   .     S
C71    H72     1.140   .     S
C71    C73     1.390   .     S
C73    H74     1.140   .     S
C73    C75     1.397   .     D
C75    C76     1.393   .     S
C75    C80     1.485   .     S
C76    H77     1.140   .     S
C76    C78     1.389   .     D
C78    H79     1.140   .     S
C80    H81     1.140   .     S
C80    N82     1.510   .     D
N82    C83     1.510   .     S
C83    C84     1.540   .     D
C83    C88     1.540   .     S
C84    C85     1.540   .     S
C84    H89     1.140   .     S
C85    C86     1.540   .     D
C85    H90     1.140   .     S
C86    C87     1.540   .     S
C87    C88     1.540   .     D
C87    H91     1.140   .     S
C88    H92     1.140   .     S
C93    C94     1.397   .     D
C93    C101    1.401   .     S
C93    P140    1.482   .     S
C94    H95     1.140   .     S
C94    C96     1.390   .     S
C96    H97     1.140   .     S
C96    C98     1.397   .     D
C98    C99     1.393   .     S
C98    C103    1.485   .     S
C99    H100    1.140   .     S
C99    C101    1.389   .     D
C101   H102    1.140   .     S
C103   H104    1.140   .     S
C103   N105    1.510   .     D
N105   C106    1.510   .     S
C106   C107    1.540   .     D
C106   C111    1.540   .     S
C107   C108    1.540   .     S
C107   H112    1.140   .     S
C108   C109    1.540   .     D
C108   H113    1.140   .     S
C109   C40     1.434   1_565 S
C109   C110    1.540   .     S
C110   C111    1.540   .     D
C110   H114    1.140   .     S
C111   H115    1.140   .     S
C116   C117    1.397   .     D
C116   C124    1.401   .     S
C116   P140    1.482   .     S
C117   H118    1.140   .     S
C117   C119    1.390   .     S
C119   H120    1.140   .     S
C119   C121    1.397   .     D
C121   C122    1.393   .     S
C121   C126    1.485   .     S
C122   H123    1.140   .     S
C122   C124    1.389   .     D
C124   H125    1.140   .     S
C126   H127    1.140   .     S
C126   N128    1.510   .     D
N128   C129    1.510   .     S
C129   C130    1.540   .     D
C129   C134    1.540   .     S
C130   C131    1.540   .     S
C130   H135    1.140   .     S
C131   C132    1.540   .     D
C131   H136    1.140   .     S
C132   C63     1.434   1_455 S
C132   C133    1.540   .     S
C133   C134    1.540   .     D
C133   H137    1.140   .     S
C134   H138    1.140   .     S
