data_347
_audit_creation_date              2023-09-08
_audit_creation_method            'Materials Studio'
_symmetry_space_group_name_H-M    'P1'
_symmetry_Int_Tables_number       1
_symmetry_cell_setting            triclinic
loop_
_symmetry_equiv_pos_as_xyz
  x,y,z
_cell_length_a                    22.8500
_cell_length_b                    22.8500
_cell_length_c                    3.3400
_cell_angle_alpha                 90.0000
_cell_angle_beta                  90.0000
_cell_angle_gamma                 90.0000
loop_
_atom_site_label
_atom_site_type_symbol
_atom_site_fract_x
_atom_site_fract_y
_atom_site_fract_z
_atom_site_U_iso_or_equiv
_atom_site_adp_type
_atom_site_occupancy
C1     C     0.44785   0.03036   0.50000   0.00000  Uiso   1.00
C2     C     0.53088   0.21731   0.50000   0.00000  Uiso   1.00
C3     C     0.43790   0.26901   0.50000   0.00000  Uiso   1.00
C4     C     0.47061   0.32024   0.50000   0.00000  Uiso   1.00
C5     C     0.44691   0.37752   0.50000   0.00000  Uiso   1.00
O6     O     0.44691   0.16189   0.50000   0.00000  Uiso   1.00
H7     H     0.40652   0.05426   0.50000   0.00000  Uiso   1.00
H8     H     0.39038   0.27113   0.50000   0.00000  Uiso   1.00
C9     C     0.96964   0.44785   0.50000   0.00000  Uiso   1.00
C10    C     0.78269   0.53088   0.50000   0.00000  Uiso   1.00
C11    C     0.73099   0.43790   0.50000   0.00000  Uiso   1.00
C12    C     0.67976   0.47061   0.50000   0.00000  Uiso   1.00
C13    C     0.62248   0.44691   0.50000   0.00000  Uiso   1.00
O14    O     0.83811   0.44691   0.50000   0.00000  Uiso   1.00
H15    H     0.94574   0.40652   0.50000   0.00000  Uiso   1.00
H16    H     0.72887   0.39038   0.50000   0.00000  Uiso   1.00
N17    N     0.39484   0.39484   0.50000   0.00000  Uiso   1.00
C18    C     0.55215   0.96964   0.50000   0.00000  Uiso   1.00
C19    C     0.46912   0.78269   0.50000   0.00000  Uiso   1.00
C20    C     0.56210   0.73099   0.50000   0.00000  Uiso   1.00
C21    C     0.52939   0.67976   0.50000   0.00000  Uiso   1.00
C22    C     0.55309   0.62248   0.50000   0.00000  Uiso   1.00
O23    O     0.55309   0.83811   0.50000   0.00000  Uiso   1.00
H24    H     0.59348   0.94574   0.50000   0.00000  Uiso   1.00
H25    H     0.60962   0.72887   0.50000   0.00000  Uiso   1.00
C26    C     0.03036   0.55215   0.50000   0.00000  Uiso   1.00
C27    C     0.21731   0.46912   0.50000   0.00000  Uiso   1.00
C28    C     0.26901   0.56210   0.50000   0.00000  Uiso   1.00
C29    C     0.32024   0.52939   0.50000   0.00000  Uiso   1.00
C30    C     0.37752   0.55309   0.50000   0.00000  Uiso   1.00
O31    O     0.16189   0.55309   0.50000   0.00000  Uiso   1.00
H32    H     0.05426   0.59348   0.50000   0.00000  Uiso   1.00
H33    H     0.27113   0.60962   0.50000   0.00000  Uiso   1.00
N34    N     0.60516   0.60516   0.50000   0.00000  Uiso   1.00
C35    C     0.55215   0.03036   0.50000   0.00000  Uiso   1.00
C36    C     0.46912   0.21731   0.50000   0.00000  Uiso   1.00
C37    C     0.56210   0.26901   0.50000   0.00000  Uiso   1.00
C38    C     0.52939   0.32024   0.50000   0.00000  Uiso   1.00
C39    C     0.55309   0.37752   0.50000   0.00000  Uiso   1.00
O40    O     0.55309   0.16189   0.50000   0.00000  Uiso   1.00
H41    H     0.59348   0.05426   0.50000   0.00000  Uiso   1.00
H42    H     0.60962   0.27113   0.50000   0.00000  Uiso   1.00
C43    C     0.03036   0.44785   0.50000   0.00000  Uiso   1.00
C44    C     0.21731   0.53088   0.50000   0.00000  Uiso   1.00
C45    C     0.26901   0.43790   0.50000   0.00000  Uiso   1.00
C46    C     0.32024   0.47061   0.50000   0.00000  Uiso   1.00
C47    C     0.37752   0.44691   0.50000   0.00000  Uiso   1.00
O48    O     0.16189   0.44691   0.50000   0.00000  Uiso   1.00
H49    H     0.05426   0.40652   0.50000   0.00000  Uiso   1.00
H50    H     0.27113   0.39038   0.50000   0.00000  Uiso   1.00
N51    N     0.60516   0.39484   0.50000   0.00000  Uiso   1.00
C52    C     0.44785   0.96964   0.50000   0.00000  Uiso   1.00
C53    C     0.53088   0.78269   0.50000   0.00000  Uiso   1.00
C54    C     0.43790   0.73099   0.50000   0.00000  Uiso   1.00
C55    C     0.47061   0.67976   0.50000   0.00000  Uiso   1.00
C56    C     0.44691   0.62248   0.50000   0.00000  Uiso   1.00
O57    O     0.44691   0.83811   0.50000   0.00000  Uiso   1.00
H58    H     0.40652   0.94574   0.50000   0.00000  Uiso   1.00
H59    H     0.39038   0.72887   0.50000   0.00000  Uiso   1.00
C60    C     0.96964   0.55215   0.50000   0.00000  Uiso   1.00
C61    C     0.78269   0.46912   0.50000   0.00000  Uiso   1.00
C62    C     0.73099   0.56210   0.50000   0.00000  Uiso   1.00
C63    C     0.67976   0.52939   0.50000   0.00000  Uiso   1.00
C64    C     0.62248   0.55309   0.50000   0.00000  Uiso   1.00
O65    O     0.83811   0.55309   0.50000   0.00000  Uiso   1.00
H66    H     0.94574   0.59348   0.50000   0.00000  Uiso   1.00
H67    H     0.72887   0.60962   0.50000   0.00000  Uiso   1.00
N68    N     0.39484   0.60516   0.50000   0.00000  Uiso   1.00
C69    C     0.50000   0.06042   0.50000   0.00000  Uiso   1.00
B70    B     0.50000   0.12750   0.50000   0.00000  Uiso   1.00
N71    N     0.50000   0.41343   0.50000   0.00000  Uiso   1.00
C72    C     0.50000   0.93958   0.50000   0.00000  Uiso   1.00
B73    B     0.50000   0.87250   0.50000   0.00000  Uiso   1.00
N74    N     0.50000   0.58657   0.50000   0.00000  Uiso   1.00
C75    C     0.93958   0.50000   0.50000   0.00000  Uiso   1.00
B76    B     0.87250   0.50000   0.50000   0.00000  Uiso   1.00
N77    N     0.58657   0.50000   0.50000   0.00000  Uiso   1.00
H78    H     0.45824   0.50000   0.50000   0.00000  Uiso   1.00
C79    C     0.06042   0.50000   0.50000   0.00000  Uiso   1.00
B80    B     0.12750   0.50000   0.50000   0.00000  Uiso   1.00
N81    N     0.41343   0.50000   0.50000   0.00000  Uiso   1.00
H82    H     0.54176   0.50000   0.50000   0.00000  Uiso   1.00
loop_
_geom_bond_atom_site_label_1
_geom_bond_atom_site_label_2
_geom_bond_distance
_geom_bond_site_symmetry_2
_ccdc_geom_bond_type
C1     H7      1.091   .     S
C1     C52     1.387   1_545 S
C1     C69     1.375   .     D
C2     C36     1.411   .     S
C2     C37     1.380   .     D
C2     O40     1.364   .     S
C3     C4      1.389   .     S
C3     H8      1.087   .     S
C3     C36     1.380   .     D
C4     C5      1.416   .     S
C4     C38     1.343   .     D
C5     N17     1.254   .     D
C5     N71     1.465   .     S
O6     C36     1.364   .     S
O6     B70     1.445   .     S
C9     H15     1.091   .     S
C9     C43     1.387   1_655 D
C9     C75     1.375   .     S
C10    C61     1.411   .     S
C10    C62     1.380   .     D
C10    O65     1.364   .     S
C11    C12     1.389   .     S
C11    H16     1.087   .     S
C11    C61     1.380   .     D
C12    C13     1.416   .     S
C12    C63     1.343   .     D
C13    N51     1.254   .     D
C13    N77     1.465   .     S
O14    C61     1.364   .     S
O14    B76     1.445   .     S
N17    C47     1.254   .     S
C18    H24     1.091   .     S
C18    C35     1.387   1_565 D
C18    C72     1.375   .     S
C19    C53     1.411   .     S
C19    C54     1.380   .     D
C19    O57     1.364   .     S
C20    C21     1.389   .     S
C20    H25     1.087   .     S
C20    C53     1.380   .     D
C21    C22     1.416   .     S
C21    C55     1.343   .     D
C22    N34     1.254   .     S
C22    N74     1.465   .     D
O23    C53     1.364   .     S
O23    B73     1.445   .     S
C26    H32     1.091   .     S
C26    C60     1.387   1_455 S
C26    C79     1.375   .     D
C27    C44     1.411   .     S
C27    C45     1.380   .     D
C27    O48     1.364   .     S
C28    C29     1.389   .     S
C28    H33     1.087   .     S
C28    C44     1.380   .     D
C29    C30     1.416   .     D
C29    C46     1.343   .     S
C30    N68     1.254   .     S
C30    N81     1.465   .     S
O31    C44     1.364   .     S
O31    B80     1.445   .     S
N34    C64     1.254   .     D
C35    C18     1.387   1_545 D
C35    H41     1.091   .     S
C35    C69     1.375   .     S
C37    C38     1.389   .     S
C37    H42     1.087   .     S
C38    C39     1.416   .     S
C39    N51     1.254   .     S
C39    N71     1.465   .     D
O40    B70     1.445   .     S
C43    C9      1.387   1_455 D
C43    H49     1.091   .     S
C43    C79     1.375   .     S
C45    C46     1.389   .     S
C45    H50     1.087   .     S
C46    C47     1.416   .     D
C47    N81     1.465   .     S
O48    B80     1.445   .     S
C52    C1      1.387   1_565 S
C52    H58     1.091   .     S
C52    C72     1.375   .     D
C54    C55     1.389   .     S
C54    H59     1.087   .     S
C55    C56     1.416   .     S
C56    N68     1.254   .     D
C56    N74     1.465   .     S
O57    B73     1.445   .     S
C60    C26     1.387   1_655 S
C60    H66     1.091   .     S
C60    C75     1.375   .     D
C62    C63     1.389   .     S
C62    H67     1.087   .     S
C63    C64     1.416   .     S
C64    N77     1.465   .     S
O65    B76     1.445   .     S
C69    B70     1.533   .     S
C72    B73     1.533   .     S
C75    B76     1.533   .     S
N77    H82     1.024   .     S
H78    N81     1.024   .     S
C79    B80     1.533   .     S
