data_348
_audit_creation_date              2023-09-08
_audit_creation_method            'Materials Studio'
_symmetry_space_group_name_H-M    'P1'
_symmetry_Int_Tables_number       1
_symmetry_cell_setting            triclinic
loop_
_symmetry_equiv_pos_as_xyz
  x,y,z
_cell_length_a                    19.6639
_cell_length_b                    19.6639
_cell_length_c                    4.3151
_cell_angle_alpha                 90.0000
_cell_angle_beta                  90.0000
_cell_angle_gamma                 120.0000
loop_
_atom_site_label
_atom_site_type_symbol
_atom_site_fract_x
_atom_site_fract_y
_atom_site_fract_z
_atom_site_U_iso_or_equiv
_atom_site_adp_type
_atom_site_occupancy
C1     C     0.25258   0.62629   0.50001   0.00000  Uiso   1.00
C2     C     0.37371   0.62629   0.50001   0.00000  Uiso   1.00
C3     C     0.37371   0.74743   0.50001   0.00000  Uiso   1.00
N4     N     0.29409   0.58817   0.50001   0.00000  Uiso   1.00
N5     N     0.41183   0.70591   0.50001   0.00000  Uiso   1.00
N6     N     0.29409   0.70591   0.50001   0.00000  Uiso   1.00
C7     C     0.16945   0.58473   0.50001   0.00000  Uiso   1.00
C8     C     0.41527   0.58473   0.50001   0.00000  Uiso   1.00
C9     C     0.41527   0.83055   0.50001   0.00000  Uiso   1.00
C10    C     0.12626   0.50352   0.57131   0.00000  Uiso   1.00
C11    C     0.49648   0.62274   0.57131   0.00000  Uiso   1.00
C12    C     0.37726   0.87374   0.57131   0.00000  Uiso   1.00
C13    C     0.49648   0.87374   0.42870   0.00000  Uiso   1.00
C14    C     0.37726   0.50352   0.42870   0.00000  Uiso   1.00
C15    C     0.12626   0.62274   0.42870   0.00000  Uiso   1.00
C16    C     0.04363   0.58146   0.42842   0.00000  Uiso   1.00
C17    C     0.41854   0.46218   0.42842   0.00000  Uiso   1.00
C18    C     0.53782   0.95637   0.42842   0.00000  Uiso   1.00
C19    C     0.41854   0.95637   0.57160   0.00000  Uiso   1.00
C20    C     0.53783   0.58146   0.57160   0.00000  Uiso   1.00
C21    C     0.04363   0.46218   0.57160   0.00000  Uiso   1.00
C22    C     0.55469   0.20725   0.33439   0.00000  Uiso   1.00
C23    C     0.51298   0.12461   0.33262   0.00000  Uiso   1.00
H24    H     0.53211   0.23530   0.21197   0.00000  Uiso   1.00
H25    H     0.46239   0.09585   0.20530   0.00000  Uiso   1.00
C26    C     0.79275   0.34744   0.33439   0.00000  Uiso   1.00
C27    C     0.87539   0.38837   0.33262   0.00000  Uiso   1.00
H28    H     0.76470   0.29681   0.21197   0.00000  Uiso   1.00
H29    H     0.90415   0.36655   0.20530   0.00000  Uiso   1.00
C30    C     0.65256   0.44531   0.33439   0.00000  Uiso   1.00
C31    C     0.61163   0.48702   0.33262   0.00000  Uiso   1.00
H32    H     0.70319   0.46789   0.21197   0.00000  Uiso   1.00
H33    H     0.63346   0.53761   0.20530   0.00000  Uiso   1.00
C34    C     0.79275   0.44531   0.66562   0.00000  Uiso   1.00
C35    C     0.87539   0.48702   0.66739   0.00000  Uiso   1.00
H36    H     0.76470   0.46789   0.78804   0.00000  Uiso   1.00
H37    H     0.90415   0.53761   0.79472   0.00000  Uiso   1.00
C38    C     0.65256   0.20725   0.66562   0.00000  Uiso   1.00
C39    C     0.61163   0.12461   0.66739   0.00000  Uiso   1.00
H40    H     0.70319   0.23530   0.78804   0.00000  Uiso   1.00
H41    H     0.63346   0.09585   0.79472   0.00000  Uiso   1.00
C42    C     0.55469   0.34744   0.66562   0.00000  Uiso   1.00
C43    C     0.51298   0.38837   0.66739   0.00000  Uiso   1.00
H44    H     0.53211   0.29681   0.78804   0.00000  Uiso   1.00
H45    H     0.46239   0.36655   0.79472   0.00000  Uiso   1.00
N46    N     0.66667   0.33333   0.50001   0.00000  Uiso   1.00
C47    C     0.62588   0.25175   0.50001   0.00000  Uiso   1.00
C48    C     0.54095   0.08190   0.50001   0.00000  Uiso   1.00
C49    C     0.74825   0.37413   0.50001   0.00000  Uiso   1.00
C50    C     0.91810   0.45905   0.50001   0.00000  Uiso   1.00
C51    C     0.62588   0.37413   0.50001   0.00000  Uiso   1.00
C52    C     0.54095   0.45905   0.50001   0.00000  Uiso   1.00
H53    H     0.15473   0.47352   0.62602   0.00000  Uiso   1.00
H54    H     0.52648   0.68121   0.62602   0.00000  Uiso   1.00
H55    H     0.31879   0.84527   0.62602   0.00000  Uiso   1.00
H56    H     0.52648   0.84527   0.37399   0.00000  Uiso   1.00
H57    H     0.31879   0.47352   0.37399   0.00000  Uiso   1.00
H58    H     0.15473   0.68121   0.37399   0.00000  Uiso   1.00
C59    C     0.00104   0.50052   0.50001   0.00000  Uiso   1.00
C60    C     0.49948   0.50052   0.50001   0.00000  Uiso   1.00
C61    C     0.49948   0.99896   0.50001   0.00000  Uiso   1.00
H62    H     0.01469   0.40375   0.62705   0.00000  Uiso   1.00
H63    H     0.01469   0.61095   0.37296   0.00000  Uiso   1.00
H64    H     0.59626   0.61095   0.62705   0.00000  Uiso   1.00
H65    H     0.38905   0.40375   0.37296   0.00000  Uiso   1.00
H66    H     0.38905   0.98531   0.62705   0.00000  Uiso   1.00
H67    H     0.59626   0.98531   0.37296   0.00000  Uiso   1.00
loop_
_geom_bond_atom_site_label_1
_geom_bond_atom_site_label_2
_geom_bond_distance
_geom_bond_site_symmetry_2
_ccdc_geom_bond_type
C1     N4      1.356   .     S
C1     N6      1.356   .     D
C1     C7      1.416   .     S
C2     N4      1.356   .     D
C2     N5      1.356   .     S
C2     C8      1.416   .     S
C3     N5      1.356   .     D
C3     N6      1.356   .     S
C3     C9      1.416   .     S
C7     C10     1.418   .     D
C7     C15     1.418   .     S
C8     C11     1.418   .     D
C8     C14     1.418   .     S
C9     C12     1.418   .     D
C9     C13     1.418   .     S
C10    C21     1.407   .     S
C10    H53     1.023   .     S
C11    C20     1.407   .     S
C11    H54     1.023   .     S
C12    C19     1.407   .     S
C12    H55     1.023   .     S
C13    C18     1.407   .     D
C13    H56     1.023   .     S
C14    C17     1.407   .     D
C14    H57     1.023   .     S
C15    C16     1.407   .     D
C15    H58     1.023   .     S
C16    C59     1.413   .     S
C16    H63     1.023   .     S
C17    C60     1.413   .     S
C17    H65     1.023   .     S
C18    C61     1.413   .     S
C18    H67     1.023   .     S
C19    C61     1.413   .     D
C19    H66     1.023   .     S
C20    C60     1.413   .     D
C20    H64     1.023   .     S
C21    C59     1.413   .     D
C21    H62     1.023   .     S
C22    C23     1.407   .     D
C22    H24     1.013   .     S
C22    C47     1.418   .     S
C23    H25     1.024   .     S
C23    C48     1.411   .     S
C26    C27     1.407   .     D
C26    H28     1.013   .     S
C26    C49     1.418   .     S
C27    H29     1.024   .     S
C27    C50     1.411   .     S
C30    C31     1.407   .     D
C30    H32     1.013   .     S
C30    C51     1.418   .     S
C31    H33     1.024   .     S
C31    C52     1.411   .     S
C34    C35     1.407   .     S
C34    H36     1.013   .     S
C34    C49     1.418   .     D
C35    H37     1.024   .     S
C35    C50     1.411   .     D
C38    C39     1.407   .     S
C38    H40     1.013   .     S
C38    C47     1.418   .     D
C39    H41     1.024   .     S
C39    C48     1.411   .     D
C42    C43     1.407   .     S
C42    H44     1.013   .     S
C42    C51     1.418   .     D
C43    H45     1.024   .     S
C43    C52     1.411   .     D
N46    C47     1.389   .     S
N46    C49     1.389   .     S
N46    C51     1.389   .     S
C48    C61     1.412   1_545 S
C50    C59     1.412   1_655 S
C52    C60     1.412   .     S
C59    C50     1.412   1_455 S
C61    C48     1.412   1_565 S
