data_349
_audit_creation_date              2023-09-08
_audit_creation_method            'Materials Studio'
_symmetry_space_group_name_H-M    'P1'
_symmetry_Int_Tables_number       1
_symmetry_cell_setting            triclinic
loop_
_symmetry_equiv_pos_as_xyz
  x,y,z
_cell_length_a                    26.9780
_cell_length_b                    47.3570
_cell_length_c                    4.2271
_cell_angle_alpha                 90.0000
_cell_angle_beta                  90.6110
_cell_angle_gamma                 90.0000
loop_
_atom_site_label
_atom_site_type_symbol
_atom_site_fract_x
_atom_site_fract_y
_atom_site_fract_z
_atom_site_U_iso_or_equiv
_atom_site_adp_type
_atom_site_occupancy
C1     C     0.54408   0.69001   0.51918   0.00000  Uiso   1.00
C2     C     0.04408   0.19001   0.51918   0.00000  Uiso   1.00
C3     C     0.45592   0.69001   0.48082   0.00000  Uiso   1.00
C4     C     0.95592   0.19001   0.48082   0.00000  Uiso   1.00
C5     C     0.50000   0.73355   0.50000   0.00000  Uiso   1.00
C6     C     0.00000   0.23355   0.50000   0.00000  Uiso   1.00
N7     N     0.54286   0.71864   0.51903   0.00000  Uiso   1.00
N8     N     0.04287   0.21864   0.51903   0.00000  Uiso   1.00
N9     N     0.45713   0.71864   0.48097   0.00000  Uiso   1.00
N10    N     0.95713   0.21864   0.48097   0.00000  Uiso   1.00
N11    N     0.50000   0.67635   0.50000   0.00000  Uiso   1.00
N12    N     0.00000   0.17635   0.50000   0.00000  Uiso   1.00
C13    C     0.58936   0.67493   0.53649   0.00000  Uiso   1.00
C14    C     0.08936   0.17493   0.53649   0.00000  Uiso   1.00
C15    C     0.41064   0.67493   0.46351   0.00000  Uiso   1.00
C16    C     0.91064   0.17493   0.46351   0.00000  Uiso   1.00
C17    C     0.50000   0.76343   0.50000   0.00000  Uiso   1.00
C18    C     0.00000   0.26343   0.50000   0.00000  Uiso   1.00
C19    C     0.63549   0.68869   0.49388   0.00000  Uiso   1.00
C20    C     0.13549   0.18869   0.49388   0.00000  Uiso   1.00
C21    C     0.36451   0.68869   0.50612   0.00000  Uiso   1.00
C22    C     0.86451   0.18869   0.50612   0.00000  Uiso   1.00
C23    C     0.45804   0.77897   0.39694   0.00000  Uiso   1.00
C24    C     0.95804   0.27897   0.39694   0.00000  Uiso   1.00
C25    C     0.54196   0.77897   0.60305   0.00000  Uiso   1.00
C26    C     0.04196   0.27897   0.60306   0.00000  Uiso   1.00
C27    C     0.40973   0.64544   0.40582   0.00000  Uiso   1.00
C28    C     0.90973   0.14544   0.40582   0.00000  Uiso   1.00
C29    C     0.59027   0.64544   0.59418   0.00000  Uiso   1.00
C30    C     0.09027   0.14544   0.59418   0.00000  Uiso   1.00
C31    C     0.63511   0.63030   0.60327   0.00000  Uiso   1.00
C32    C     0.13511   0.13030   0.60327   0.00000  Uiso   1.00
C33    C     0.36489   0.63030   0.39673   0.00000  Uiso   1.00
C34    C     0.86489   0.13030   0.39673   0.00000  Uiso   1.00
C35    C     0.54213   0.80870   0.59736   0.00000  Uiso   1.00
C36    C     0.04213   0.30870   0.59736   0.00000  Uiso   1.00
C37    C     0.45787   0.80870   0.40264   0.00000  Uiso   1.00
C38    C     0.95787   0.30870   0.40264   0.00000  Uiso   1.00
C39    C     0.31960   0.67362   0.49377   0.00000  Uiso   1.00
C40    C     0.81960   0.17362   0.49377   0.00000  Uiso   1.00
C41    C     0.68040   0.67362   0.50623   0.00000  Uiso   1.00
C42    C     0.18040   0.17362   0.50623   0.00000  Uiso   1.00
C43    C     0.95576   0.55392   0.51424   0.00000  Uiso   1.00
C44    C     0.45576   0.05392   0.51424   0.00000  Uiso   1.00
C45    C     0.04424   0.55392   0.48575   0.00000  Uiso   1.00
C46    C     0.54424   0.05392   0.48575   0.00000  Uiso   1.00
C47    C     0.91557   0.54489   0.70304   0.00000  Uiso   1.00
C48    C     0.41557   0.04489   0.70304   0.00000  Uiso   1.00
C49    C     0.08443   0.54489   0.29696   0.00000  Uiso   1.00
C50    C     0.58443   0.04489   0.29696   0.00000  Uiso   1.00
C51    C     0.87009   0.55945   0.71276   0.00000  Uiso   1.00
C52    C     0.37009   0.05945   0.71276   0.00000  Uiso   1.00
C53    C     0.12991   0.55945   0.28724   0.00000  Uiso   1.00
C54    C     0.62991   0.05945   0.28724   0.00000  Uiso   1.00
C55    C     0.86365   0.58472   0.54066   0.00000  Uiso   1.00
C56    C     0.36365   0.08472   0.54066   0.00000  Uiso   1.00
C57    C     0.13635   0.58472   0.45934   0.00000  Uiso   1.00
C58    C     0.63635   0.08472   0.45934   0.00000  Uiso   1.00
C59    C     0.90342   0.59485   0.35992   0.00000  Uiso   1.00
C60    C     0.40342   0.09485   0.35992   0.00000  Uiso   1.00
C61    C     0.09658   0.59485   0.64008   0.00000  Uiso   1.00
C62    C     0.59658   0.09485   0.64008   0.00000  Uiso   1.00
C63    C     0.94792   0.57946   0.34436   0.00000  Uiso   1.00
C64    C     0.44792   0.07946   0.34436   0.00000  Uiso   1.00
C65    C     0.05208   0.57946   0.65564   0.00000  Uiso   1.00
C66    C     0.55208   0.07946   0.65564   0.00000  Uiso   1.00
H67    H     0.91934   0.52724   0.83707   0.00000  Uiso   1.00
H68    H     0.41934   0.02724   0.83707   0.00000  Uiso   1.00
H69    H     0.08066   0.52724   0.16293   0.00000  Uiso   1.00
H70    H     0.58066   0.02724   0.16293   0.00000  Uiso   1.00
H71    H     0.84209   0.55168   0.84914   0.00000  Uiso   1.00
H72    H     0.34209   0.05168   0.84914   0.00000  Uiso   1.00
H73    H     0.15791   0.55168   0.15086   0.00000  Uiso   1.00
H74    H     0.65791   0.05168   0.15086   0.00000  Uiso   1.00
H75    H     0.90018   0.61333   0.23580   0.00000  Uiso   1.00
H76    H     0.40018   0.11333   0.23580   0.00000  Uiso   1.00
H77    H     0.09982   0.61333   0.76420   0.00000  Uiso   1.00
H78    H     0.59982   0.11333   0.76420   0.00000  Uiso   1.00
H79    H     0.97518   0.58732   0.20648   0.00000  Uiso   1.00
H80    H     0.47518   0.08732   0.20648   0.00000  Uiso   1.00
H81    H     0.02482   0.58732   0.79352   0.00000  Uiso   1.00
H82    H     0.52482   0.08732   0.79352   0.00000  Uiso   1.00
C83    C     0.95984   0.49317   0.38037   0.00000  Uiso   1.00
C84    C     0.45984   0.99317   0.38037   0.00000  Uiso   1.00
C85    C     0.04016   0.49317   0.61963   0.00000  Uiso   1.00
C86    C     0.54016   0.99317   0.61963   0.00000  Uiso   1.00
C87    C     0.95917   0.46344   0.38726   0.00000  Uiso   1.00
C88    C     0.45917   0.96344   0.38726   0.00000  Uiso   1.00
C89    C     0.04083   0.46344   0.61274   0.00000  Uiso   1.00
C90    C     0.54083   0.96344   0.61274   0.00000  Uiso   1.00
H91    H     0.92950   0.50296   0.28767   0.00000  Uiso   1.00
H92    H     0.42950   0.00296   0.28767   0.00000  Uiso   1.00
H93    H     0.07050   0.50296   0.71233   0.00000  Uiso   1.00
H94    H     0.57050   0.00296   0.71233   0.00000  Uiso   1.00
H95    H     0.92750   0.45399   0.30796   0.00000  Uiso   1.00
H96    H     0.42750   0.95399   0.30796   0.00000  Uiso   1.00
H97    H     0.07250   0.45399   0.69203   0.00000  Uiso   1.00
H98    H     0.57250   0.95399   0.69203   0.00000  Uiso   1.00
C99    C     0.81835   0.59939   0.54742   0.00000  Uiso   1.00
C100   C     0.31835   0.09939   0.54742   0.00000  Uiso   1.00
C101   C     0.18165   0.59939   0.45258   0.00000  Uiso   1.00
C102   C     0.68165   0.09939   0.45258   0.00000  Uiso   1.00
C103   C     0.77697   0.58932   0.37539   0.00000  Uiso   1.00
C104   C     0.27697   0.08932   0.37539   0.00000  Uiso   1.00
C105   C     0.22303   0.58932   0.62461   0.00000  Uiso   1.00
C106   C     0.72303   0.08932   0.62461   0.00000  Uiso   1.00
C107   C     0.73159   0.60400   0.37963   0.00000  Uiso   1.00
C108   C     0.23159   0.10400   0.37963   0.00000  Uiso   1.00
C109   C     0.26841   0.60400   0.62037   0.00000  Uiso   1.00
C110   C     0.76841   0.10400   0.62037   0.00000  Uiso   1.00
C111   C     0.72616   0.62899   0.55911   0.00000  Uiso   1.00
C112   C     0.22616   0.12899   0.55911   0.00000  Uiso   1.00
C113   C     0.27384   0.62899   0.44089   0.00000  Uiso   1.00
C114   C     0.77384   0.12899   0.44089   0.00000  Uiso   1.00
C115   C     0.76738   0.63842   0.73940   0.00000  Uiso   1.00
C116   C     0.26738   0.13842   0.73940   0.00000  Uiso   1.00
C117   C     0.23262   0.63842   0.26060   0.00000  Uiso   1.00
C118   C     0.73262   0.13842   0.26060   0.00000  Uiso   1.00
C119   C     0.81302   0.62412   0.73009   0.00000  Uiso   1.00
C120   C     0.31302   0.12412   0.73009   0.00000  Uiso   1.00
C121   C     0.18698   0.62412   0.26990   0.00000  Uiso   1.00
C122   C     0.68698   0.12412   0.26990   0.00000  Uiso   1.00
H123   H     0.77976   0.57136   0.24347   0.00000  Uiso   1.00
H124   H     0.27976   0.07136   0.24347   0.00000  Uiso   1.00
H125   H     0.22024   0.57136   0.75653   0.00000  Uiso   1.00
H126   H     0.72024   0.07136   0.75653   0.00000  Uiso   1.00
H127   H     0.70244   0.59629   0.25140   0.00000  Uiso   1.00
H128   H     0.20244   0.09629   0.25140   0.00000  Uiso   1.00
H129   H     0.29756   0.59629   0.74860   0.00000  Uiso   1.00
H130   H     0.79756   0.09629   0.74860   0.00000  Uiso   1.00
H131   H     0.76418   0.65547   0.88720   0.00000  Uiso   1.00
H132   H     0.26418   0.15547   0.88720   0.00000  Uiso   1.00
H133   H     0.23582   0.65547   0.11280   0.00000  Uiso   1.00
H134   H     0.73581   0.15547   0.11280   0.00000  Uiso   1.00
H135   H     0.84193   0.63167   0.86300   0.00000  Uiso   1.00
H136   H     0.34193   0.13167   0.86300   0.00000  Uiso   1.00
H137   H     0.15807   0.63167   0.13700   0.00000  Uiso   1.00
H138   H     0.65807   0.13167   0.13700   0.00000  Uiso   1.00
C139   C     0.03429   0.40082   0.68165   0.00000  Uiso   1.00
C140   C     0.53429   0.90082   0.68165   0.00000  Uiso   1.00
C141   C     0.96571   0.40082   0.31834   0.00000  Uiso   1.00
C142   C     0.46571   0.90082   0.31834   0.00000  Uiso   1.00
C143   C     0.03417   0.37110   0.68353   0.00000  Uiso   1.00
C144   C     0.53417   0.87110   0.68353   0.00000  Uiso   1.00
C145   C     0.96583   0.37110   0.31647   0.00000  Uiso   1.00
C146   C     0.46583   0.87110   0.31647   0.00000  Uiso   1.00
H147   H     0.06005   0.41024   0.82455   0.00000  Uiso   1.00
H148   H     0.56005   0.91024   0.82455   0.00000  Uiso   1.00
H149   H     0.93995   0.41024   0.17545   0.00000  Uiso   1.00
H150   H     0.43995   0.91024   0.17545   0.00000  Uiso   1.00
H151   H     0.05938   0.36160   0.83124   0.00000  Uiso   1.00
H152   H     0.55938   0.86160   0.83124   0.00000  Uiso   1.00
H153   H     0.94062   0.36160   0.16876   0.00000  Uiso   1.00
H154   H     0.44062   0.86160   0.16876   0.00000  Uiso   1.00
N155   N     0.00000   0.53893   0.50000   0.00000  Uiso   1.00
N156   N     0.50000   0.03893   0.50000   0.00000  Uiso   1.00
C157   C     0.00000   0.50945   0.50000   0.00000  Uiso   1.00
C158   C     0.50000   0.00945   0.50000   0.00000  Uiso   1.00
C159   C     0.00000   0.44727   0.50000   0.00000  Uiso   1.00
C160   C     0.50000   0.94727   0.50000   0.00000  Uiso   1.00
C161   C     0.00000   0.41697   0.50000   0.00000  Uiso   1.00
C162   C     0.50000   0.91697   0.50000   0.00000  Uiso   1.00
C163   C     0.00000   0.35502   0.50000   0.00000  Uiso   1.00
C164   C     0.50000   0.85502   0.50000   0.00000  Uiso   1.00
H165   H     0.63685   0.70993   0.44918   0.00000  Uiso   1.00
H166   H     0.13685   0.20993   0.44918   0.00000  Uiso   1.00
H167   H     0.36315   0.70993   0.55082   0.00000  Uiso   1.00
H168   H     0.86315   0.20993   0.55082   0.00000  Uiso   1.00
H169   H     0.42696   0.76873   0.31558   0.00000  Uiso   1.00
H170   H     0.92696   0.26873   0.31558   0.00000  Uiso   1.00
H171   H     0.57304   0.76873   0.68442   0.00000  Uiso   1.00
H172   H     0.07304   0.26873   0.68442   0.00000  Uiso   1.00
H173   H     0.44202   0.63459   0.36978   0.00000  Uiso   1.00
H174   H     0.94202   0.13459   0.36978   0.00000  Uiso   1.00
H175   H     0.55798   0.63459   0.63022   0.00000  Uiso   1.00
H176   H     0.05798   0.13459   0.63022   0.00000  Uiso   1.00
C177   C     0.68095   0.64413   0.55853   0.00000  Uiso   1.00
C178   C     0.18095   0.14413   0.55853   0.00000  Uiso   1.00
C179   C     0.31906   0.64413   0.44147   0.00000  Uiso   1.00
C180   C     0.81906   0.14413   0.44147   0.00000  Uiso   1.00
C181   C     0.50000   0.82474   0.50000   0.00000  Uiso   1.00
C182   C     0.00000   0.32474   0.50000   0.00000  Uiso   1.00
H183   H     0.71290   0.68435   0.47218   0.00000  Uiso   1.00
H184   H     0.63408   0.60898   0.64405   0.00000  Uiso   1.00
H185   H     0.21290   0.18435   0.47218   0.00000  Uiso   1.00
H186   H     0.13408   0.10898   0.64405   0.00000  Uiso   1.00
H187   H     0.28710   0.68435   0.52782   0.00000  Uiso   1.00
H188   H     0.36592   0.60898   0.35595   0.00000  Uiso   1.00
H189   H     0.78710   0.18435   0.52782   0.00000  Uiso   1.00
H190   H     0.86592   0.10898   0.35595   0.00000  Uiso   1.00
H191   H     0.42559   0.81830   0.33417   0.00000  Uiso   1.00
H192   H     0.92559   0.31830   0.33417   0.00000  Uiso   1.00
H193   H     0.57441   0.81830   0.66583   0.00000  Uiso   1.00
H194   H     0.07441   0.31830   0.66583   0.00000  Uiso   1.00
loop_
_geom_bond_atom_site_label_1
_geom_bond_atom_site_label_2
_geom_bond_distance
_geom_bond_site_symmetry_2
_ccdc_geom_bond_type
C1     N7      1.356   .     S
C1     N11     1.355   .     D
C1     C13     1.416   .     S
C2     N8      1.356   .     S
C2     N12     1.355   .     D
C2     C14     1.416   .     S
C3     N9      1.356   .     D
C3     N11     1.355   .     S
C3     C15     1.416   .     S
C4     N10     1.356   .     D
C4     N12     1.355   1_655 S
C4     C16     1.416   .     S
C5     N7      1.357   .     D
C5     N9      1.357   .     S
C5     C17     1.415   .     S
C6     N8      1.357   .     D
C6     N10     1.357   1_455 S
C6     C18     1.415   .     S
N10    C6      1.357   1_655 S
N12    C4      1.355   1_455 S
C13    C19     1.418   .     D
C13    C29     1.418   .     S
C14    C20     1.418   .     D
C14    C30     1.418   .     S
C15    C21     1.418   .     D
C15    C27     1.418   .     S
C16    C22     1.418   .     D
C16    C28     1.418   .     S
C17    C23     1.415   .     S
C17    C25     1.415   .     D
C18    C24     1.415   1_455 S
C18    C26     1.415   .     D
C19    C41     1.407   .     S
C19    H165    1.024   .     S
C20    C42     1.407   .     S
C20    H166    1.024   .     S
C21    C39     1.407   .     S
C21    H167    1.024   .     S
C22    C40     1.407   .     S
C22    H168    1.024   .     S
C23    C37     1.408   .     D
C23    H169    1.025   .     S
C24    C18     1.415   1_655 S
C24    C38     1.408   .     D
C24    H170    1.025   .     S
C25    C35     1.408   .     S
C25    H171    1.025   .     S
C26    C36     1.408   .     S
C26    H172    1.025   .     S
C27    C33     1.406   .     D
C27    H173    1.024   .     S
C28    C34     1.406   .     D
C28    H174    1.024   .     S
C29    C31     1.406   .     D
C29    H175    1.024   .     S
C30    C32     1.406   .     D
C30    H176    1.024   .     S
C31    C177    1.414   .     S
C31    H184    1.025   .     S
C32    C178    1.414   .     S
C32    H186    1.025   .     S
C33    C179    1.414   .     S
C33    H188    1.025   .     S
C34    C180    1.414   .     S
C34    H190    1.025   .     S
C35    C181    1.424   .     D
C35    H193    1.022   .     S
C36    C182    1.424   .     D
C36    H194    1.022   .     S
C37    C181    1.424   .     S
C37    H191    1.022   .     S
C38    C182    1.424   1_655 S
C38    H192    1.022   .     S
C39    C179    1.414   .     D
C39    H187    1.025   .     S
C40    C180    1.414   .     D
C40    H189    1.025   .     S
C41    C177    1.414   .     D
C41    H183    1.025   .     S
C42    C178    1.414   .     D
C42    H185    1.025   .     S
C43    C47     1.419   .     D
C43    C63     1.421   .     S
C43    N155    1.391   1_655 S
C44    C48     1.419   .     D
C44    C64     1.421   .     S
C44    N156    1.391   .     S
C45    C49     1.419   .     D
C45    C65     1.421   .     S
C45    N155    1.391   .     S
C46    C50     1.419   .     D
C46    C66     1.421   .     S
C46    N156    1.391   .     S
C47    C51     1.408   .     S
C47    H67     1.014   .     S
C48    C52     1.408   .     S
C48    H68     1.014   .     S
C49    C53     1.408   .     S
C49    H69     1.014   .     S
C50    C54     1.408   .     S
C50    H70     1.014   .     S
C51    C55     1.410   .     D
C51    H71     1.024   .     S
C52    C56     1.410   .     D
C52    H72     1.024   .     S
C53    C57     1.410   .     D
C53    H73     1.024   .     S
C54    C58     1.410   .     D
C54    H74     1.024   .     S
C55    C59     1.408   .     S
C55    C99     1.406   .     S
C56    C60     1.408   .     S
C56    C100    1.406   .     S
C57    C61     1.408   .     S
C57    C101    1.406   .     S
C58    C62     1.408   .     S
C58    C102    1.406   .     S
C59    C63     1.407   .     D
C59    H75     1.023   .     S
C60    C64     1.407   .     D
C60    H76     1.023   .     S
C61    C65     1.407   .     D
C61    H77     1.023   .     S
C62    C66     1.407   .     D
C62    H78     1.023   .     S
C63    H79     1.014   .     S
C64    H80     1.014   .     S
C65    H81     1.014   .     S
C66    H82     1.014   .     S
C83    C87     1.408   .     D
C83    H91     1.016   .     S
C83    C157    1.418   1_655 S
C84    C88     1.408   .     D
C84    H92     1.016   1_565 S
C84    C158    1.418   1_565 S
C85    C89     1.408   .     S
C85    H93     1.016   .     S
C85    C157    1.418   .     D
C86    C90     1.408   .     S
C86    H94     1.016   1_565 S
C86    C158    1.418   1_565 D
C87    H95     1.018   .     S
C87    C159    1.420   1_655 S
C88    H96     1.018   .     S
C88    C160    1.420   .     S
C89    H97     1.018   .     S
C89    C159    1.420   .     D
C90    H98     1.018   .     S
C90    C160    1.420   .     D
H92    C84     1.016   1_545 S
H94    C86     1.016   1_545 S
C99    C103    1.409   .     D
C99    C119    1.411   .     S
C100   C104    1.409   .     D
C100   C120    1.411   .     S
C101   C105    1.409   .     D
C101   C121    1.411   .     S
C102   C106    1.409   .     D
C102   C122    1.411   .     S
C103   C107    1.408   .     S
C103   H123    1.020   .     S
C104   C108    1.408   .     S
C104   H124    1.020   .     S
C105   C109    1.408   .     S
C105   H125    1.020   .     S
C106   C110    1.408   .     S
C106   H126    1.020   .     S
C107   C111    1.414   .     D
C107   H127    1.018   .     S
C108   C112    1.414   .     D
C108   H128    1.018   .     S
C109   C113    1.414   .     D
C109   H129    1.018   .     S
C110   C114    1.414   .     D
C110   H130    1.018   .     S
C111   C115    1.414   .     S
C111   C177    1.415   .     S
C112   C116    1.414   .     S
C112   C178    1.415   .     S
C113   C117    1.414   .     S
C113   C179    1.415   .     S
C114   C118    1.414   .     S
C114   C180    1.415   .     S
C115   C119    1.406   .     D
C115   H131    1.025   .     S
C116   C120    1.406   .     D
C116   H132    1.025   .     S
C117   C121    1.406   .     D
C117   H133    1.025   .     S
C118   C122    1.406   .     D
C118   H134    1.025   .     S
C119   H135    1.021   .     S
C120   H136    1.021   .     S
C121   H137    1.021   .     S
C122   H138    1.021   .     S
C139   C143    1.408   .     S
C139   H147    1.019   .     S
C139   C161    1.420   .     D
C140   C144    1.408   .     S
C140   H148    1.019   .     S
C140   C162    1.420   .     D
C141   C145    1.408   .     D
C141   H149    1.019   .     S
C141   C161    1.420   1_655 S
C142   C146    1.408   .     D
C142   H150    1.019   .     S
C142   C162    1.420   .     S
C143   H151    1.022   .     S
C143   C163    1.420   .     D
C144   H152    1.022   .     S
C144   C164    1.420   .     D
C145   H153    1.022   .     S
C145   C163    1.420   1_655 S
C146   H154    1.022   .     S
C146   C164    1.420   .     S
N155   C43     1.391   1_455 S
N155   C157    1.396   .     S
N156   C158    1.396   .     S
C157   C83     1.418   1_455 S
C158   C86     1.418   1_545 D
C158   C84     1.418   1_545 S
C159   C87     1.420   1_455 S
C159   C161    1.435   .     S
C160   C162    1.435   .     S
C161   C141    1.420   1_455 S
C163   C145    1.420   1_455 S
C163   C182    1.434   .     S
C164   C181    1.434   .     S
C182   C38     1.424   1_455 S
