data_35
_audit_creation_date              2023-09-08
_audit_creation_method            'Materials Studio'
_symmetry_space_group_name_H-M    'P1'
_symmetry_Int_Tables_number       1
_symmetry_cell_setting            triclinic
loop_
_symmetry_equiv_pos_as_xyz
  x,y,z
_cell_length_a                    15.8700
_cell_length_b                    15.8700
_cell_length_c                    3.3000
_cell_angle_alpha                 90.0000
_cell_angle_beta                  90.0000
_cell_angle_gamma                 120.0000
loop_
_atom_site_label
_atom_site_type_symbol
_atom_site_fract_x
_atom_site_fract_y
_atom_site_fract_z
_atom_site_U_iso_or_equiv
_atom_site_adp_type
_atom_site_occupancy
N1     N     0.04674   0.53568   0.50000   0.00000  Uiso   1.00
N2     N     0.46432   0.51106   0.50000   0.00000  Uiso   1.00
N3     N     0.48894   0.95326   0.50000   0.00000  Uiso   1.00
N4     N     0.95326   0.46432   0.50000   0.00000  Uiso   1.00
N5     N     0.53568   0.48894   0.50000   0.00000  Uiso   1.00
N6     N     0.51106   0.04674   0.50000   0.00000  Uiso   1.00
C7     C     0.12652   0.52282   0.50000   0.00000  Uiso   1.00
C8     C     0.47718   0.60370   0.50000   0.00000  Uiso   1.00
C9     C     0.39630   0.87348   0.50000   0.00000  Uiso   1.00
C10    C     0.87348   0.47718   0.50000   0.00000  Uiso   1.00
C11    C     0.52282   0.39630   0.50000   0.00000  Uiso   1.00
C12    C     0.60370   0.12652   0.50000   0.00000  Uiso   1.00
H13    H     0.10974   0.45140   0.50000   0.00000  Uiso   1.00
H14    H     0.54860   0.65834   0.50000   0.00000  Uiso   1.00
H15    H     0.34166   0.89026   0.50000   0.00000  Uiso   1.00
H16    H     0.89026   0.54860   0.50000   0.00000  Uiso   1.00
H17    H     0.45140   0.34166   0.50000   0.00000  Uiso   1.00
H18    H     0.65834   0.10974   0.50000   0.00000  Uiso   1.00
C19    C     0.30187   0.56721   0.50000   0.00000  Uiso   1.00
C20    C     0.43279   0.73467   0.50000   0.00000  Uiso   1.00
C21    C     0.26533   0.69813   0.50000   0.00000  Uiso   1.00
C22    C     0.69813   0.43279   0.50000   0.00000  Uiso   1.00
C23    C     0.56721   0.26533   0.50000   0.00000  Uiso   1.00
C24    C     0.73467   0.30187   0.50000   0.00000  Uiso   1.00
C25    C     0.22903   0.59561   0.50000   0.00000  Uiso   1.00
C26    C     0.40439   0.63342   0.50000   0.00000  Uiso   1.00
C27    C     0.36658   0.77097   0.50000   0.00000  Uiso   1.00
C28    C     0.77097   0.40439   0.50000   0.00000  Uiso   1.00
C29    C     0.59560   0.36658   0.50000   0.00000  Uiso   1.00
C30    C     0.63342   0.22903   0.50000   0.00000  Uiso   1.00
O31    O     0.27412   0.47812   0.50000   0.00000  Uiso   1.00
O32    O     0.52188   0.79600   0.50000   0.00000  Uiso   1.00
O33    O     0.20400   0.72588   0.50000   0.00000  Uiso   1.00
O34    O     0.72588   0.52188   0.50000   0.00000  Uiso   1.00
O35    O     0.47812   0.20400   0.50000   0.00000  Uiso   1.00
O36    O     0.79600   0.27412   0.50000   0.00000  Uiso   1.00
H37    H     0.06303   0.60411   0.50000   0.00000  Uiso   1.00
H38    H     0.39588   0.45891   0.50000   0.00000  Uiso   1.00
H39    H     0.54109   0.93698   0.50000   0.00000  Uiso   1.00
H40    H     0.93697   0.39589   0.50000   0.00000  Uiso   1.00
H41    H     0.60412   0.54109   0.50000   0.00000  Uiso   1.00
H42    H     0.45891   0.06302   0.50000   0.00000  Uiso   1.00
loop_
_geom_bond_atom_site_label_1
_geom_bond_atom_site_label_2
_geom_bond_distance
_geom_bond_site_symmetry_2
_ccdc_geom_bond_type
N1     N4      1.343   1_455 S
N1     C7      1.380   .     S
N1     H37     0.983   .     S
N2     N5      1.343   .     S
N2     C8      1.380   .     S
N2     H38     0.983   .     S
N3     N6      1.343   1_565 S
N3     C9      1.380   .     S
N3     H39     0.983   .     S
N4     N1      1.343   1_655 S
N4     C10     1.380   .     S
N4     H40     0.983   .     S
N5     C11     1.380   .     S
N5     H41     0.983   .     S
N6     N3      1.343   1_545 S
N6     C12     1.380   .     S
N6     H42     0.983   .     S
C7     H13     1.027   .     S
C7     C25     1.450   .     D
C8     H14     1.027   .     S
C8     C26     1.450   .     D
C9     H15     1.027   .     S
C9     C27     1.450   .     D
C10    H16     1.027   .     S
C10    C28     1.450   .     D
C11    H17     1.027   .     S
C11    C29     1.450   .     D
C12    H18     1.027   .     S
C12    C30     1.450   .     D
C19    C25     1.435   .     S
C19    C26     1.429   .     S
C19    O31     1.253   .     D
C20    C26     1.435   .     S
C20    C27     1.429   .     S
C20    O32     1.253   .     D
C21    C25     1.429   .     S
C21    C27     1.435   .     S
C21    O33     1.253   .     D
C22    C28     1.435   .     S
C22    C29     1.429   .     S
C22    O34     1.253   .     D
C23    C29     1.435   .     S
C23    C30     1.429   .     S
C23    O35     1.253   .     D
C24    C28     1.429   .     S
C24    C30     1.435   .     S
C24    O36     1.253   .     D
