data_350
_audit_creation_date              2023-09-08
_audit_creation_method            'Materials Studio'
_symmetry_space_group_name_H-M    'P1'
_symmetry_Int_Tables_number       1
_symmetry_cell_setting            triclinic
loop_
_symmetry_equiv_pos_as_xyz
  x,y,z
_cell_length_a                    34.8026
_cell_length_b                    34.8036
_cell_length_c                    4.0692
_cell_angle_alpha                 85.0170
_cell_angle_beta                  85.1598
_cell_angle_gamma                 121.4715
loop_
_atom_site_label
_atom_site_type_symbol
_atom_site_fract_x
_atom_site_fract_y
_atom_site_fract_z
_atom_site_U_iso_or_equiv
_atom_site_adp_type
_atom_site_occupancy
C1     C     0.71106   0.35678   0.57143   0.00000  Uiso   1.00
C2     C     0.64170   0.35835   0.49928   0.00000  Uiso   1.00
C3     C     0.64322   0.28899   0.42666   0.00000  Uiso   1.00
C4     C     0.68836   0.31166   0.49899   0.00000  Uiso   1.00
C5     C     0.68608   0.37833   0.58612   0.00000  Uiso   1.00
C6     C     0.62169   0.31400   0.41223   0.00000  Uiso   1.00
H7     H     0.70518   0.29484   0.49894   0.00000  Uiso   1.00
H8     H     0.70075   0.40947   0.66387   0.00000  Uiso   1.00
H9     H     0.59052   0.29936   0.33455   0.00000  Uiso   1.00
C10    C     0.75743   0.37992   0.62056   0.00000  Uiso   1.00
C11    C     0.61825   0.38179   0.49956   0.00000  Uiso   1.00
C12    C     0.62005   0.24263   0.37751   0.00000  Uiso   1.00
C13    C     0.28756   0.64029   0.54933   0.00000  Uiso   1.00
C14    C     0.35815   0.64186   0.50096   0.00000  Uiso   1.00
C15    C     0.35968   0.71245   0.45156   0.00000  Uiso   1.00
C16    C     0.77562   0.35756   0.79569   0.00000  Uiso   1.00
C17    C     0.34409   0.73827   0.28592   0.00000  Uiso   1.00
C18    C     0.64172   0.42977   0.41114   0.00000  Uiso   1.00
C19    C     0.26083   0.59779   0.43614   0.00000  Uiso   1.00
C20    C     0.57346   0.21223   0.51278   0.00000  Uiso   1.00
C21    C     0.40082   0.65917   0.29869   0.00000  Uiso   1.00
C22    C     0.64237   0.22444   0.20280   0.00000  Uiso   1.00
C23    C     0.26174   0.65585   0.71445   0.00000  Uiso   1.00
C24    C     0.57030   0.35831   0.58834   0.00000  Uiso   1.00
C25    C     0.40220   0.73920   0.56487   0.00000  Uiso   1.00
C26    C     0.78783   0.42652   0.48492   0.00000  Uiso   1.00
C27    C     0.34087   0.59917   0.70357   0.00000  Uiso   1.00
C28    C     0.82220   0.38035   0.82638   0.00000  Uiso   1.00
C29    C     0.36755   0.78614   0.24732   0.00000  Uiso   1.00
C30    C     0.61864   0.45301   0.41899   0.00000  Uiso   1.00
C31    C     0.21290   0.57327   0.47653   0.00000  Uiso   1.00
C32    C     0.55046   0.16581   0.47919   0.00000  Uiso   1.00
C33    C     0.42439   0.63639   0.29750   0.00000  Uiso   1.00
C34    C     0.61956   0.17786   0.17227   0.00000  Uiso   1.00
C35    C     0.21387   0.63237   0.75268   0.00000  Uiso   1.00
C36    C     0.54705   0.38139   0.58121   0.00000  Uiso   1.00
C37    C     0.42669   0.78713   0.52417   0.00000  Uiso   1.00
C38    C     0.83425   0.44948   0.51863   0.00000  Uiso   1.00
C39    C     0.36364   0.57560   0.70520   0.00000  Uiso   1.00
C40    C     0.85248   0.42657   0.68391   0.00000  Uiso   1.00
C41    C     0.57053   0.42952   0.50030   0.00000  Uiso   1.00
C42    C     0.57335   0.14758   0.31445   0.00000  Uiso   1.00
C43    C     0.18866   0.59062   0.63227   0.00000  Uiso   1.00
C44    C     0.40603   0.59398   0.50145   0.00000  Uiso   1.00
C45    C     0.40931   0.81137   0.36789   0.00000  Uiso   1.00
H46    H     0.75507   0.32423   0.90391   0.00000  Uiso   1.00
H47    H     0.31445   0.72219   0.19264   0.00000  Uiso   1.00
H48    H     0.67624   0.44869   0.33822   0.00000  Uiso   1.00
H49    H     0.27619   0.58364   0.32115   0.00000  Uiso   1.00
H50    H     0.55575   0.22338   0.64424   0.00000  Uiso   1.00
H51    H     0.41589   0.68950   0.14806   0.00000  Uiso   1.00
H52    H     0.67569   0.24498   0.09479   0.00000  Uiso   1.00
H53    H     0.27782   0.68549   0.80762   0.00000  Uiso   1.00
H54    H     0.55140   0.32377   0.66101   0.00000  Uiso   1.00
H55    H     0.41637   0.72384   0.68015   0.00000  Uiso   1.00
H56    H     0.77667   0.44424   0.35315   0.00000  Uiso   1.00
H57    H     0.31056   0.58409   0.85410   0.00000  Uiso   1.00
H58    H     0.83385   0.36287   0.95515   0.00000  Uiso   1.00
H59    H     0.35397   0.80243   0.12902   0.00000  Uiso   1.00
H60    H     0.63795   0.48777   0.36459   0.00000  Uiso   1.00
H61    H     0.19592   0.54298   0.38623   0.00000  Uiso   1.00
H62    H     0.51691   0.14522   0.58258   0.00000  Uiso   1.00
H63    H     0.45492   0.65090   0.14369   0.00000  Uiso   1.00
H64    H     0.63702   0.16621   0.04383   0.00000  Uiso   1.00
H65    H     0.19758   0.64593   0.87061   0.00000  Uiso   1.00
H66    H     0.51231   0.36207   0.63586   0.00000  Uiso   1.00
H67    H     0.45698   0.80413   0.61461   0.00000  Uiso   1.00
H68    H     0.85485   0.48305   0.41498   0.00000  Uiso   1.00
H69    H     0.34915   0.54506   0.85917   0.00000  Uiso   1.00
C70    C     0.42929   0.57071   0.50156   0.00000  Uiso   1.00
C71    C     0.47635   0.52366   0.50142   0.00000  Uiso   1.00
C72    C     0.54705   0.45300   0.50065   0.00000  Uiso   1.00
C73    C     0.49961   0.50041   0.50121   0.00000  Uiso   1.00
C74    C     0.43269   0.85930   0.33887   0.00000  Uiso   1.00
C75    C     0.48044   0.95622   0.30179   0.00000  Uiso   1.00
C76    C     0.55080   0.10035   0.29948   0.00000  Uiso   1.00
C77    C     0.50415   0.00405   0.29293   0.00000  Uiso   1.00
C78    C     0.14074   0.56722   0.66093   0.00000  Uiso   1.00
C79    C     0.04383   0.51945   0.69746   0.00000  Uiso   1.00
C80    C     0.89971   0.44911   0.69914   0.00000  Uiso   1.00
C81    C     0.99600   0.49574   0.70613   0.00000  Uiso   1.00
C82    C     0.47575   0.59325   0.54237   0.00000  Uiso   1.00
C83    C     0.49894   0.57010   0.54202   0.00000  Uiso   1.00
H84    H     0.49305   0.62674   0.57556   0.00000  Uiso   1.00
H85    H     0.53245   0.58740   0.57458   0.00000  Uiso   1.00
C86    C     0.50537   0.43586   0.71566   0.00000  Uiso   1.00
C87    C     0.48184   0.45866   0.71346   0.00000  Uiso   1.00
H88    H     0.49164   0.40662   0.88288   0.00000  Uiso   1.00
H89    H     0.45191   0.44487   0.87320   0.00000  Uiso   1.00
C90    C     0.41052   0.88049   0.46516   0.00000  Uiso   1.00
C91    C     0.43409   0.92812   0.44861   0.00000  Uiso   1.00
H92    H     0.37712   0.86132   0.57502   0.00000  Uiso   1.00
H93    H     0.41711   0.94207   0.54968   0.00000  Uiso   1.00
C94    C     0.57103   0.07552   0.38938   0.00000  Uiso   1.00
C95    C     0.54811   0.02823   0.38647   0.00000  Uiso   1.00
H96    H     0.60247   0.09157   0.46376   0.00000  Uiso   1.00
H97    H     0.56364   0.01146   0.45890   0.00000  Uiso   1.00
C98    C     0.11286   0.52107   0.81130   0.00000  Uiso   1.00
C99    C     0.06516   0.49763   0.83001   0.00000  Uiso   1.00
H100   H     0.12713   0.50422   0.90975   0.00000  Uiso   1.00
H101   H     0.04607   0.46435   0.94288   0.00000  Uiso   1.00
C102   C     0.92375   0.49279   0.79649   0.00000  Uiso   1.00
C103   C     0.97097   0.51554   0.80221   0.00000  Uiso   1.00
H104   H     0.90702   0.50846   0.86517   0.00000  Uiso   1.00
H105   H     0.98696   0.54685   0.87825   0.00000  Uiso   1.00
C106   C     0.40674   0.52426   0.46077   0.00000  Uiso   1.00
C107   C     0.42990   0.50108   0.46096   0.00000  Uiso   1.00
H108   H     0.37325   0.50696   0.42765   0.00000  Uiso   1.00
H109   H     0.41260   0.46757   0.42834   0.00000  Uiso   1.00
C110   C     0.56413   0.49474   0.28597   0.00000  Uiso   1.00
C111   C     0.54131   0.51825   0.28872   0.00000  Uiso   1.00
H112   H     0.59332   0.50852   0.11856   0.00000  Uiso   1.00
H113   H     0.55506   0.54824   0.12919   0.00000  Uiso   1.00
C114   C     0.11953   0.58940   0.53404   0.00000  Uiso   1.00
C115   C     0.07191   0.56582   0.55033   0.00000  Uiso   1.00
H116   H     0.13869   0.62281   0.42397   0.00000  Uiso   1.00
H117   H     0.05795   0.58280   0.44887   0.00000  Uiso   1.00
C118   C     0.92452   0.42887   0.60967   0.00000  Uiso   1.00
C119   C     0.97181   0.45179   0.61279   0.00000  Uiso   1.00
H120   H     0.90846   0.39745   0.53545   0.00000  Uiso   1.00
H121   H     0.98856   0.43626   0.54066   0.00000  Uiso   1.00
C122   C     0.47882   0.88719   0.18874   0.00000  Uiso   1.00
C123   C     0.50226   0.93490   0.16977   0.00000  Uiso   1.00
H124   H     0.49567   0.87294   0.09068   0.00000  Uiso   1.00
H125   H     0.53552   0.95401   0.05709   0.00000  Uiso   1.00
C126   C     0.50711   0.07631   0.20197   0.00000  Uiso   1.00
C127   C     0.48435   0.02910   0.19645   0.00000  Uiso   1.00
H128   H     0.49144   0.09306   0.13300   0.00000  Uiso   1.00
H129   H     0.45303   0.01312   0.12027   0.00000  Uiso   1.00
N130   N     0.33516   0.66484   0.50063   0.00000  Uiso   1.00
loop_
_geom_bond_atom_site_label_1
_geom_bond_atom_site_label_2
_geom_bond_distance
_geom_bond_site_symmetry_2
_ccdc_geom_bond_type
C1     C4      1.415   .     D
C1     C5      1.415   .     S
C1     C10     1.421   .     S
C2     C5      1.417   .     D
C2     C6      1.417   .     S
C2     C11     1.424   .     S
C3     C4      1.415   .     S
C3     C6      1.415   .     D
C3     C12     1.421   .     S
C4     H7      1.021   .     S
C5     H8      1.022   .     S
C6     H9      1.022   .     S
C10    C16     1.417   .     S
C10    C26     1.417   .     D
C11    C18     1.417   .     D
C11    C24     1.417   .     S
C12    C20     1.417   .     S
C12    C22     1.417   .     D
C13    C19     1.421   .     D
C13    C23     1.422   .     S
C13    N130    1.397   .     S
C14    C21     1.421   .     D
C14    C27     1.421   .     S
C14    N130    1.396   .     S
C15    C17     1.422   .     D
C15    C25     1.421   .     S
C15    N130    1.397   .     S
C16    C28     1.408   .     D
C16    H46     1.021   .     S
C17    C29     1.407   .     S
C17    H47     1.011   .     S
C18    C30     1.407   .     S
C18    H48     1.022   .     S
C19    C31     1.407   .     S
C19    H49     1.010   .     S
C20    C32     1.406   .     D
C20    H50     1.023   .     S
C21    C33     1.407   .     S
C21    H51     1.010   .     S
C22    C34     1.408   .     S
C22    H52     1.021   .     S
C23    C35     1.407   .     D
C23    H53     1.011   .     S
C24    C36     1.407   .     D
C24    H54     1.022   .     S
C25    C37     1.407   .     D
C25    H55     1.010   .     S
C26    C38     1.406   .     S
C26    H56     1.023   .     S
C27    C39     1.407   .     D
C27    H57     1.010   .     S
C28    C40     1.414   .     S
C28    H58     1.023   .     S
C29    C45     1.409   .     D
C29    H59     1.023   .     S
C30    C41     1.418   .     D
C30    H60     1.022   .     S
C31    C43     1.410   .     D
C31    H61     1.024   .     S
C32    C42     1.413   .     S
C32    H62     1.022   .     S
C33    C44     1.410   .     D
C33    H63     1.024   .     S
C34    C42     1.414   .     D
C34    H64     1.023   .     S
C35    C43     1.409   .     S
C35    H65     1.023   .     S
C36    C41     1.418   .     S
C36    H66     1.022   .     S
C37    C45     1.410   .     S
C37    H67     1.024   .     S
C38    C40     1.413   .     D
C38    H68     1.022   .     S
C39    C44     1.410   .     S
C39    H69     1.024   .     S
C40    C80     1.414   .     S
C41    C72     1.426   .     S
C42    C76     1.414   .     S
C43    C78     1.411   .     S
C44    C70     1.413   .     S
C45    C74     1.411   .     S
C70    C82     1.415   .     D
C70    C106    1.414   .     S
C71    C73     1.412   .     S
C71    C83     1.414   .     D
C71    C107    1.414   .     S
C72    C86     1.420   .     D
C72    C110    1.420   .     S
C73    C87     1.412   .     D
C73    C111    1.412   .     S
C74    C90     1.413   .     D
C74    C122    1.413   .     S
C75    C77     1.416   1_565 S
C75    C91     1.416   .     D
C75    C123    1.416   .     S
C76    C94     1.415   .     D
C76    C126    1.414   .     S
C77    C75     1.416   1_545 S
C77    C95     1.415   .     D
C77    C127    1.415   .     S
C78    C98     1.413   .     D
C78    C114    1.413   .     S
C79    C81     1.416   1_455 S
C79    C99     1.416   .     D
C79    C115    1.416   .     S
C80    C102    1.414   .     D
C80    C118    1.415   .     S
C81    C79     1.416   1_655 S
C81    C103    1.415   .     D
C81    C119    1.415   .     S
C82    C83     1.407   .     S
C82    H84     1.023   .     S
C83    H85     1.023   .     S
C86    C87     1.407   .     S
C86    H88     1.022   .     S
C87    H89     1.024   .     S
C90    C91     1.406   .     S
C90    H92     1.023   .     S
C91    H93     1.023   .     S
C94    C95     1.407   .     S
C94    H96     1.023   .     S
C95    H97     1.023   .     S
C98    C99     1.407   .     S
C98    H100    1.023   .     S
C99    H101    1.023   .     S
C102   C103    1.407   .     S
C102   H104    1.022   .     S
C103   H105    1.023   .     S
C106   C107    1.407   .     D
C106   H108    1.023   .     S
C107   H109    1.023   .     S
C110   C111    1.407   .     D
C110   H112    1.022   .     S
C111   H113    1.024   .     S
C114   C115    1.406   .     D
C114   H116    1.023   .     S
C115   H117    1.023   .     S
C118   C119    1.407   .     D
C118   H120    1.023   .     S
C119   H121    1.023   .     S
C122   C123    1.407   .     D
C122   H124    1.023   .     S
C123   H125    1.023   .     S
C126   C127    1.407   .     D
C126   H128    1.022   .     S
C127   H129    1.023   .     S
