data_352
_audit_creation_date              2023-09-08
_audit_creation_method            'Materials Studio'
_symmetry_space_group_name_H-M    'P1'
_symmetry_Int_Tables_number       1
_symmetry_cell_setting            triclinic
loop_
_symmetry_equiv_pos_as_xyz
  x,y,z
_cell_length_a                    36.4803
_cell_length_b                    36.4803
_cell_length_c                    4.6270
_cell_angle_alpha                 90.0000
_cell_angle_beta                  90.0000
_cell_angle_gamma                 120.0000
loop_
_atom_site_label
_atom_site_type_symbol
_atom_site_fract_x
_atom_site_fract_y
_atom_site_fract_z
_atom_site_U_iso_or_equiv
_atom_site_adp_type
_atom_site_occupancy
C1     C     0.35679   0.64549   0.76895   0.00000  Uiso   1.00
C2     C     0.37756   0.68990   0.77217   0.00000  Uiso   1.00
C3     C     0.38147   0.62347   0.73187   0.00000  Uiso   1.00
C4     C     0.36713   0.58899   0.54064   0.00000  Uiso   1.00
C5     C     0.39148   0.56965   0.48851   0.00000  Uiso   1.00
C6     C     0.43087   0.58541   0.62680   0.00000  Uiso   1.00
C7     C     0.44497   0.61919   0.82058   0.00000  Uiso   1.00
C8     C     0.42042   0.63805   0.87365   0.00000  Uiso   1.00
N9     N     0.45475   0.56711   0.57793   0.00000  Uiso   1.00
C10    C     0.44282   0.53371   0.39550   0.00000  Uiso   1.00
C11    C     0.47124   0.51534   0.38026   0.00000  Uiso   1.00
C12    C     0.45599   0.47155   0.41003   0.00000  Uiso   1.00
C13    C     0.48486   0.45664   0.38575   0.00000  Uiso   1.00
O14    O     0.41280   0.44481   0.47821   0.00000  Uiso   1.00
C15    C     0.39762   0.40101   0.53124   0.00000  Uiso   1.00
H16    H     0.41180   0.70789   0.76459   0.00000  Uiso   1.00
H17    H     0.33763   0.57817   0.42543   0.00000  Uiso   1.00
C18    C     0.37737   0.53484   0.30144   0.00000  Uiso   1.00
H19    H     0.47490   0.63079   0.93155   0.00000  Uiso   1.00
H20    H     0.43188   0.66402   1.02590   0.00000  Uiso   1.00
C21    C     0.40372   0.51759   0.24463   0.00000  Uiso   1.00
H22    H     0.47364   0.42304   0.38551   0.00000  Uiso   1.00
H23    H     0.41481   0.39701   0.71588   0.00000  Uiso   1.00
H24    H     0.40058   0.38539   0.33354   0.00000  Uiso   1.00
H25    H     0.36360   0.38555   0.58886   0.00000  Uiso   1.00
C26    C     0.61206   0.51687   0.02163   0.00000  Uiso   1.00
C27    C     0.65853   0.54754   0.07935   0.00000  Uiso   1.00
C28    C     0.68319   0.52386   0.04545   0.00000  Uiso   1.00
O29    O     0.66352   0.48267   0.17922   0.00000  Uiso   1.00
H30    H     0.60994   0.50270  -0.19139   0.00000  Uiso   1.00
H31    H     0.59381   0.53339   0.00502   0.00000  Uiso   1.00
H32    H     0.66280   0.56068   0.30164   0.00000  Uiso   1.00
H33    H     0.67066   0.57419  -0.07711   0.00000  Uiso   1.00
H34    H     0.71519   0.54354   0.14019   0.00000  Uiso   1.00
H35    H     0.68738   0.51996  -0.18830   0.00000  Uiso   1.00
C36    C     0.35451   0.71130   0.76895   0.00000  Uiso   1.00
C37    C     0.31010   0.68766   0.77217   0.00000  Uiso   1.00
C38    C     0.37653   0.75800   0.73187   0.00000  Uiso   1.00
C39    C     0.41101   0.77814   0.54064   0.00000  Uiso   1.00
C40    C     0.43035   0.82183   0.48851   0.00000  Uiso   1.00
C41    C     0.41459   0.84546   0.62680   0.00000  Uiso   1.00
C42    C     0.38081   0.82578   0.82058   0.00000  Uiso   1.00
C43    C     0.36195   0.78237   0.87365   0.00000  Uiso   1.00
N44    N     0.43289   0.88764   0.57793   0.00000  Uiso   1.00
C45    C     0.46629   0.90911   0.39550   0.00000  Uiso   1.00
C46    C     0.48466   0.95590   0.38026   0.00000  Uiso   1.00
C47    C     0.52845   0.98444   0.41003   0.00000  Uiso   1.00
C48    C     0.54336   0.02822   0.38575   0.00000  Uiso   1.00
O49    O     0.55519   0.96799   0.47821   0.00000  Uiso   1.00
C50    C     0.59899   0.99661   0.53124   0.00000  Uiso   1.00
H51    H     0.29211   0.70391   0.76459   0.00000  Uiso   1.00
H52    H     0.42183   0.75946   0.42543   0.00000  Uiso   1.00
C53    C     0.46516   0.84253   0.30144   0.00000  Uiso   1.00
H54    H     0.36921   0.84411   0.93155   0.00000  Uiso   1.00
H55    H     0.33598   0.76786   1.02590   0.00000  Uiso   1.00
C56    C     0.48241   0.88613   0.24463   0.00000  Uiso   1.00
H57    H     0.57696   0.05060   0.38551   0.00000  Uiso   1.00
H58    H     0.60299   0.01780   0.71588   0.00000  Uiso   1.00
H59    H     0.61461   0.01519   0.33354   0.00000  Uiso   1.00
H60    H     0.61445   0.97805   0.58886   0.00000  Uiso   1.00
C61    C     0.48313   0.09519   0.02163   0.00000  Uiso   1.00
C62    C     0.45246   0.11099   0.07935   0.00000  Uiso   1.00
C63    C     0.47614   0.15933   0.04545   0.00000  Uiso   1.00
O64    O     0.51733   0.18085   0.17922   0.00000  Uiso   1.00
H65    H     0.49730   0.10724  -0.19139   0.00000  Uiso   1.00
H66    H     0.46661   0.06042   0.00502   0.00000  Uiso   1.00
H67    H     0.43932   0.10212   0.30164   0.00000  Uiso   1.00
H68    H     0.42581   0.09647  -0.07711   0.00000  Uiso   1.00
H69    H     0.45646   0.17165   0.14019   0.00000  Uiso   1.00
H70    H     0.48004   0.16742  -0.18830   0.00000  Uiso   1.00
C71    C     0.28870   0.64321   0.76895   0.00000  Uiso   1.00
C72    C     0.31234   0.62244   0.77217   0.00000  Uiso   1.00
C73    C     0.24200   0.61853   0.73187   0.00000  Uiso   1.00
C74    C     0.22186   0.63287   0.54064   0.00000  Uiso   1.00
C75    C     0.17817   0.60852   0.48851   0.00000  Uiso   1.00
C76    C     0.15454   0.56913   0.62680   0.00000  Uiso   1.00
C77    C     0.17422   0.55503   0.82058   0.00000  Uiso   1.00
C78    C     0.21763   0.57958   0.87365   0.00000  Uiso   1.00
N79    N     0.11236   0.54525   0.57793   0.00000  Uiso   1.00
C80    C     0.09089   0.55718   0.39550   0.00000  Uiso   1.00
C81    C     0.04410   0.52876   0.38026   0.00000  Uiso   1.00
C82    C     0.01556   0.54401   0.41003   0.00000  Uiso   1.00
C83    C     0.97178   0.51514   0.38575   0.00000  Uiso   1.00
O84    O     0.03201   0.58720   0.47821   0.00000  Uiso   1.00
C85    C     0.00339   0.60238   0.53124   0.00000  Uiso   1.00
H86    H     0.29609   0.58820   0.76459   0.00000  Uiso   1.00
H87    H     0.24054   0.66237   0.42543   0.00000  Uiso   1.00
C88    C     0.15747   0.62263   0.30144   0.00000  Uiso   1.00
H89    H     0.15589   0.52510   0.93155   0.00000  Uiso   1.00
H90    H     0.23214   0.56812   1.02590   0.00000  Uiso   1.00
C91    C     0.11387   0.59628   0.24463   0.00000  Uiso   1.00
H92    H     0.94940   0.52636   0.38551   0.00000  Uiso   1.00
H93    H     0.98220   0.58519   0.71588   0.00000  Uiso   1.00
H94    H     0.98481   0.59942   0.33354   0.00000  Uiso   1.00
H95    H     0.02195   0.63640   0.58886   0.00000  Uiso   1.00
C96    C     0.90481   0.38794   0.02163   0.00000  Uiso   1.00
C97    C     0.88901   0.34147   0.07935   0.00000  Uiso   1.00
C98    C     0.84067   0.31681   0.04545   0.00000  Uiso   1.00
O99    O     0.81915   0.33648   0.17922   0.00000  Uiso   1.00
H100   H     0.89276   0.39006  -0.19139   0.00000  Uiso   1.00
H101   H     0.93958   0.40619   0.00502   0.00000  Uiso   1.00
H102   H     0.89788   0.33720   0.30164   0.00000  Uiso   1.00
H103   H     0.90353   0.32934  -0.07711   0.00000  Uiso   1.00
H104   H     0.82835   0.28481   0.14019   0.00000  Uiso   1.00
H105   H     0.83258   0.31262  -0.18830   0.00000  Uiso   1.00
C106   C     0.64321   0.35451   0.76895   0.00000  Uiso   1.00
C107   C     0.62244   0.31010   0.77217   0.00000  Uiso   1.00
C108   C     0.61853   0.37653   0.73187   0.00000  Uiso   1.00
C109   C     0.63287   0.41101   0.54064   0.00000  Uiso   1.00
C110   C     0.60852   0.43035   0.48851   0.00000  Uiso   1.00
C111   C     0.56913   0.41459   0.62680   0.00000  Uiso   1.00
C112   C     0.55503   0.38081   0.82058   0.00000  Uiso   1.00
C113   C     0.57958   0.36195   0.87365   0.00000  Uiso   1.00
N114   N     0.54525   0.43289   0.57793   0.00000  Uiso   1.00
C115   C     0.55718   0.46629   0.39550   0.00000  Uiso   1.00
C116   C     0.52876   0.48466   0.38026   0.00000  Uiso   1.00
C117   C     0.54401   0.52845   0.41003   0.00000  Uiso   1.00
C118   C     0.51514   0.54336   0.38575   0.00000  Uiso   1.00
O119   O     0.58720   0.55519   0.47821   0.00000  Uiso   1.00
C120   C     0.60238   0.59899   0.53124   0.00000  Uiso   1.00
H121   H     0.58820   0.29211   0.76459   0.00000  Uiso   1.00
H122   H     0.66237   0.42183   0.42543   0.00000  Uiso   1.00
C123   C     0.62263   0.46516   0.30144   0.00000  Uiso   1.00
H124   H     0.52510   0.36921   0.93155   0.00000  Uiso   1.00
H125   H     0.56812   0.33598   1.02590   0.00000  Uiso   1.00
C126   C     0.59628   0.48241   0.24463   0.00000  Uiso   1.00
H127   H     0.52636   0.57696   0.38551   0.00000  Uiso   1.00
H128   H     0.58519   0.60299   0.71588   0.00000  Uiso   1.00
H129   H     0.59942   0.61461   0.33354   0.00000  Uiso   1.00
H130   H     0.63640   0.61445   0.58886   0.00000  Uiso   1.00
C131   C     0.38794   0.48313   0.02163   0.00000  Uiso   1.00
C132   C     0.34147   0.45246   0.07935   0.00000  Uiso   1.00
C133   C     0.31681   0.47614   0.04545   0.00000  Uiso   1.00
O134   O     0.33648   0.51733   0.17922   0.00000  Uiso   1.00
H135   H     0.39006   0.49730  -0.19139   0.00000  Uiso   1.00
H136   H     0.40619   0.46661   0.00502   0.00000  Uiso   1.00
H137   H     0.33720   0.43932   0.30164   0.00000  Uiso   1.00
H138   H     0.32934   0.42581  -0.07711   0.00000  Uiso   1.00
H139   H     0.28481   0.45646   0.14019   0.00000  Uiso   1.00
H140   H     0.31262   0.48004  -0.18830   0.00000  Uiso   1.00
C141   C     0.64549   0.28870   0.76895   0.00000  Uiso   1.00
C142   C     0.68990   0.31234   0.77217   0.00000  Uiso   1.00
C143   C     0.62347   0.24200   0.73187   0.00000  Uiso   1.00
C144   C     0.58899   0.22186   0.54064   0.00000  Uiso   1.00
C145   C     0.56965   0.17817   0.48851   0.00000  Uiso   1.00
C146   C     0.58541   0.15454   0.62680   0.00000  Uiso   1.00
C147   C     0.61919   0.17422   0.82058   0.00000  Uiso   1.00
C148   C     0.63805   0.21763   0.87365   0.00000  Uiso   1.00
N149   N     0.56711   0.11236   0.57793   0.00000  Uiso   1.00
C150   C     0.53371   0.09089   0.39550   0.00000  Uiso   1.00
C151   C     0.51534   0.04410   0.38026   0.00000  Uiso   1.00
C152   C     0.47155   0.01556   0.41003   0.00000  Uiso   1.00
C153   C     0.45664   0.97178   0.38575   0.00000  Uiso   1.00
O154   O     0.44481   0.03201   0.47821   0.00000  Uiso   1.00
C155   C     0.40101   0.00339   0.53124   0.00000  Uiso   1.00
H156   H     0.70789   0.29609   0.76459   0.00000  Uiso   1.00
H157   H     0.57817   0.24054   0.42543   0.00000  Uiso   1.00
C158   C     0.53484   0.15747   0.30144   0.00000  Uiso   1.00
H159   H     0.63079   0.15589   0.93155   0.00000  Uiso   1.00
H160   H     0.66402   0.23214   1.02590   0.00000  Uiso   1.00
C161   C     0.51759   0.11387   0.24463   0.00000  Uiso   1.00
H162   H     0.42304   0.94940   0.38551   0.00000  Uiso   1.00
H163   H     0.39701   0.98220   0.71588   0.00000  Uiso   1.00
H164   H     0.38539   0.98481   0.33354   0.00000  Uiso   1.00
H165   H     0.38555   0.02195   0.58886   0.00000  Uiso   1.00
C166   C     0.51687   0.90481   0.02163   0.00000  Uiso   1.00
C167   C     0.54754   0.88901   0.07935   0.00000  Uiso   1.00
C168   C     0.52386   0.84067   0.04545   0.00000  Uiso   1.00
O169   O     0.48267   0.81915   0.17922   0.00000  Uiso   1.00
H170   H     0.50270   0.89276  -0.19139   0.00000  Uiso   1.00
H171   H     0.53339   0.93958   0.00502   0.00000  Uiso   1.00
H172   H     0.56068   0.89788   0.30164   0.00000  Uiso   1.00
H173   H     0.57419   0.90353  -0.07711   0.00000  Uiso   1.00
H174   H     0.54354   0.82835   0.14019   0.00000  Uiso   1.00
H175   H     0.51996   0.83258  -0.18830   0.00000  Uiso   1.00
C176   C     0.71130   0.35679   0.76895   0.00000  Uiso   1.00
C177   C     0.68766   0.37756   0.77217   0.00000  Uiso   1.00
C178   C     0.75800   0.38147   0.73187   0.00000  Uiso   1.00
C179   C     0.77814   0.36713   0.54064   0.00000  Uiso   1.00
C180   C     0.82183   0.39148   0.48851   0.00000  Uiso   1.00
C181   C     0.84546   0.43087   0.62680   0.00000  Uiso   1.00
C182   C     0.82578   0.44497   0.82058   0.00000  Uiso   1.00
C183   C     0.78237   0.42042   0.87365   0.00000  Uiso   1.00
N184   N     0.88764   0.45475   0.57793   0.00000  Uiso   1.00
C185   C     0.90911   0.44282   0.39550   0.00000  Uiso   1.00
C186   C     0.95590   0.47124   0.38026   0.00000  Uiso   1.00
C187   C     0.98444   0.45599   0.41003   0.00000  Uiso   1.00
C188   C     0.02822   0.48486   0.38575   0.00000  Uiso   1.00
O189   O     0.96799   0.41280   0.47821   0.00000  Uiso   1.00
C190   C     0.99661   0.39762   0.53124   0.00000  Uiso   1.00
H191   H     0.70391   0.41180   0.76459   0.00000  Uiso   1.00
H192   H     0.75946   0.33763   0.42543   0.00000  Uiso   1.00
C193   C     0.84253   0.37737   0.30144   0.00000  Uiso   1.00
H194   H     0.84411   0.47490   0.93155   0.00000  Uiso   1.00
H195   H     0.76786   0.43188   1.02590   0.00000  Uiso   1.00
C196   C     0.88613   0.40372   0.24463   0.00000  Uiso   1.00
H197   H     0.05060   0.47364   0.38551   0.00000  Uiso   1.00
H198   H     0.01780   0.41481   0.71588   0.00000  Uiso   1.00
H199   H     0.01519   0.40058   0.33354   0.00000  Uiso   1.00
H200   H     0.97805   0.36360   0.58886   0.00000  Uiso   1.00
C201   C     0.09519   0.61206   0.02163   0.00000  Uiso   1.00
C202   C     0.11099   0.65853   0.07935   0.00000  Uiso   1.00
C203   C     0.15933   0.68319   0.04545   0.00000  Uiso   1.00
O204   O     0.18085   0.66352   0.17922   0.00000  Uiso   1.00
H205   H     0.10724   0.60994  -0.19139   0.00000  Uiso   1.00
H206   H     0.06042   0.59381   0.00502   0.00000  Uiso   1.00
H207   H     0.10212   0.66280   0.30164   0.00000  Uiso   1.00
H208   H     0.09647   0.67066  -0.07711   0.00000  Uiso   1.00
H209   H     0.17165   0.71519   0.14019   0.00000  Uiso   1.00
H210   H     0.16742   0.68738  -0.18830   0.00000  Uiso   1.00
loop_
_geom_bond_atom_site_label_1
_geom_bond_atom_site_label_2
_geom_bond_distance
_geom_bond_site_symmetry_2
_ccdc_geom_bond_type
C1     C2      1.404   .     S
C1     C3      1.486   .     S
C1     C72     1.405   .     D
C2     H16     1.083   .     S
C2     C36     1.405   .     D
C3     C4      1.407   .     D
C3     C8      1.406   .     S
C4     C5      1.404   .     S
C4     H17     1.083   .     S
C5     C6      1.407   .     D
C5     C18     1.405   .     S
C6     C7      1.398   .     S
C6     N9      1.355   .     S
C7     C8      1.397   .     D
C7     H19     1.083   .     S
C8     H20     1.083   .     S
N9     C10     1.362   .     D
C10    C11     1.491   .     S
C10    C21     1.424   .     S
C11    C12     1.411   .     D
C11    C118    1.405   .     S
C12    C13     1.411   .     S
C12    O14     1.413   .     S
C13    H22     1.081   .     S
C13    C116    1.405   .     D
O14    C15     1.427   .     S
C15    H23     1.112   .     S
C15    H24     1.111   .     S
C15    H25     1.109   .     S
C18    C21     1.412   .     D
C18    O134    1.414   .     S
C21    C131    1.501   .     S
C26    C27     1.517   .     S
C26    H30     1.098   .     S
C26    H31     1.102   .     S
C26    C126    1.501   .     S
C27    C28     1.535   .     S
C27    H32     1.112   .     S
C27    H33     1.111   .     S
C28    O29     1.441   .     S
C28    H34     1.110   .     S
C28    H35     1.111   .     S
O29    C123    1.414   .     S
C36    C37     1.404   .     S
C36    C38     1.486   .     S
C37    H51     1.083   .     S
C37    C71     1.405   .     D
C38    C39     1.407   .     D
C38    C43     1.406   .     S
C39    C40     1.404   .     S
C39    H52     1.083   .     S
C40    C41     1.407   .     D
C40    C53     1.405   .     S
C41    C42     1.398   .     S
C41    N44     1.355   .     S
C42    C43     1.397   .     D
C42    H54     1.083   .     S
C43    H55     1.083   .     S
N44    C45     1.362   .     D
C45    C46     1.491   .     S
C45    C56     1.424   .     S
C46    C47     1.411   .     D
C46    C153    1.405   .     S
C47    C48     1.411   1_565 S
C47    O49     1.413   .     S
C48    C47     1.411   1_545 S
C48    H57     1.081   .     S
C48    C151    1.405   .     D
O49    C50     1.427   .     S
C50    H58     1.112   1_565 S
C50    H59     1.111   1_565 S
C50    H60     1.109   .     S
C53    C56     1.412   .     D
C53    O169    1.414   .     S
C56    C166    1.501   .     S
H58    C50     1.112   1_545 S
H59    C50     1.111   1_545 S
C61    C62     1.517   .     S
C61    H65     1.098   .     S
C61    H66     1.102   .     S
C61    C161    1.501   .     S
C62    C63     1.535   .     S
C62    H67     1.112   .     S
C62    H68     1.111   .     S
C63    O64     1.441   .     S
C63    H69     1.110   .     S
C63    H70     1.111   .     S
O64    C158    1.414   .     S
C71    C72     1.404   .     S
C71    C73     1.486   .     S
C72    H86     1.083   .     S
C73    C74     1.407   .     D
C73    C78     1.406   .     S
C74    C75     1.404   .     S
C74    H87     1.083   .     S
C75    C76     1.407   .     D
C75    C88     1.405   .     S
C76    C77     1.398   .     S
C76    N79     1.355   .     S
C77    C78     1.397   .     D
C77    H89     1.083   .     S
C78    H90     1.083   .     S
N79    C80     1.362   .     D
C80    C81     1.491   .     S
C80    C91     1.424   .     S
C81    C82     1.411   .     D
C81    C188    1.405   .     S
C82    C83     1.411   1_455 S
C82    O84     1.413   .     S
C83    C82     1.411   1_655 S
C83    H92     1.081   .     S
C83    C186    1.405   .     D
O84    C85     1.427   .     S
C85    H93     1.112   1_455 S
C85    H94     1.111   1_455 S
C85    H95     1.109   .     S
C88    C91     1.412   .     D
C88    O204    1.414   .     S
C91    C201    1.501   .     S
H93    C85     1.112   1_655 S
H94    C85     1.111   1_655 S
C96    C97     1.517   .     S
C96    H100    1.098   .     S
C96    H101    1.102   .     S
C96    C196    1.501   .     S
C97    C98     1.535   .     S
C97    H102    1.112   .     S
C97    H103    1.111   .     S
C98    O99     1.441   .     S
C98    H104    1.110   .     S
C98    H105    1.111   .     S
O99    C193    1.414   .     S
C106   C107    1.404   .     S
C106   C108    1.486   .     S
C106   C177    1.405   .     D
C107   H121    1.083   .     S
C107   C141    1.405   .     D
C108   C109    1.407   .     D
C108   C113    1.406   .     S
C109   C110    1.404   .     S
C109   H122    1.083   .     S
C110   C111    1.407   .     D
C110   C123    1.405   .     S
C111   C112    1.398   .     S
C111   N114    1.355   .     S
C112   C113    1.397   .     D
C112   H124    1.083   .     S
C113   H125    1.083   .     S
N114   C115    1.362   .     D
C115   C116    1.491   .     S
C115   C126    1.424   .     S
C116   C117    1.411   .     S
C117   C118    1.411   .     D
C117   O119    1.413   .     S
C118   H127    1.081   .     S
O119   C120    1.427   .     S
C120   H128    1.112   .     S
C120   H129    1.111   .     S
C120   H130    1.109   .     S
C123   C126    1.412   .     D
C131   C132    1.517   .     S
C131   H135    1.098   .     S
C131   H136    1.102   .     S
C132   C133    1.535   .     S
C132   H137    1.112   .     S
C132   H138    1.111   .     S
C133   O134    1.441   .     S
C133   H139    1.110   .     S
C133   H140    1.111   .     S
C141   C142    1.404   .     S
C141   C143    1.486   .     S
C142   H156    1.083   .     S
C142   C176    1.405   .     D
C143   C144    1.407   .     D
C143   C148    1.406   .     S
C144   C145    1.404   .     S
C144   H157    1.083   .     S
C145   C146    1.407   .     D
C145   C158    1.405   .     S
C146   C147    1.398   .     S
C146   N149    1.355   .     S
C147   C148    1.397   .     D
C147   H159    1.083   .     S
C148   H160    1.083   .     S
N149   C150    1.362   .     D
C150   C151    1.491   .     S
C150   C161    1.424   .     S
C151   C152    1.411   .     S
C152   C153    1.411   1_545 D
C152   O154    1.413   .     S
C153   C152    1.411   1_565 D
C153   H162    1.081   .     S
O154   C155    1.427   .     S
C155   H163    1.112   1_545 S
C155   H164    1.111   1_545 S
C155   H165    1.109   .     S
C158   C161    1.412   .     D
H163   C155    1.112   1_565 S
H164   C155    1.111   1_565 S
C166   C167    1.517   .     S
C166   H170    1.098   .     S
C166   H171    1.102   .     S
C167   C168    1.535   .     S
C167   H172    1.112   .     S
C167   H173    1.111   .     S
C168   O169    1.441   .     S
C168   H174    1.110   .     S
C168   H175    1.111   .     S
C176   C177    1.404   .     S
C176   C178    1.486   .     S
C177   H191    1.083   .     S
C178   C179    1.407   .     D
C178   C183    1.406   .     S
C179   C180    1.404   .     S
C179   H192    1.083   .     S
C180   C181    1.407   .     D
C180   C193    1.405   .     S
C181   C182    1.398   .     S
C181   N184    1.355   .     S
C182   C183    1.397   .     D
C182   H194    1.083   .     S
C183   H195    1.083   .     S
N184   C185    1.362   .     D
C185   C186    1.491   .     S
C185   C196    1.424   .     S
C186   C187    1.411   .     S
C187   C188    1.411   1_655 D
C187   O189    1.413   .     S
C188   C187    1.411   1_455 D
C188   H197    1.081   .     S
O189   C190    1.427   .     S
C190   H198    1.112   1_655 S
C190   H199    1.111   1_655 S
C190   H200    1.109   .     S
C193   C196    1.412   .     D
H198   C190    1.112   1_455 S
H199   C190    1.111   1_455 S
C201   C202    1.517   .     S
C201   H205    1.098   .     S
C201   H206    1.102   .     S
C202   C203    1.535   .     S
C202   H207    1.112   .     S
C202   H208    1.111   .     S
C203   O204    1.441   .     S
C203   H209    1.110   .     S
C203   H210    1.111   .     S
