data_353
_audit_creation_date              2023-09-08
_audit_creation_method            'Materials Studio'
_symmetry_space_group_name_H-M    'P1'
_symmetry_Int_Tables_number       1
_symmetry_cell_setting            triclinic
loop_
_symmetry_equiv_pos_as_xyz
  x,y,z
_cell_length_a                    28.1475
_cell_length_b                    28.1475
_cell_length_c                    14.5171
_cell_angle_alpha                 90.0000
_cell_angle_beta                  90.0000
_cell_angle_gamma                 120.0000
loop_
_atom_site_label
_atom_site_type_symbol
_atom_site_fract_x
_atom_site_fract_y
_atom_site_fract_z
_atom_site_U_iso_or_equiv
_atom_site_adp_type
_atom_site_occupancy
C1     C     0.90730   0.40287   0.36200   0.00000  Uiso   1.00
C2     C     0.59713   0.50443   0.36200   0.00000  Uiso   1.00
C3     C     0.49557   0.09270   0.36200   0.00000  Uiso   1.00
C4     C     0.09270   0.59713   0.36200   0.00000  Uiso   1.00
C5     C     0.40287   0.49557   0.36200   0.00000  Uiso   1.00
C6     C     0.50443   0.90730   0.36200   0.00000  Uiso   1.00
C7     C     0.40287   0.90730   0.63801   0.00000  Uiso   1.00
C8     C     0.50443   0.59713   0.63801   0.00000  Uiso   1.00
C9     C     0.09270   0.49557   0.63801   0.00000  Uiso   1.00
C10    C     0.59713   0.09270   0.63801   0.00000  Uiso   1.00
C11    C     0.49557   0.40287   0.63801   0.00000  Uiso   1.00
C12    C     0.90730   0.50443   0.63801   0.00000  Uiso   1.00
C13    C     0.09270   0.59713   0.63801   0.00000  Uiso   1.00
C14    C     0.40287   0.49557   0.63801   0.00000  Uiso   1.00
C15    C     0.50443   0.90730   0.63801   0.00000  Uiso   1.00
C16    C     0.90730   0.40287   0.63801   0.00000  Uiso   1.00
C17    C     0.59713   0.50443   0.63801   0.00000  Uiso   1.00
C18    C     0.49557   0.09270   0.63801   0.00000  Uiso   1.00
C19    C     0.59713   0.09270   0.36200   0.00000  Uiso   1.00
C20    C     0.49557   0.40287   0.36200   0.00000  Uiso   1.00
C21    C     0.90730   0.50443   0.36200   0.00000  Uiso   1.00
C22    C     0.40287   0.90730   0.36200   0.00000  Uiso   1.00
C23    C     0.50443   0.59713   0.36200   0.00000  Uiso   1.00
C24    C     0.09270   0.49557   0.36200   0.00000  Uiso   1.00
C25    C     0.95137   0.45016   0.40215   0.00000  Uiso   1.00
C26    C     0.54984   0.50121   0.40215   0.00000  Uiso   1.00
C27    C     0.49879   0.04863   0.40215   0.00000  Uiso   1.00
C28    C     0.04863   0.54984   0.40215   0.00000  Uiso   1.00
C29    C     0.45016   0.49879   0.40215   0.00000  Uiso   1.00
C30    C     0.50121   0.95137   0.40215   0.00000  Uiso   1.00
C31    C     0.45016   0.95137   0.59785   0.00000  Uiso   1.00
C32    C     0.50121   0.54984   0.59785   0.00000  Uiso   1.00
C33    C     0.04863   0.49879   0.59785   0.00000  Uiso   1.00
C34    C     0.54984   0.04863   0.59785   0.00000  Uiso   1.00
C35    C     0.49879   0.45016   0.59785   0.00000  Uiso   1.00
C36    C     0.95137   0.50121   0.59785   0.00000  Uiso   1.00
C37    C     0.04863   0.54984   0.59785   0.00000  Uiso   1.00
C38    C     0.45016   0.49879   0.59785   0.00000  Uiso   1.00
C39    C     0.50121   0.95137   0.59785   0.00000  Uiso   1.00
C40    C     0.95137   0.45016   0.59785   0.00000  Uiso   1.00
C41    C     0.54984   0.50121   0.59785   0.00000  Uiso   1.00
C42    C     0.49879   0.04863   0.59785   0.00000  Uiso   1.00
C43    C     0.54984   0.04863   0.40215   0.00000  Uiso   1.00
C44    C     0.49879   0.45016   0.40215   0.00000  Uiso   1.00
C45    C     0.95137   0.50121   0.40215   0.00000  Uiso   1.00
C46    C     0.45016   0.95137   0.40215   0.00000  Uiso   1.00
C47    C     0.50121   0.54984   0.40215   0.00000  Uiso   1.00
C48    C     0.04863   0.49879   0.40215   0.00000  Uiso   1.00
H49    H     0.90622   0.36613   0.36114   0.00000  Uiso   1.00
H50    H     0.63387   0.54009   0.36114   0.00000  Uiso   1.00
H51    H     0.45991   0.09378   0.36114   0.00000  Uiso   1.00
H52    H     0.09378   0.63387   0.36114   0.00000  Uiso   1.00
H53    H     0.36613   0.45991   0.36114   0.00000  Uiso   1.00
H54    H     0.54009   0.90622   0.36114   0.00000  Uiso   1.00
H55    H     0.36613   0.90622   0.63887   0.00000  Uiso   1.00
H56    H     0.54009   0.63387   0.63887   0.00000  Uiso   1.00
H57    H     0.09378   0.45991   0.63887   0.00000  Uiso   1.00
H58    H     0.63387   0.09378   0.63887   0.00000  Uiso   1.00
H59    H     0.45991   0.36613   0.63887   0.00000  Uiso   1.00
H60    H     0.90622   0.54009   0.63887   0.00000  Uiso   1.00
H61    H     0.09378   0.63387   0.63887   0.00000  Uiso   1.00
H62    H     0.36613   0.45991   0.63887   0.00000  Uiso   1.00
H63    H     0.54009   0.90622   0.63887   0.00000  Uiso   1.00
H64    H     0.90622   0.36613   0.63887   0.00000  Uiso   1.00
H65    H     0.63387   0.54009   0.63887   0.00000  Uiso   1.00
H66    H     0.45991   0.09378   0.63887   0.00000  Uiso   1.00
H67    H     0.63387   0.09378   0.36114   0.00000  Uiso   1.00
H68    H     0.45991   0.36613   0.36114   0.00000  Uiso   1.00
H69    H     0.90622   0.54009   0.36114   0.00000  Uiso   1.00
H70    H     0.36613   0.90622   0.36114   0.00000  Uiso   1.00
H71    H     0.54009   0.63387   0.36114   0.00000  Uiso   1.00
H72    H     0.09378   0.45991   0.36114   0.00000  Uiso   1.00
C73    C     0.86351   0.40694   0.32505   0.00000  Uiso   1.00
C74    C     0.59306   0.45657   0.32505   0.00000  Uiso   1.00
C75    C     0.54343   0.13649   0.32505   0.00000  Uiso   1.00
C76    C     0.13649   0.59306   0.32505   0.00000  Uiso   1.00
C77    C     0.40694   0.54343   0.32505   0.00000  Uiso   1.00
C78    C     0.45657   0.86351   0.32505   0.00000  Uiso   1.00
C79    C     0.40694   0.86351   0.67495   0.00000  Uiso   1.00
C80    C     0.45657   0.59306   0.67495   0.00000  Uiso   1.00
C81    C     0.13649   0.54343   0.67495   0.00000  Uiso   1.00
C82    C     0.59306   0.13649   0.67495   0.00000  Uiso   1.00
C83    C     0.54343   0.40694   0.67495   0.00000  Uiso   1.00
C84    C     0.86351   0.45657   0.67495   0.00000  Uiso   1.00
C85    C     0.13649   0.59306   0.67495   0.00000  Uiso   1.00
C86    C     0.40694   0.54343   0.67495   0.00000  Uiso   1.00
C87    C     0.45657   0.86351   0.67495   0.00000  Uiso   1.00
C88    C     0.86351   0.40694   0.67495   0.00000  Uiso   1.00
C89    C     0.59306   0.45657   0.67495   0.00000  Uiso   1.00
C90    C     0.54343   0.13649   0.67495   0.00000  Uiso   1.00
C91    C     0.59306   0.13649   0.32505   0.00000  Uiso   1.00
C92    C     0.54343   0.40694   0.32505   0.00000  Uiso   1.00
C93    C     0.86351   0.45657   0.32505   0.00000  Uiso   1.00
C94    C     0.40694   0.86351   0.32505   0.00000  Uiso   1.00
C95    C     0.45657   0.59306   0.32505   0.00000  Uiso   1.00
C96    C     0.13649   0.54343   0.32505   0.00000  Uiso   1.00
C97    C     0.00000   0.44979   0.44486   0.00000  Uiso   1.00
C98    C     0.55021   0.55021   0.44486   0.00000  Uiso   1.00
C99    C     0.44979   0.00000   0.44486   0.00000  Uiso   1.00
C100   C     0.00000   0.55021   0.44486   0.00000  Uiso   1.00
C101   C     0.44979   0.44979   0.44486   0.00000  Uiso   1.00
C102   C     0.55021   0.00000   0.44486   0.00000  Uiso   1.00
C103   C     0.44979   0.00000   0.55514   0.00000  Uiso   1.00
C104   C     0.55021   0.55021   0.55514   0.00000  Uiso   1.00
C105   C     0.00000   0.44979   0.55514   0.00000  Uiso   1.00
C106   C     0.55021   0.00000   0.55514   0.00000  Uiso   1.00
C107   C     0.44979   0.44979   0.55514   0.00000  Uiso   1.00
C108   C     0.00000   0.55021   0.55514   0.00000  Uiso   1.00
C109   C     0.27513   0.63757   0.24802   0.00000  Uiso   1.00
C110   C     0.36243   0.63757   0.24802   0.00000  Uiso   1.00
C111   C     0.36243   0.72487   0.24802   0.00000  Uiso   1.00
C112   C     0.72487   0.36243   0.24802   0.00000  Uiso   1.00
C113   C     0.63757   0.36243   0.24802   0.00000  Uiso   1.00
C114   C     0.63757   0.27513   0.24802   0.00000  Uiso   1.00
C115   C     0.63757   0.27513   0.75198   0.00000  Uiso   1.00
C116   C     0.63757   0.36243   0.75198   0.00000  Uiso   1.00
C117   C     0.72487   0.36243   0.75198   0.00000  Uiso   1.00
C118   C     0.36243   0.72487   0.75198   0.00000  Uiso   1.00
C119   C     0.36243   0.63757   0.75198   0.00000  Uiso   1.00
C120   C     0.27513   0.63757   0.75198   0.00000  Uiso   1.00
C121   C     0.30449   0.60897   0.24533   0.00000  Uiso   1.00
C122   C     0.39103   0.69551   0.24533   0.00000  Uiso   1.00
C123   C     0.30449   0.69551   0.24533   0.00000  Uiso   1.00
C124   C     0.69551   0.39103   0.24533   0.00000  Uiso   1.00
C125   C     0.60897   0.30449   0.24533   0.00000  Uiso   1.00
C126   C     0.69551   0.30449   0.24533   0.00000  Uiso   1.00
C127   C     0.60897   0.30449   0.75467   0.00000  Uiso   1.00
C128   C     0.69551   0.39103   0.75467   0.00000  Uiso   1.00
C129   C     0.69551   0.30449   0.75467   0.00000  Uiso   1.00
C130   C     0.39103   0.69551   0.75467   0.00000  Uiso   1.00
C131   C     0.30449   0.60897   0.75467   0.00000  Uiso   1.00
C132   C     0.30449   0.69551   0.75467   0.00000  Uiso   1.00
H133   H     0.28349   0.71651   0.24803   0.00000  Uiso   1.00
H134   H     0.28349   0.56698   0.24803   0.00000  Uiso   1.00
H135   H     0.43303   0.71651   0.24803   0.00000  Uiso   1.00
H136   H     0.71651   0.28349   0.24803   0.00000  Uiso   1.00
H137   H     0.71651   0.43303   0.24803   0.00000  Uiso   1.00
H138   H     0.56698   0.28349   0.24803   0.00000  Uiso   1.00
H139   H     0.71651   0.28349   0.75197   0.00000  Uiso   1.00
H140   H     0.56698   0.28349   0.75197   0.00000  Uiso   1.00
H141   H     0.71651   0.43303   0.75197   0.00000  Uiso   1.00
H142   H     0.28349   0.71651   0.75197   0.00000  Uiso   1.00
H143   H     0.43303   0.71651   0.75197   0.00000  Uiso   1.00
H144   H     0.28349   0.56698   0.75197   0.00000  Uiso   1.00
H145   H     0.00000   0.41259   0.42263   0.00000  Uiso   1.00
H146   H     0.58741   0.58741   0.42263   0.00000  Uiso   1.00
H147   H     0.41259   0.00000   0.42263   0.00000  Uiso   1.00
H148   H     0.00000   0.58741   0.42263   0.00000  Uiso   1.00
H149   H     0.41259   0.41259   0.42263   0.00000  Uiso   1.00
H150   H     0.58741   0.00000   0.42263   0.00000  Uiso   1.00
H151   H     0.41259   0.00000   0.57737   0.00000  Uiso   1.00
H152   H     0.58741   0.58741   0.57737   0.00000  Uiso   1.00
H153   H     0.00000   0.41259   0.57737   0.00000  Uiso   1.00
H154   H     0.58741   0.00000   0.57737   0.00000  Uiso   1.00
H155   H     0.41259   0.41259   0.57737   0.00000  Uiso   1.00
H156   H     0.00000   0.58741   0.57737   0.00000  Uiso   1.00
O157   O     0.18331   0.54960   0.28912   0.00000  Uiso   1.00
O158   O     0.45040   0.63372   0.28912   0.00000  Uiso   1.00
O159   O     0.36628   0.81669   0.28912   0.00000  Uiso   1.00
O160   O     0.81669   0.45040   0.28912   0.00000  Uiso   1.00
O161   O     0.54960   0.36628   0.28912   0.00000  Uiso   1.00
O162   O     0.63372   0.18331   0.28912   0.00000  Uiso   1.00
O163   O     0.54960   0.18332   0.71088   0.00000  Uiso   1.00
O164   O     0.63372   0.45040   0.71088   0.00000  Uiso   1.00
O165   O     0.81669   0.36628   0.71088   0.00000  Uiso   1.00
O166   O     0.45040   0.81669   0.71088   0.00000  Uiso   1.00
O167   O     0.36628   0.54960   0.71088   0.00000  Uiso   1.00
O168   O     0.18331   0.63372   0.71088   0.00000  Uiso   1.00
O169   O     0.81669   0.45040   0.71088   0.00000  Uiso   1.00
O170   O     0.54960   0.36628   0.71088   0.00000  Uiso   1.00
O171   O     0.63372   0.18331   0.71088   0.00000  Uiso   1.00
O172   O     0.18331   0.54960   0.71088   0.00000  Uiso   1.00
O173   O     0.45040   0.63372   0.71088   0.00000  Uiso   1.00
O174   O     0.36628   0.81669   0.71088   0.00000  Uiso   1.00
O175   O     0.45040   0.81669   0.28912   0.00000  Uiso   1.00
O176   O     0.36628   0.54960   0.28912   0.00000  Uiso   1.00
O177   O     0.18331   0.63372   0.28912   0.00000  Uiso   1.00
O178   O     0.54960   0.18332   0.28912   0.00000  Uiso   1.00
O179   O     0.63372   0.45040   0.28912   0.00000  Uiso   1.00
O180   O     0.81669   0.36628   0.28912   0.00000  Uiso   1.00
B181   B     0.78452   0.39226   0.27031   0.00000  Uiso   1.00
B182   B     0.60774   0.39226   0.27031   0.00000  Uiso   1.00
B183   B     0.60774   0.21548   0.27031   0.00000  Uiso   1.00
B184   B     0.21548   0.60774   0.27031   0.00000  Uiso   1.00
B185   B     0.39226   0.60774   0.27031   0.00000  Uiso   1.00
B186   B     0.39226   0.78452   0.27031   0.00000  Uiso   1.00
B187   B     0.39226   0.78452   0.72969   0.00000  Uiso   1.00
B188   B     0.39226   0.60774   0.72969   0.00000  Uiso   1.00
B189   B     0.21548   0.60774   0.72969   0.00000  Uiso   1.00
B190   B     0.60774   0.21548   0.72969   0.00000  Uiso   1.00
B191   B     0.60774   0.39226   0.72969   0.00000  Uiso   1.00
B192   B     0.78452   0.39226   0.72969   0.00000  Uiso   1.00
loop_
_geom_bond_atom_site_label_1
_geom_bond_atom_site_label_2
_geom_bond_distance
_geom_bond_site_symmetry_2
_ccdc_geom_bond_type
C1     C25     1.414   .     S
C1     H49     1.019   .     S
C1     C73     1.400   .     D
C2     C26     1.414   .     S
C2     H50     1.019   .     S
C2     C74     1.400   .     D
C3     C27     1.414   .     S
C3     H51     1.019   .     S
C3     C75     1.400   .     D
C4     C28     1.414   .     S
C4     H52     1.019   .     S
C4     C76     1.400   .     D
C5     C29     1.414   .     S
C5     H53     1.019   .     S
C5     C77     1.400   .     D
C6     C30     1.414   .     S
C6     H54     1.019   .     S
C6     C78     1.400   .     D
C7     C31     1.414   .     S
C7     H55     1.019   .     S
C7     C79     1.400   .     D
C8     C32     1.414   .     S
C8     H56     1.019   .     S
C8     C80     1.400   .     D
C9     C33     1.414   .     S
C9     H57     1.019   .     S
C9     C81     1.400   .     D
C10    C34     1.414   .     S
C10    H58     1.019   .     S
C10    C82     1.400   .     D
C11    C35     1.414   .     S
C11    H59     1.019   .     S
C11    C83     1.400   .     D
C12    C36     1.414   .     S
C12    H60     1.019   .     S
C12    C84     1.400   .     D
C13    C37     1.414   .     S
C13    H61     1.019   .     S
C13    C85     1.400   .     D
C14    C38     1.414   .     S
C14    H62     1.019   .     S
C14    C86     1.400   .     D
C15    C39     1.414   .     S
C15    H63     1.019   .     S
C15    C87     1.400   .     D
C16    C40     1.414   .     S
C16    H64     1.019   .     S
C16    C88     1.400   .     D
C17    C41     1.414   .     S
C17    H65     1.019   .     S
C17    C89     1.400   .     D
C18    C42     1.414   .     S
C18    H66     1.019   .     S
C18    C90     1.400   .     D
C19    C43     1.414   .     S
C19    H67     1.019   .     S
C19    C91     1.400   .     D
C20    C44     1.414   .     S
C20    H68     1.019   .     S
C20    C92     1.400   .     D
C21    C45     1.414   .     S
C21    H69     1.019   .     S
C21    C93     1.400   .     D
C22    C46     1.414   .     S
C22    H70     1.019   .     S
C22    C94     1.400   .     D
C23    C47     1.414   .     S
C23    H71     1.019   .     S
C23    C95     1.400   .     D
C24    C48     1.414   .     S
C24    H72     1.019   .     S
C24    C96     1.400   .     D
C25    C45     1.437   .     D
C25    C97     1.507   1_655 S
C26    C44     1.437   .     D
C26    C98     1.507   .     S
C27    C43     1.437   .     D
C27    C99     1.507   .     S
C28    C48     1.437   .     D
C28    C100    1.507   .     S
C29    C47     1.437   .     D
C29    C101    1.507   .     S
C30    C46     1.437   .     D
C30    C102    1.507   1_565 S
C31    C39     1.437   .     D
C31    C103    1.507   1_565 S
C32    C38     1.437   .     D
C32    C104    1.507   .     S
C33    C37     1.437   .     D
C33    C105    1.507   .     S
C34    C42     1.437   .     D
C34    C106    1.507   .     S
C35    C41     1.437   .     D
C35    C107    1.507   .     S
C36    C40     1.437   .     D
C36    C108    1.507   1_655 S
C37    C108    1.507   .     S
C38    C107    1.507   .     S
C39    C106    1.507   1_565 S
C40    C105    1.507   1_655 S
C41    C104    1.507   .     S
C42    C103    1.507   .     S
C43    C102    1.507   .     S
C44    C101    1.507   .     S
C45    C100    1.507   1_655 S
C46    C99     1.507   1_565 S
C47    C98     1.507   .     S
C48    C97     1.507   .     S
C73    C93     1.397   .     S
C73    O180    1.346   .     S
C74    C92     1.397   .     S
C74    O179    1.346   .     S
C75    C91     1.397   .     S
C75    O178    1.346   .     S
C76    C96     1.397   .     S
C76    O177    1.346   .     S
C77    C95     1.397   .     S
C77    O176    1.346   .     S
C78    C94     1.397   .     S
C78    O175    1.346   .     S
C79    C87     1.397   .     S
C79    O174    1.346   .     S
C80    C86     1.397   .     S
C80    O173    1.346   .     S
C81    C85     1.397   .     S
C81    O172    1.346   .     S
C82    C90     1.397   .     S
C82    O171    1.346   .     S
C83    C89     1.397   .     S
C83    O170    1.346   .     S
C84    C88     1.397   .     S
C84    O169    1.346   .     S
C85    O168    1.346   .     S
C86    O167    1.346   .     S
C87    O166    1.346   .     S
C88    O165    1.346   .     S
C89    O164    1.346   .     S
C90    O163    1.346   .     S
C91    O162    1.346   .     S
C92    O161    1.346   .     S
C93    O160    1.346   .     S
C94    O159    1.346   .     S
C95    O158    1.346   .     S
C96    O157    1.346   .     S
C97    C25     1.507   1_455 S
C97    C105    1.601   .     S
C97    H145    1.096   .     S
C98    C104    1.601   .     S
C98    H146    1.096   .     S
C99    C46     1.507   1_545 S
C99    C103    1.601   .     S
C99    H147    1.096   .     S
C100   C45     1.507   1_455 S
C100   C108    1.601   .     S
C100   H148    1.096   .     S
C101   C107    1.601   .     S
C101   H149    1.096   .     S
C102   C30     1.507   1_545 S
C102   C106    1.601   .     S
C102   H150    1.096   .     S
C103   C31     1.507   1_545 S
C103   H151    1.096   .     S
C104   H152    1.096   .     S
C105   C40     1.507   1_455 S
C105   H153    1.096   .     S
C106   C39     1.507   1_545 S
C106   H154    1.096   .     S
C107   H155    1.096   .     S
C108   C36     1.507   1_455 S
C108   H156    1.096   .     S
C109   C121    1.413   .     D
C109   C123    1.413   .     S
C109   B184    1.490   .     S
C110   C121    1.413   .     S
C110   C122    1.413   .     D
C110   B185    1.490   .     S
C111   C122    1.413   .     S
C111   C123    1.413   .     D
C111   B186    1.490   .     S
C112   C124    1.413   .     D
C112   C126    1.413   .     S
C112   B181    1.490   .     S
C113   C124    1.413   .     S
C113   C125    1.413   .     D
C113   B182    1.490   .     S
C114   C125    1.413   .     S
C114   C126    1.413   .     D
C114   B183    1.490   .     S
C115   C127    1.413   .     S
C115   C129    1.413   .     D
C115   B190    1.490   .     S
C116   C127    1.413   .     D
C116   C128    1.413   .     S
C116   B191    1.490   .     S
C117   C128    1.413   .     D
C117   C129    1.413   .     S
C117   B192    1.490   .     S
C118   C130    1.413   .     S
C118   C132    1.413   .     D
C118   B187    1.490   .     S
C119   C130    1.413   .     D
C119   C131    1.413   .     S
C119   B188    1.490   .     S
C120   C131    1.413   .     D
C120   C132    1.413   .     S
C120   B189    1.490   .     S
C121   H134    1.024   .     S
C122   H135    1.025   .     S
C123   H133    1.024   .     S
C124   H137    1.025   .     S
C125   H138    1.024   .     S
C126   H136    1.024   .     S
C127   H140    1.024   .     S
C128   H141    1.025   .     S
C129   H139    1.024   .     S
C130   H143    1.025   .     S
C131   H144    1.024   .     S
C132   H142    1.024   .     S
O157   B184    1.446   .     S
O158   B185    1.446   .     S
O159   B186    1.446   .     S
O160   B181    1.446   .     S
O161   B182    1.446   .     S
O162   B183    1.446   .     S
O163   B190    1.446   .     S
O164   B191    1.446   .     S
O165   B192    1.446   .     S
O166   B187    1.446   .     S
O167   B188    1.446   .     S
O168   B189    1.446   .     S
O169   B192    1.446   .     S
O170   B191    1.446   .     S
O171   B190    1.446   .     S
O172   B189    1.446   .     S
O173   B188    1.446   .     S
O174   B187    1.446   .     S
O175   B186    1.446   .     S
O176   B185    1.446   .     S
O177   B184    1.446   .     S
O178   B183    1.446   .     S
O179   B182    1.446   .     S
O180   B181    1.446   .     S
