data_354
_audit_creation_date              2023-09-08
_audit_creation_method            'Materials Studio'
_symmetry_space_group_name_H-M    'P1'
_symmetry_Int_Tables_number       1
_symmetry_cell_setting            triclinic
loop_
_symmetry_equiv_pos_as_xyz
  x,y,z
_cell_length_a                    30.3330
_cell_length_b                    30.3330
_cell_length_c                    3.3623
_cell_angle_alpha                 90.0000
_cell_angle_beta                  90.0000
_cell_angle_gamma                 120.0000
loop_
_atom_site_label
_atom_site_type_symbol
_atom_site_fract_x
_atom_site_fract_y
_atom_site_fract_z
_atom_site_U_iso_or_equiv
_atom_site_adp_type
_atom_site_occupancy
B1     B     0.21964   0.60982   0.50000   0.00000  Uiso   1.00
C2     C     0.27892   0.63946   0.50000   0.00000  Uiso   1.00
B3     B     0.39018   0.60982   0.50000   0.00000  Uiso   1.00
C4     C     0.36054   0.63946   0.50000   0.00000  Uiso   1.00
B5     B     0.39018   0.78036   0.50000   0.00000  Uiso   1.00
C6     C     0.36054   0.72108   0.50000   0.00000  Uiso   1.00
B7     B     0.78036   0.39018   0.50000   0.00000  Uiso   1.00
C8     C     0.72108   0.36054   0.50000   0.00000  Uiso   1.00
B9     B     0.60982   0.39018   0.50000   0.00000  Uiso   1.00
C10    C     0.63946   0.36054   0.50000   0.00000  Uiso   1.00
B11    B     0.60982   0.21964   0.50000   0.00000  Uiso   1.00
C12    C     0.63946   0.27892   0.50000   0.00000  Uiso   1.00
O13    O     0.18960   0.55612   0.50000   0.00000  Uiso   1.00
C14    C     0.13934   0.54594   0.50000   0.00000  Uiso   1.00
C15    C     0.09536   0.49902   0.50000   0.00000  Uiso   1.00
C16    C     0.04736   0.49956   0.50000   0.00000  Uiso   1.00
H17    H     0.09703   0.46426   0.50000   0.00000  Uiso   1.00
O18    O     0.44388   0.63348   0.50000   0.00000  Uiso   1.00
C19    C     0.45406   0.59340   0.50000   0.00000  Uiso   1.00
C20    C     0.50098   0.59634   0.50000   0.00000  Uiso   1.00
C21    C     0.50044   0.54780   0.50000   0.00000  Uiso   1.00
H22    H     0.53574   0.63276   0.50000   0.00000  Uiso   1.00
O23    O     0.36652   0.81040   0.50000   0.00000  Uiso   1.00
C24    C     0.40660   0.86066   0.50000   0.00000  Uiso   1.00
C25    C     0.40366   0.90464   0.50000   0.00000  Uiso   1.00
C26    C     0.45220   0.95264   0.50000   0.00000  Uiso   1.00
H27    H     0.36723   0.90297   0.50000   0.00000  Uiso   1.00
O28    O     0.81040   0.44388   0.50000   0.00000  Uiso   1.00
C29    C     0.86066   0.45406   0.50000   0.00000  Uiso   1.00
C30    C     0.90464   0.50098   0.50000   0.00000  Uiso   1.00
C31    C     0.95264   0.50044   0.50000   0.00000  Uiso   1.00
H32    H     0.90297   0.53574   0.50000   0.00000  Uiso   1.00
O33    O     0.55612   0.36652   0.50000   0.00000  Uiso   1.00
C34    C     0.54594   0.40660   0.50000   0.00000  Uiso   1.00
C35    C     0.49902   0.40366   0.50000   0.00000  Uiso   1.00
C36    C     0.49956   0.45220   0.50000   0.00000  Uiso   1.00
H37    H     0.46426   0.36723   0.50000   0.00000  Uiso   1.00
O38    O     0.63348   0.18960   0.50000   0.00000  Uiso   1.00
C39    C     0.59340   0.13934   0.50000   0.00000  Uiso   1.00
C40    C     0.59634   0.09536   0.50000   0.00000  Uiso   1.00
C41    C     0.54780   0.04736   0.50000   0.00000  Uiso   1.00
H42    H     0.63277   0.09703   0.50000   0.00000  Uiso   1.00
O43    O     0.55612   0.18960   0.50000   0.00000  Uiso   1.00
C44    C     0.54594   0.13934   0.50000   0.00000  Uiso   1.00
C45    C     0.49902   0.09536   0.50000   0.00000  Uiso   1.00
C46    C     0.49956   0.04736   0.50000   0.00000  Uiso   1.00
H47    H     0.46426   0.09703   0.50000   0.00000  Uiso   1.00
O48    O     0.63348   0.44388   0.50000   0.00000  Uiso   1.00
C49    C     0.59340   0.45406   0.50000   0.00000  Uiso   1.00
C50    C     0.59634   0.50098   0.50000   0.00000  Uiso   1.00
C51    C     0.54780   0.50044   0.50000   0.00000  Uiso   1.00
H52    H     0.63277   0.53574   0.50000   0.00000  Uiso   1.00
O53    O     0.81040   0.36652   0.50000   0.00000  Uiso   1.00
C54    C     0.86066   0.40660   0.50000   0.00000  Uiso   1.00
C55    C     0.90464   0.40366   0.50000   0.00000  Uiso   1.00
C56    C     0.95264   0.45220   0.50000   0.00000  Uiso   1.00
H57    H     0.90297   0.36723   0.50000   0.00000  Uiso   1.00
O58    O     0.44388   0.81040   0.50000   0.00000  Uiso   1.00
C59    C     0.45406   0.86066   0.50000   0.00000  Uiso   1.00
C60    C     0.50098   0.90464   0.50000   0.00000  Uiso   1.00
C61    C     0.50044   0.95264   0.50000   0.00000  Uiso   1.00
H62    H     0.53574   0.90297   0.50000   0.00000  Uiso   1.00
O63    O     0.36652   0.55612   0.50000   0.00000  Uiso   1.00
C64    C     0.40660   0.54594   0.50000   0.00000  Uiso   1.00
C65    C     0.40366   0.49902   0.50000   0.00000  Uiso   1.00
C66    C     0.45220   0.49956   0.50000   0.00000  Uiso   1.00
H67    H     0.36723   0.46426   0.50000   0.00000  Uiso   1.00
O68    O     0.18960   0.63348   0.50000   0.00000  Uiso   1.00
C69    C     0.13934   0.59340   0.50000   0.00000  Uiso   1.00
C70    C     0.09536   0.59634   0.50000   0.00000  Uiso   1.00
C71    C     0.04736   0.54780   0.50000   0.00000  Uiso   1.00
H72    H     0.09703   0.63276   0.50000   0.00000  Uiso   1.00
C73    C     0.30677   0.69323   0.50000   0.00000  Uiso   1.00
H74    H     0.28605   0.71395   0.50000   0.00000  Uiso   1.00
C75    C     0.30677   0.61354   0.50000   0.00000  Uiso   1.00
H76    H     0.28605   0.57210   0.50000   0.00000  Uiso   1.00
C77    C     0.38646   0.69323   0.50000   0.00000  Uiso   1.00
H78    H     0.42790   0.71395   0.50000   0.00000  Uiso   1.00
C79    C     0.69323   0.30677   0.50000   0.00000  Uiso   1.00
H80    H     0.71395   0.28605   0.50000   0.00000  Uiso   1.00
C81    C     0.69323   0.38646   0.50000   0.00000  Uiso   1.00
H82    H     0.71395   0.42790   0.50000   0.00000  Uiso   1.00
C83    C     0.61354   0.30677   0.50000   0.00000  Uiso   1.00
H84    H     0.57210   0.28605   0.50000   0.00000  Uiso   1.00
C85    C     0.54631   0.54631   0.50000   0.00000  Uiso   1.00
H86    H     0.58201   0.58201   0.50000   0.00000  Uiso   1.00
C87    C     0.45369   0.00000   0.50000   0.00000  Uiso   1.00
H88    H     0.41799   0.00000   0.50000   0.00000  Uiso   1.00
C89    C     0.00000   0.45369   0.50000   0.00000  Uiso   1.00
H90    H     0.00000   0.41799   0.50000   0.00000  Uiso   1.00
C91    C     0.45369   0.45369   0.50000   0.00000  Uiso   1.00
H92    H     0.41799   0.41799   0.50000   0.00000  Uiso   1.00
C93    C     0.54631   0.00000   0.50000   0.00000  Uiso   1.00
H94    H     0.58201   0.00000   0.50000   0.00000  Uiso   1.00
C95    C     0.00000   0.54631   0.50000   0.00000  Uiso   1.00
H96    H     0.00000   0.58201   0.50000   0.00000  Uiso   1.00
loop_
_geom_bond_atom_site_label_1
_geom_bond_atom_site_label_2
_geom_bond_distance
_geom_bond_site_symmetry_2
_ccdc_geom_bond_type
B1     C2      1.557   .     S
B1     O13     1.414   .     S
B1     O68     1.414   .     S
C2     C73     1.413   .     D
C2     C75     1.413   .     S
B3     C4      1.557   .     S
B3     O18     1.414   .     S
B3     O63     1.414   .     S
C4     C75     1.413   .     D
C4     C77     1.413   .     S
B5     C6      1.557   .     S
B5     O23     1.414   .     S
B5     O58     1.414   .     S
C6     C73     1.413   .     S
C6     C77     1.413   .     D
B7     C8      1.557   .     S
B7     O28     1.414   .     S
B7     O53     1.414   .     S
C8     C79     1.413   .     S
C8     C81     1.413   .     D
B9     C10     1.557   .     S
B9     O33     1.414   .     S
B9     O48     1.414   .     S
C10    C81     1.413   .     S
C10    C83     1.413   .     D
B11    C12     1.557   .     S
B11    O38     1.414   .     S
B11    O43     1.414   .     S
C12    C79     1.413   .     D
C12    C83     1.413   .     S
O13    C14     1.396   .     S
C14    C15     1.381   .     S
C14    C69     1.440   .     D
C15    C16     1.464   .     D
C15    H17     1.080   .     S
C16    C71     1.463   .     S
C16    C89     1.415   .     S
O18    C19     1.396   .     S
C19    C20     1.381   .     S
C19    C64     1.440   .     D
C20    C21     1.464   .     D
C20    H22     1.080   .     S
C21    C66     1.463   .     S
C21    C85     1.415   .     S
O23    C24     1.396   .     S
C24    C25     1.381   .     D
C24    C59     1.440   .     S
C25    C26     1.464   .     S
C25    H27     1.080   .     S
C26    C61     1.463   .     S
C26    C87     1.414   1_565 D
O28    C29     1.396   .     S
C29    C30     1.381   .     D
C29    C54     1.440   .     S
C30    C31     1.464   .     S
C30    H32     1.081   .     S
C31    C56     1.463   .     S
C31    C95     1.414   1_655 D
O33    C34     1.396   .     S
C34    C35     1.381   .     D
C34    C49     1.440   .     S
C35    C36     1.464   .     S
C35    H37     1.080   .     S
C36    C51     1.463   .     S
C36    C91     1.415   .     D
O38    C39     1.396   .     S
C39    C40     1.381   .     D
C39    C44     1.440   .     S
C40    C41     1.464   .     S
C40    H42     1.080   .     S
C41    C46     1.463   .     D
C41    C93     1.415   .     S
O43    C44     1.396   .     S
C44    C45     1.381   .     D
C45    C46     1.464   .     S
C45    H47     1.080   .     S
C46    C87     1.415   .     S
O48    C49     1.396   .     S
C49    C50     1.381   .     D
C50    C51     1.464   .     S
C50    H52     1.080   .     S
C51    C85     1.415   .     D
O53    C54     1.396   .     S
C54    C55     1.381   .     D
C55    C56     1.464   .     S
C55    H57     1.080   .     S
C56    C89     1.414   1_655 D
O58    C59     1.396   .     S
C59    C60     1.381   .     D
C60    C61     1.464   .     S
C60    H62     1.081   .     S
C61    C93     1.414   1_565 D
O63    C64     1.396   .     S
C64    C65     1.381   .     S
C65    C66     1.464   .     D
C65    H67     1.080   .     S
C66    C91     1.415   .     S
O68    C69     1.396   .     S
C69    C70     1.381   .     S
C70    C71     1.464   .     D
C70    H72     1.080   .     S
C71    C95     1.415   .     S
C73    H74     1.089   .     S
C75    H76     1.089   .     S
C77    H78     1.089   .     S
C79    H80     1.089   .     S
C81    H82     1.089   .     S
C83    H84     1.089   .     S
C85    H86     1.083   .     S
C87    C26     1.414   1_545 D
C87    H88     1.083   .     S
C89    C56     1.414   1_455 D
C89    H90     1.083   .     S
C91    H92     1.083   .     S
C93    C61     1.414   1_545 D
C93    H94     1.083   .     S
C95    C31     1.414   1_455 D
C95    H96     1.083   .     S
