data_355
_audit_creation_date              2023-09-08
_audit_creation_method            'Materials Studio'
_symmetry_space_group_name_H-M    'P1'
_symmetry_Int_Tables_number       1
_symmetry_cell_setting            triclinic
loop_
_symmetry_equiv_pos_as_xyz
  x,y,z
_cell_length_a                    29.6551
_cell_length_b                    29.6551
_cell_length_c                    3.4469
_cell_angle_alpha                 90.0000
_cell_angle_beta                  90.0000
_cell_angle_gamma                 120.0000
loop_
_atom_site_label
_atom_site_type_symbol
_atom_site_fract_x
_atom_site_fract_y
_atom_site_fract_z
_atom_site_U_iso_or_equiv
_atom_site_adp_type
_atom_site_occupancy
N1     N     0.39261   0.58453   0.00000   0.00000  Uiso   1.00
C2     C     0.31638   0.61442   0.00000   0.00000  Uiso   1.00
C3     C     0.40696   0.63276   0.00000   0.00000  Uiso   1.00
C4     C     0.42476   0.56216   0.00000   0.00000  Uiso   1.00
C5     C     0.47820   0.59097   0.00000   0.00000  Uiso   1.00
C6     C     0.50731   0.56690   0.00000   0.00000  Uiso   1.00
C7     C     0.48422   0.51309   0.00000   0.00000  Uiso   1.00
C8     C     0.43027   0.48490   0.00000   0.00000  Uiso   1.00
C9     C     0.40138   0.50916   0.00000   0.00000  Uiso   1.00
C10    C     0.36893   0.64967   0.00000   0.00000  Uiso   1.00
H11    H     0.63982   0.51368   0.00000   0.00000  Uiso   1.00
H12    H     0.59104   0.55607   0.00000   0.00000  Uiso   1.00
H13    H     0.54795   0.59176   0.00000   0.00000  Uiso   1.00
H14    H     0.49825   0.63209   0.00000   0.00000  Uiso   1.00
H15    H     0.44681   0.66156   0.00000   0.00000  Uiso   1.00
H16    H     0.42609   0.72915   0.00000   0.00000  Uiso   1.00
N17    N     0.41547   0.80808   0.00000   0.00000  Uiso   1.00
C18    C     0.38558   0.70196   0.00000   0.00000  Uiso   1.00
C19    C     0.36724   0.77420   0.00000   0.00000  Uiso   1.00
C20    C     0.43784   0.86260   0.00000   0.00000  Uiso   1.00
C21    C     0.40903   0.88723   0.00000   0.00000  Uiso   1.00
C22    C     0.43310   0.94041   0.00000   0.00000  Uiso   1.00
C23    C     0.48691   0.97113   0.00000   0.00000  Uiso   1.00
C24    C     0.51510   0.94537   0.00000   0.00000  Uiso   1.00
C25    C     0.49084   0.89222   0.00000   0.00000  Uiso   1.00
C26    C     0.35033   0.71926   0.00000   0.00000  Uiso   1.00
H27    H     0.48632   0.12614   0.00000   0.00000  Uiso   1.00
H28    H     0.44393   0.03497   0.00000   0.00000  Uiso   1.00
H29    H     0.40824   0.95619   0.00000   0.00000  Uiso   1.00
H30    H     0.36791   0.86616   0.00000   0.00000  Uiso   1.00
H31    H     0.33844   0.78525   0.00000   0.00000  Uiso   1.00
H32    H     0.27085   0.69694   0.00000   0.00000  Uiso   1.00
N33    N     0.19192   0.60739   0.00000   0.00000  Uiso   1.00
C34    C     0.29804   0.68362   0.00000   0.00000  Uiso   1.00
C35    C     0.22580   0.59304   0.00000   0.00000  Uiso   1.00
C36    C     0.13740   0.57524   0.00000   0.00000  Uiso   1.00
C37    C     0.11277   0.52180   0.00000   0.00000  Uiso   1.00
C38    C     0.05959   0.49269   0.00000   0.00000  Uiso   1.00
C39    C     0.02887   0.51578   0.00000   0.00000  Uiso   1.00
C40    C     0.05463   0.56973   0.00000   0.00000  Uiso   1.00
C41    C     0.10778   0.59862   0.00000   0.00000  Uiso   1.00
C42    C     0.28074   0.63107   0.00000   0.00000  Uiso   1.00
H43    H     0.87386   0.36018   0.00000   0.00000  Uiso   1.00
H44    H     0.96503   0.40896   0.00000   0.00000  Uiso   1.00
H45    H     0.04381   0.45205   0.00000   0.00000  Uiso   1.00
H46    H     0.13384   0.50175   0.00000   0.00000  Uiso   1.00
H47    H     0.21475   0.55319   0.00000   0.00000  Uiso   1.00
H48    H     0.30306   0.57391   0.00000   0.00000  Uiso   1.00
N49    N     0.60739   0.41547   0.00000   0.00000  Uiso   1.00
C50    C     0.68362   0.38558   0.00000   0.00000  Uiso   1.00
C51    C     0.59304   0.36724   0.00000   0.00000  Uiso   1.00
C52    C     0.57524   0.43784   0.00000   0.00000  Uiso   1.00
C53    C     0.52180   0.40903   0.00000   0.00000  Uiso   1.00
C54    C     0.49269   0.43310   0.00000   0.00000  Uiso   1.00
C55    C     0.51578   0.48691   0.00000   0.00000  Uiso   1.00
C56    C     0.56973   0.51510   0.00000   0.00000  Uiso   1.00
C57    C     0.59862   0.49084   0.00000   0.00000  Uiso   1.00
C58    C     0.63107   0.35033   0.00000   0.00000  Uiso   1.00
H59    H     0.36018   0.48632   0.00000   0.00000  Uiso   1.00
H60    H     0.40896   0.44393   0.00000   0.00000  Uiso   1.00
H61    H     0.45205   0.40824   0.00000   0.00000  Uiso   1.00
H62    H     0.50175   0.36791   0.00000   0.00000  Uiso   1.00
H63    H     0.55319   0.33844   0.00000   0.00000  Uiso   1.00
H64    H     0.57391   0.27085   0.00000   0.00000  Uiso   1.00
N65    N     0.58453   0.19192   0.00000   0.00000  Uiso   1.00
C66    C     0.61442   0.29804   0.00000   0.00000  Uiso   1.00
C67    C     0.63276   0.22580   0.00000   0.00000  Uiso   1.00
C68    C     0.56216   0.13740   0.00000   0.00000  Uiso   1.00
C69    C     0.59097   0.11277   0.00000   0.00000  Uiso   1.00
C70    C     0.56690   0.05959   0.00000   0.00000  Uiso   1.00
C71    C     0.51309   0.02887   0.00000   0.00000  Uiso   1.00
C72    C     0.48490   0.05463   0.00000   0.00000  Uiso   1.00
C73    C     0.50916   0.10778   0.00000   0.00000  Uiso   1.00
C74    C     0.64967   0.28074   0.00000   0.00000  Uiso   1.00
H75    H     0.51368   0.87386   0.00000   0.00000  Uiso   1.00
H76    H     0.55607   0.96503   0.00000   0.00000  Uiso   1.00
H77    H     0.59176   0.04381   0.00000   0.00000  Uiso   1.00
H78    H     0.63209   0.13384   0.00000   0.00000  Uiso   1.00
H79    H     0.66156   0.21475   0.00000   0.00000  Uiso   1.00
H80    H     0.72915   0.30306   0.00000   0.00000  Uiso   1.00
N81    N     0.80808   0.39261   0.00000   0.00000  Uiso   1.00
C82    C     0.70196   0.31638   0.00000   0.00000  Uiso   1.00
C83    C     0.77420   0.40696   0.00000   0.00000  Uiso   1.00
C84    C     0.86260   0.42476   0.00000   0.00000  Uiso   1.00
C85    C     0.88723   0.47820   0.00000   0.00000  Uiso   1.00
C86    C     0.94041   0.50731   0.00000   0.00000  Uiso   1.00
C87    C     0.97113   0.48422   0.00000   0.00000  Uiso   1.00
C88    C     0.94537   0.43027   0.00000   0.00000  Uiso   1.00
C89    C     0.89222   0.40138   0.00000   0.00000  Uiso   1.00
C90    C     0.71926   0.36893   0.00000   0.00000  Uiso   1.00
H91    H     0.12614   0.63982   0.00000   0.00000  Uiso   1.00
H92    H     0.03497   0.59104   0.00000   0.00000  Uiso   1.00
H93    H     0.95619   0.54795   0.00000   0.00000  Uiso   1.00
H94    H     0.86616   0.49825   0.00000   0.00000  Uiso   1.00
H95    H     0.78525   0.44681   0.00000   0.00000  Uiso   1.00
H96    H     0.69694   0.42609   0.00000   0.00000  Uiso   1.00
loop_
_geom_bond_atom_site_label_1
_geom_bond_atom_site_label_2
_geom_bond_distance
_geom_bond_site_symmetry_2
_ccdc_geom_bond_type
N1     C3      1.272   .     D
N1     C4      1.408   .     S
C2     C10     1.376   .     D
C2     C42     1.372   .     S
C2     H48     1.061   .     S
C3     C10     1.445   .     S
C3     H15     1.057   .     S
C4     C5      1.374   .     S
C4     C9      1.364   .     D
C5     C6      1.368   .     D
C5     H14     1.056   .     S
C6     C7      1.387   .     S
C6     H13     1.052   .     S
C7     C8      1.386   .     D
C7     C55     1.485   .     S
C8     C9      1.367   .     S
C8     H60     1.052   .     S
C9     H59     1.060   .     S
C10    C18     1.372   .     S
H11    C57     1.060   .     S
H12    C56     1.052   .     S
H16    C18     1.061   .     S
N17    C19     1.272   .     D
N17    C20     1.408   .     S
C18    C26     1.376   .     D
C19    C26     1.445   .     S
C19    H31     1.057   .     S
C20    C21     1.374   .     D
C20    C25     1.364   .     S
C21    C22     1.368   .     S
C21    H30     1.056   .     S
C22    C23     1.387   .     D
C22    H29     1.052   .     S
C23    C24     1.386   .     S
C23    C71     1.485   1_565 S
C24    C25     1.367   .     D
C24    H76     1.052   .     S
C25    H75     1.060   .     S
C26    C34     1.372   .     S
H27    C73     1.060   .     S
H28    C72     1.052   .     S
H32    C34     1.061   .     S
N33    C35     1.272   .     D
N33    C36     1.408   .     S
C34    C42     1.376   .     D
C35    C42     1.445   .     S
C35    H47     1.057   .     S
C36    C37     1.374   .     D
C36    C41     1.364   .     S
C37    C38     1.368   .     S
C37    H46     1.056   .     S
C38    C39     1.387   .     D
C38    H45     1.052   .     S
C39    C40     1.386   .     S
C39    C87     1.485   1_455 S
C40    C41     1.367   .     D
C40    H92     1.052   .     S
C41    H91     1.060   .     S
H43    C89     1.060   .     S
H44    C88     1.052   .     S
N49    C51     1.272   .     D
N49    C52     1.408   .     S
C50    C58     1.376   .     D
C50    C90     1.372   .     S
C50    H96     1.061   .     S
C51    C58     1.445   .     S
C51    H63     1.057   .     S
C52    C53     1.374   .     S
C52    C57     1.364   .     D
C53    C54     1.368   .     D
C53    H62     1.056   .     S
C54    C55     1.387   .     S
C54    H61     1.052   .     S
C55    C56     1.386   .     D
C56    C57     1.367   .     S
C58    C66     1.372   .     S
H64    C66     1.061   .     S
N65    C67     1.272   .     D
N65    C68     1.408   .     S
C66    C74     1.376   .     D
C67    C74     1.445   .     S
C67    H79     1.057   .     S
C68    C69     1.374   .     D
C68    C73     1.364   .     S
C69    C70     1.368   .     S
C69    H78     1.056   .     S
C70    C71     1.387   .     D
C70    H77     1.052   .     S
C71    C23     1.485   1_545 S
C71    C72     1.386   .     S
C72    C73     1.367   .     D
C74    C82     1.372   .     S
H80    C82     1.061   .     S
N81    C83     1.272   .     D
N81    C84     1.408   .     S
C82    C90     1.376   .     D
C83    C90     1.445   .     S
C83    H95     1.057   .     S
C84    C85     1.374   .     D
C84    C89     1.364   .     S
C85    C86     1.368   .     S
C85    H94     1.056   .     S
C86    C87     1.387   .     D
C86    H93     1.052   .     S
C87    C39     1.485   1_655 S
C87    C88     1.386   .     S
C88    C89     1.367   .     D
