data_357
_audit_creation_date              2023-09-08
_audit_creation_method            'Materials Studio'
_symmetry_space_group_name_H-M    'P1'
_symmetry_Int_Tables_number       1
_symmetry_cell_setting            triclinic
loop_
_symmetry_equiv_pos_as_xyz
  x,y,z
_cell_length_a                    29.7894
_cell_length_b                    29.7894
_cell_length_c                    5.6439
_cell_angle_alpha                 90.0000
_cell_angle_beta                  90.0000
_cell_angle_gamma                 90.0000
loop_
_atom_site_label
_atom_site_type_symbol
_atom_site_fract_x
_atom_site_fract_y
_atom_site_fract_z
_atom_site_U_iso_or_equiv
_atom_site_adp_type
_atom_site_occupancy
C1     C     0.81208   0.00000  -0.21428   0.00000  Uiso   1.00
C2     C     0.76517   0.00000  -0.21425   0.00000  Uiso   1.00
H3     H     0.83056   0.01218  -0.34376   0.00000  Uiso   1.00
H4     H     0.74615   0.01172  -0.34245   0.00000  Uiso   1.00
C5     C     0.18792   0.00000  -0.21428   0.00000  Uiso   1.00
C6     C     0.23483   0.00000  -0.21425   0.00000  Uiso   1.00
H7     H     0.16944  -0.01218  -0.34376   0.00000  Uiso   1.00
H8     H     0.25385  -0.01172  -0.34245   0.00000  Uiso   1.00
C9     C     0.00000   0.81208  -0.21428   0.00000  Uiso   1.00
C10    C     0.00000   0.76517  -0.21425   0.00000  Uiso   1.00
H11    H    -0.01217   0.83056  -0.34377   0.00000  Uiso   1.00
H12    H    -0.01171   0.74615  -0.34245   0.00000  Uiso   1.00
C13    C     0.00000   0.18792  -0.21428   0.00000  Uiso   1.00
C14    C     0.00000   0.23483  -0.21425   0.00000  Uiso   1.00
H15    H     0.01217   0.16944  -0.34377   0.00000  Uiso   1.00
H16    H     0.01171   0.25385  -0.34245   0.00000  Uiso   1.00
C17    C     0.18792   0.00000   0.21428   0.00000  Uiso   1.00
C18    C     0.23483   0.00000   0.21425   0.00000  Uiso   1.00
H19    H     0.16944   0.01217   0.34377   0.00000  Uiso   1.00
H20    H     0.25385   0.01171   0.34245   0.00000  Uiso   1.00
C21    C     0.81208   0.00000   0.21428   0.00000  Uiso   1.00
C22    C     0.76517   0.00000   0.21425   0.00000  Uiso   1.00
H23    H     0.83056  -0.01217   0.34377   0.00000  Uiso   1.00
H24    H     0.74615  -0.01171   0.34245   0.00000  Uiso   1.00
C25    C     0.00000   0.81208   0.21428   0.00000  Uiso   1.00
C26    C     0.00000   0.76517   0.21425   0.00000  Uiso   1.00
H27    H     0.01218   0.83056   0.34376   0.00000  Uiso   1.00
H28    H     0.01172   0.74615   0.34245   0.00000  Uiso   1.00
C29    C     0.00000   0.18792   0.21428   0.00000  Uiso   1.00
C30    C     0.00000   0.23483   0.21425   0.00000  Uiso   1.00
H31    H    -0.01218   0.16944   0.34376   0.00000  Uiso   1.00
H32    H    -0.01172   0.25385   0.34245   0.00000  Uiso   1.00
C33    C     0.88507   0.91763   0.00000   0.00000  Uiso   1.00
C34    C     0.90750   0.95833   0.00000   0.00000  Uiso   1.00
C35    C     0.66923   0.95831   0.00000   0.00000  Uiso   1.00
C36    C     0.61963   0.95882   0.00000   0.00000  Uiso   1.00
C37    C     0.04107   0.52492   0.00000   0.00000  Uiso   1.00
C38    C     0.08153   0.45111   0.00000   0.00000  Uiso   1.00
C39    C     0.08158   0.40434   0.00000   0.00000  Uiso   1.00
O40    O     0.07736   0.68942   0.00000   0.00000  Uiso   1.00
H41    H     0.85121   0.91197  -0.00015   0.00000  Uiso   1.00
H42    H     0.11247   0.46533   0.00000   0.00000  Uiso   1.00
H43    H     0.11170   0.38758   0.00000   0.00000  Uiso   1.00
C44    C     0.11493   0.08237   0.00000   0.00000  Uiso   1.00
C45    C     0.09250   0.04167   0.00000   0.00000  Uiso   1.00
C46    C     0.33077   0.04169   0.00000   0.00000  Uiso   1.00
C47    C     0.38037   0.04118   0.00000   0.00000  Uiso   1.00
C48    C     0.95893   0.47508   0.00000   0.00000  Uiso   1.00
C49    C     0.91847   0.54889   0.00000   0.00000  Uiso   1.00
C50    C     0.91842   0.59566   0.00000   0.00000  Uiso   1.00
O51    O     0.92264   0.31058   0.00000   0.00000  Uiso   1.00
H52    H     0.14878   0.08803  -0.00014   0.00000  Uiso   1.00
H53    H     0.88753   0.53467   0.00000   0.00000  Uiso   1.00
H54    H     0.88830   0.61242   0.00001   0.00000  Uiso   1.00
C55    C     0.08237   0.88507   0.00000   0.00000  Uiso   1.00
C56    C     0.04167   0.90750   0.00000   0.00000  Uiso   1.00
C57    C     0.04169   0.66923   0.00000   0.00000  Uiso   1.00
C58    C     0.04118   0.61963   0.00000   0.00000  Uiso   1.00
C59    C     0.47508   0.04107   0.00000   0.00000  Uiso   1.00
C60    C     0.54889   0.08153   0.00000   0.00000  Uiso   1.00
C61    C     0.59566   0.08158   0.00000   0.00000  Uiso   1.00
O62    O     0.31058   0.07736   0.00000   0.00000  Uiso   1.00
H63    H     0.08803   0.85121  -0.00015   0.00000  Uiso   1.00
H64    H     0.53467   0.11247   0.00000   0.00000  Uiso   1.00
H65    H     0.61242   0.11170   0.00001   0.00000  Uiso   1.00
C66    C     0.91763   0.11493   0.00000   0.00000  Uiso   1.00
C67    C     0.95833   0.09250   0.00000   0.00000  Uiso   1.00
C68    C     0.95831   0.33077   0.00000   0.00000  Uiso   1.00
C69    C     0.95882   0.38037   0.00000   0.00000  Uiso   1.00
C70    C     0.52492   0.95893   0.00000   0.00000  Uiso   1.00
C71    C     0.45111   0.91847   0.00000   0.00000  Uiso   1.00
C72    C     0.40434   0.91842   0.00000   0.00000  Uiso   1.00
O73    O     0.68942   0.92264   0.00000   0.00000  Uiso   1.00
H74    H     0.91197   0.14879  -0.00015   0.00000  Uiso   1.00
H75    H     0.46533   0.88753   0.00000   0.00000  Uiso   1.00
H76    H     0.38758   0.88830   0.00000   0.00000  Uiso   1.00
C77    C     0.11493   0.91763   0.00000   0.00000  Uiso   1.00
C78    C     0.09250   0.95833   0.00000   0.00000  Uiso   1.00
C79    C     0.33077   0.95831   0.00000   0.00000  Uiso   1.00
C80    C     0.38037   0.95882   0.00000   0.00000  Uiso   1.00
C81    C     0.95893   0.52492   0.00000   0.00000  Uiso   1.00
C82    C     0.91847   0.45111   0.00000   0.00000  Uiso   1.00
C83    C     0.91842   0.40434   0.00000   0.00000  Uiso   1.00
O84    O     0.92264   0.68942   0.00000   0.00000  Uiso   1.00
H85    H     0.14879   0.91197   0.00014   0.00000  Uiso   1.00
H86    H     0.88753   0.46533   0.00000   0.00000  Uiso   1.00
H87    H     0.88830   0.38758  -0.00000   0.00000  Uiso   1.00
C88    C     0.88507   0.08237   0.00000   0.00000  Uiso   1.00
C89    C     0.90750   0.04167   0.00000   0.00000  Uiso   1.00
C90    C     0.66923   0.04169   0.00000   0.00000  Uiso   1.00
C91    C     0.61963   0.04118   0.00000   0.00000  Uiso   1.00
C92    C     0.04107   0.47508   0.00000   0.00000  Uiso   1.00
C93    C     0.08153   0.54889   0.00000   0.00000  Uiso   1.00
C94    C     0.08158   0.59566   0.00000   0.00000  Uiso   1.00
O95    O     0.07736   0.31058   0.00000   0.00000  Uiso   1.00
H96    H     0.85121   0.08803   0.00014   0.00000  Uiso   1.00
H97    H     0.11247   0.53467  -0.00000   0.00000  Uiso   1.00
H98    H     0.11170   0.61242  -0.00001   0.00000  Uiso   1.00
C99    C     0.91763   0.88507   0.00000   0.00000  Uiso   1.00
C100   C     0.95833   0.90750   0.00000   0.00000  Uiso   1.00
C101   C     0.95831   0.66923   0.00000   0.00000  Uiso   1.00
C102   C     0.95882   0.61963   0.00000   0.00000  Uiso   1.00
C103   C     0.52492   0.04107   0.00000   0.00000  Uiso   1.00
C104   C     0.45111   0.08153   0.00000   0.00000  Uiso   1.00
C105   C     0.40434   0.08158   0.00000   0.00000  Uiso   1.00
O106   O     0.68942   0.07736   0.00000   0.00000  Uiso   1.00
H107   H     0.91197   0.85121   0.00014   0.00000  Uiso   1.00
H108   H     0.46533   0.11247   0.00000   0.00000  Uiso   1.00
H109   H     0.38758   0.11170  -0.00000   0.00000  Uiso   1.00
C110   C     0.08237   0.11493   0.00000   0.00000  Uiso   1.00
C111   C     0.04167   0.09250   0.00000   0.00000  Uiso   1.00
C112   C     0.04169   0.33077   0.00000   0.00000  Uiso   1.00
C113   C     0.04118   0.38037   0.00000   0.00000  Uiso   1.00
C114   C     0.47508   0.95893   0.00000   0.00000  Uiso   1.00
C115   C     0.54889   0.91847   0.00000   0.00000  Uiso   1.00
C116   C     0.59566   0.91842   0.00000   0.00000  Uiso   1.00
O117   O     0.31058   0.92264   0.00000   0.00000  Uiso   1.00
H118   H     0.08803   0.14878   0.00014   0.00000  Uiso   1.00
H119   H     0.53467   0.88753   0.00000   0.00000  Uiso   1.00
H120   H     0.61242   0.88830  -0.00001   0.00000  Uiso   1.00
C121   C     0.88531   0.00000   0.00000   0.00000  Uiso   1.00
C122   C     0.83566   0.00000   0.00000   0.00000  Uiso   1.00
C123   C     0.74163   0.00000   0.00000   0.00000  Uiso   1.00
N124   N     0.69355   0.00000   0.00000   0.00000  Uiso   1.00
C125   C     0.59621   0.00000   0.00000   0.00000  Uiso   1.00
C126   C     0.11469   0.00000   0.00000   0.00000  Uiso   1.00
C127   C     0.16434   0.00000   0.00000   0.00000  Uiso   1.00
C128   C     0.25837   0.00000   0.00000   0.00000  Uiso   1.00
N129   N     0.30645   0.00000   0.00000   0.00000  Uiso   1.00
C130   C     0.40379   0.00000   0.00000   0.00000  Uiso   1.00
C131   C     0.00000   0.88531   0.00000   0.00000  Uiso   1.00
C132   C     0.00000   0.83566   0.00000   0.00000  Uiso   1.00
C133   C     0.00000   0.74163   0.00000   0.00000  Uiso   1.00
N134   N     0.00000   0.69355   0.00000   0.00000  Uiso   1.00
C135   C     0.00000   0.59621   0.00000   0.00000  Uiso   1.00
C136   C     0.00000   0.11469   0.00000   0.00000  Uiso   1.00
C137   C     0.00000   0.16434   0.00000   0.00000  Uiso   1.00
C138   C     0.00000   0.25837   0.00000   0.00000  Uiso   1.00
N139   N     0.00000   0.30645   0.00000   0.00000  Uiso   1.00
C140   C     0.00000   0.40379   0.00000   0.00000  Uiso   1.00
C141   C     0.00000   0.54856   0.00000   0.00000  Uiso   1.00
C142   C     0.00000   0.45144   0.00000   0.00000  Uiso   1.00
C143   C     0.45144   0.00000   0.00000   0.00000  Uiso   1.00
C144   C     0.54856   0.00000   0.00000   0.00000  Uiso   1.00
N145   N     0.95248   0.95248   0.00000   0.00000  Uiso   1.00
N146   N     0.04752   0.04752   0.00000   0.00000  Uiso   1.00
N147   N     0.04752   0.95248   0.00000   0.00000  Uiso   1.00
N148   N     0.95248   0.04752   0.00000   0.00000  Uiso   1.00
H149   H     0.97546   0.97546   0.00000   0.00000  Uiso   1.00
H150   H     0.02454   0.02454   0.00000   0.00000  Uiso   1.00
loop_
_geom_bond_atom_site_label_1
_geom_bond_atom_site_label_2
_geom_bond_distance
_geom_bond_site_symmetry_2
_ccdc_geom_bond_type
C1     C2      1.397   .     D
C1     H3      0.984   .     S
C1     C122    1.399   .     S
C2     H4      0.983   .     S
C2     C123    1.398   .     S
C5     C6      1.397   .     D
C5     H7      0.984   .     S
C5     C127    1.399   .     S
C6     H8      0.983   .     S
C6     C128    1.398   .     S
C9     C10     1.397   .     D
C9     H11     0.984   .     S
C9     C132    1.399   .     S
C10    H12     0.983   .     S
C10    C133    1.398   .     S
C13    C14     1.397   .     D
C13    H15     0.984   .     S
C13    C137    1.399   .     S
C14    H16     0.983   .     S
C14    C138    1.398   .     S
C17    C18     1.397   .     S
C17    H19     0.984   .     S
C17    C127    1.399   .     D
C18    H20     0.983   .     S
C18    C128    1.398   .     D
C21    C22     1.397   .     S
C21    H23     0.984   .     S
C21    C122    1.399   .     D
C22    H24     0.983   .     S
C22    C123    1.398   .     D
C25    C26     1.397   .     S
C25    H27     0.984   .     S
C25    C132    1.399   .     D
C26    H28     0.983   .     S
C26    C133    1.398   .     D
C29    C30     1.397   .     S
C29    H31     0.984   .     S
C29    C137    1.399   .     D
C30    H32     0.983   .     S
C30    C138    1.398   .     D
C33    C34     1.384   .     D
C33    H41     1.023   .     S
C33    C99     1.372   .     S
C34    C121    1.406   1_565 S
C34    N145    1.351   .     S
C35    C36     1.478   .     S
C35    O73     1.221   .     D
C35    N124    1.438   1_565 S
C36    C116    1.399   .     D
C36    C125    1.411   1_565 S
C37    C92     1.485   .     S
C37    C93     1.401   .     D
C37    C141    1.412   .     S
C38    C39     1.393   .     S
C38    H42     1.014   .     S
C38    C92     1.401   .     D
C39    H43     1.027   .     S
C39    C113    1.399   .     D
O40    C57     1.221   .     D
C44    C45     1.384   .     S
C44    H52     1.023   .     S
C44    C110    1.372   .     D
C45    C126    1.406   .     D
C45    N146    1.351   .     S
C46    C47     1.478   .     S
C46    O62     1.221   .     D
C46    N129    1.438   .     S
C47    C105    1.399   .     D
C47    C130    1.411   .     S
C48    C81     1.485   .     S
C48    C82     1.401   .     D
C48    C142    1.412   1_655 S
C49    C50     1.393   .     S
C49    H53     1.014   .     S
C49    C81     1.401   .     D
C50    H54     1.027   .     S
C50    C102    1.399   .     D
O51    C68     1.221   .     D
C55    C56     1.384   .     S
C55    H63     1.023   .     S
C55    C77     1.372   .     D
C56    C131    1.406   .     D
C56    N147    1.351   .     S
C57    C58     1.478   .     S
C57    N134    1.438   .     S
C58    C94     1.399   .     D
C58    C135    1.411   .     S
C59    C103    1.485   .     S
C59    C104    1.401   .     D
C59    C143    1.412   .     S
C60    C61     1.393   .     D
C60    H64     1.014   .     S
C60    C103    1.401   .     S
C61    H65     1.027   .     S
C61    C91     1.399   .     S
C66    C67     1.384   .     S
C66    H74     1.023   .     S
C66    C88     1.372   .     D
C67    C136    1.406   1_655 S
C67    N148    1.351   .     D
C68    C69     1.478   .     S
C68    N139    1.438   1_655 S
C69    C83     1.399   .     D
C69    C140    1.411   1_655 S
C70    C114    1.485   .     S
C70    C115    1.401   .     D
C70    C144    1.412   1_565 S
C71    C72     1.393   .     D
C71    H75     1.014   .     S
C71    C114    1.401   .     S
C72    H76     1.027   .     S
C72    C80     1.399   .     S
C77    C78     1.384   .     S
C77    H85     1.023   .     S
C78    C126    1.406   1_565 S
C78    N147    1.351   .     D
C79    C80     1.478   .     S
C79    O117    1.221   .     D
C79    N129    1.438   1_565 S
C80    C130    1.411   1_565 D
C81    C141    1.412   1_655 S
C82    C83     1.393   .     S
C82    H86     1.014   .     S
C83    H87     1.027   .     S
O84    C101    1.221   .     D
C88    C89     1.384   .     S
C88    H96     1.023   .     S
C89    C121    1.406   .     D
C89    N148    1.351   .     S
C90    C91     1.478   .     S
C90    O106    1.221   .     D
C90    N124    1.438   .     S
C91    C125    1.411   .     D
C92    C142    1.412   .     S
C93    C94     1.393   .     S
C93    H97     1.014   .     S
C94    H98     1.027   .     S
O95    C112    1.221   .     D
C99    C100    1.384   .     D
C99    H107    1.023   .     S
C100   C131    1.406   1_655 S
C100   N145    1.351   .     S
C101   C102    1.478   .     S
C101   N134    1.438   1_655 S
C102   C135    1.411   1_655 S
C103   C144    1.412   .     D
C104   C105    1.393   .     S
C104   H108    1.014   .     S
C105   H109    1.027   .     S
C110   C111    1.384   .     S
C110   H118    1.023   .     S
C111   C136    1.406   .     D
C111   N146    1.351   .     S
C112   C113    1.478   .     S
C112   N139    1.438   .     S
C113   C140    1.411   .     S
C114   C143    1.412   1_565 D
C115   C116    1.393   .     S
C115   H119    1.014   .     S
C116   H120    1.027   .     S
C121   C34     1.406   1_545 S
C121   C122    1.479   .     S
C123   N124    1.432   .     S
N124   C35     1.438   1_545 S
C125   C36     1.411   1_545 S
C125   C144    1.419   .     S
C126   C78     1.406   1_545 S
C126   C127    1.479   .     S
C128   N129    1.432   .     S
N129   C79     1.438   1_545 S
C130   C80     1.411   1_545 D
C130   C143    1.419   .     S
C131   C100    1.406   1_455 S
C131   C132    1.479   .     S
C133   N134    1.432   .     S
N134   C101    1.438   1_455 S
C135   C102    1.411   1_455 S
C135   C141    1.419   .     D
C136   C67     1.406   1_455 S
C136   C137    1.479   .     S
C138   N139    1.432   .     S
N139   C68     1.438   1_455 S
C140   C69     1.411   1_455 S
C140   C142    1.419   .     D
C141   C81     1.412   1_455 S
C142   C48     1.412   1_455 S
C143   C114    1.412   1_545 D
C144   C70     1.412   1_545 S
N145   H149    0.968   .     S
N146   H150    0.968   .     S
