data_36
_audit_creation_date              2023-09-08
_audit_creation_method            'Materials Studio'
_symmetry_space_group_name_H-M    'P1'
_symmetry_Int_Tables_number       1
_symmetry_cell_setting            triclinic
loop_
_symmetry_equiv_pos_as_xyz
  x,y,z
_cell_length_a                    39.2782
_cell_length_b                    39.2782
_cell_length_c                    4.1653
_cell_angle_alpha                 90.0000
_cell_angle_beta                  90.0000
_cell_angle_gamma                 120.0000
loop_
_atom_site_label
_atom_site_type_symbol
_atom_site_fract_x
_atom_site_fract_y
_atom_site_fract_z
_atom_site_U_iso_or_equiv
_atom_site_adp_type
_atom_site_occupancy
C1     C     0.70554   0.34020   0.50000   0.00000  Uiso   1.00
C2     C     0.65980   0.36534   0.50000   0.00000  Uiso   1.00
C3     C     0.63466   0.29446   0.50000   0.00000  Uiso   1.00
C4     C     0.29446   0.65980   0.50000   0.00000  Uiso   1.00
C5     C     0.34020   0.63466   0.50000   0.00000  Uiso   1.00
C6     C     0.36534   0.70554   0.50000   0.00000  Uiso   1.00
C7     C     0.69883   0.37287   0.50000   0.00000  Uiso   1.00
C8     C     0.62713   0.32596   0.50000   0.00000  Uiso   1.00
C9     C     0.67404   0.30117   0.50000   0.00000  Uiso   1.00
C10    C     0.30117   0.62713   0.50000   0.00000  Uiso   1.00
C11    C     0.37287   0.67404   0.50000   0.00000  Uiso   1.00
C12    C     0.32596   0.69883   0.50000   0.00000  Uiso   1.00
C13    C     0.73153   0.41199   0.50000   0.00000  Uiso   1.00
C14    C     0.58801   0.31954   0.50000   0.00000  Uiso   1.00
C15    C     0.68047   0.26847   0.50000   0.00000  Uiso   1.00
C16    C     0.26847   0.58801   0.50000   0.00000  Uiso   1.00
C17    C     0.41199   0.68047   0.50000   0.00000  Uiso   1.00
C18    C     0.31954   0.73153   0.50000   0.00000  Uiso   1.00
C19    C     0.74447   0.34755   0.50000   0.00000  Uiso   1.00
C20    C     0.65245   0.39692   0.50000   0.00000  Uiso   1.00
C21    C     0.60308   0.25553   0.50000   0.00000  Uiso   1.00
C22    C     0.25553   0.65245   0.50000   0.00000  Uiso   1.00
C23    C     0.34755   0.60308   0.50000   0.00000  Uiso   1.00
C24    C     0.39692   0.74447   0.50000   0.00000  Uiso   1.00
C25    C     0.76908   0.41786   0.50000   0.00000  Uiso   1.00
C26    C     0.58214   0.35122   0.50000   0.00000  Uiso   1.00
C27    C     0.64878   0.23092   0.50000   0.00000  Uiso   1.00
C28    C     0.23092   0.58214   0.50000   0.00000  Uiso   1.00
C29    C     0.41786   0.64878   0.50000   0.00000  Uiso   1.00
C30    C     0.35122   0.76908   0.50000   0.00000  Uiso   1.00
C31    C     0.77430   0.38563   0.50000   0.00000  Uiso   1.00
C32    C     0.61437   0.38866   0.50000   0.00000  Uiso   1.00
C33    C     0.61134   0.22570   0.50000   0.00000  Uiso   1.00
C34    C     0.22570   0.61437   0.50000   0.00000  Uiso   1.00
C35    C     0.38563   0.61134   0.50000   0.00000  Uiso   1.00
C36    C     0.38866   0.77430   0.50000   0.00000  Uiso   1.00
O37    O     0.81118   0.39502   0.50000   0.00000  Uiso   1.00
O38    O     0.60498   0.41616   0.50000   0.00000  Uiso   1.00
O39    O     0.58384   0.18882   0.50000   0.00000  Uiso   1.00
O40    O     0.18882   0.60498   0.50000   0.00000  Uiso   1.00
O41    O     0.39502   0.58384   0.50000   0.00000  Uiso   1.00
O42    O     0.41616   0.81118   0.50000   0.00000  Uiso   1.00
O43    O     0.64896   0.19691   0.50000   0.00000  Uiso   1.00
O44    O     0.80309   0.45205   0.50000   0.00000  Uiso   1.00
O45    O     0.54795   0.35104   0.50000   0.00000  Uiso   1.00
O46    O     0.35104   0.80309   0.50000   0.00000  Uiso   1.00
O47    O     0.19691   0.54795   0.50000   0.00000  Uiso   1.00
O48    O     0.45205   0.64896   0.50000   0.00000  Uiso   1.00
B49    B     0.82968   0.43697   0.50000   0.00000  Uiso   1.00
B50    B     0.56303   0.39271   0.50000   0.00000  Uiso   1.00
B51    B     0.60729   0.17032   0.50000   0.00000  Uiso   1.00
B52    B     0.17032   0.56303   0.50000   0.00000  Uiso   1.00
B53    B     0.43697   0.60729   0.50000   0.00000  Uiso   1.00
B54    B     0.39271   0.82968   0.50000   0.00000  Uiso   1.00
H55    H     0.73025   0.43712   0.50000   0.00000  Uiso   1.00
H56    H     0.56288   0.29313   0.50000   0.00000  Uiso   1.00
H57    H     0.70687   0.26975   0.50000   0.00000  Uiso   1.00
H58    H     0.26975   0.56288   0.50000   0.00000  Uiso   1.00
H59    H     0.43712   0.70687   0.50000   0.00000  Uiso   1.00
H60    H     0.29313   0.73025   0.50000   0.00000  Uiso   1.00
H61    H     0.57405   0.24683   0.50000   0.00000  Uiso   1.00
H62    H     0.75317   0.32722   0.50000   0.00000  Uiso   1.00
H63    H     0.67278   0.42595   0.50000   0.00000  Uiso   1.00
H64    H     0.42595   0.75317   0.50000   0.00000  Uiso   1.00
H65    H     0.24683   0.67278   0.50000   0.00000  Uiso   1.00
H66    H     0.32722   0.57405   0.50000   0.00000  Uiso   1.00
C67    C     0.12733   0.54148   0.50000   0.00000  Uiso   1.00
C68    C     0.45852   0.58585   0.50000   0.00000  Uiso   1.00
C69    C     0.41416   0.87267   0.50000   0.00000  Uiso   1.00
C70    C     0.87267   0.45852   0.50000   0.00000  Uiso   1.00
C71    C     0.54148   0.41416   0.50000   0.00000  Uiso   1.00
C72    C     0.58585   0.12733   0.50000   0.00000  Uiso   1.00
C73    C     0.10989   0.56532   0.50000   0.00000  Uiso   1.00
C74    C     0.43469   0.54457   0.50000   0.00000  Uiso   1.00
C75    C     0.45543   0.89012   0.50000   0.00000  Uiso   1.00
C76    C     0.89012   0.43469   0.50000   0.00000  Uiso   1.00
C77    C     0.56532   0.45543   0.50000   0.00000  Uiso   1.00
C78    C     0.54457   0.10989   0.50000   0.00000  Uiso   1.00
C79    C     0.10514   0.50017   0.50000   0.00000  Uiso   1.00
C80    C     0.49983   0.60497   0.50000   0.00000  Uiso   1.00
C81    C     0.39503   0.89486   0.50000   0.00000  Uiso   1.00
C82    C     0.89486   0.49983   0.50000   0.00000  Uiso   1.00
C83    C     0.50017   0.39503   0.50000   0.00000  Uiso   1.00
C84    C     0.60497   0.10514   0.50000   0.00000  Uiso   1.00
C85    C     0.06973   0.54783   0.50000   0.00000  Uiso   1.00
C86    C     0.45217   0.52190   0.50000   0.00000  Uiso   1.00
C87    C     0.47810   0.93027   0.50000   0.00000  Uiso   1.00
C88    C     0.93027   0.45217   0.50000   0.00000  Uiso   1.00
C89    C     0.54783   0.47810   0.50000   0.00000  Uiso   1.00
C90    C     0.52190   0.06973   0.50000   0.00000  Uiso   1.00
C91    C     0.06413   0.48248   0.50000   0.00000  Uiso   1.00
C92    C     0.51752   0.58165   0.50000   0.00000  Uiso   1.00
C93    C     0.41835   0.93587   0.50000   0.00000  Uiso   1.00
C94    C     0.93587   0.51752   0.50000   0.00000  Uiso   1.00
C95    C     0.48248   0.41835   0.50000   0.00000  Uiso   1.00
C96    C     0.58165   0.06413   0.50000   0.00000  Uiso   1.00
C97    C     0.04719   0.50663   0.50000   0.00000  Uiso   1.00
C98    C     0.49337   0.54056   0.50000   0.00000  Uiso   1.00
C99    C     0.45944   0.95281   0.50000   0.00000  Uiso   1.00
C100   C     0.95281   0.49337   0.50000   0.00000  Uiso   1.00
C101   C     0.50663   0.45944   0.50000   0.00000  Uiso   1.00
C102   C     0.54056   0.04719   0.50000   0.00000  Uiso   1.00
N103   N     0.00865   0.48975   0.50000   0.00000  Uiso   1.00
N104   N     0.51025   0.51890   0.50000   0.00000  Uiso   1.00
N105   N     0.48110   0.99135   0.50000   0.00000  Uiso   1.00
N106   N     0.99135   0.51025   0.50000   0.00000  Uiso   1.00
N107   N     0.48975   0.48110   0.50000   0.00000  Uiso   1.00
N108   N     0.51890   0.00865   0.50000   0.00000  Uiso   1.00
H109   H     0.12554   0.59548   0.50000   0.00000  Uiso   1.00
H110   H     0.40452   0.53006   0.50000   0.00000  Uiso   1.00
H111   H     0.46994   0.87446   0.50000   0.00000  Uiso   1.00
H112   H     0.87446   0.40452   0.50000   0.00000  Uiso   1.00
H113   H     0.59548   0.46994   0.50000   0.00000  Uiso   1.00
H114   H     0.53006   0.12554   0.50000   0.00000  Uiso   1.00
H115   H     0.11848   0.48342   0.50000   0.00000  Uiso   1.00
H116   H     0.51658   0.63506   0.50000   0.00000  Uiso   1.00
H117   H     0.36494   0.88153   0.50000   0.00000  Uiso   1.00
H118   H     0.88153   0.51658   0.50000   0.00000  Uiso   1.00
H119   H     0.48342   0.36494   0.50000   0.00000  Uiso   1.00
H120   H     0.63506   0.11848   0.50000   0.00000  Uiso   1.00
H121   H     0.05735   0.56537   0.50000   0.00000  Uiso   1.00
H122   H     0.43463   0.49198   0.50000   0.00000  Uiso   1.00
H123   H     0.50802   0.94265   0.50000   0.00000  Uiso   1.00
H124   H     0.94265   0.43463   0.50000   0.00000  Uiso   1.00
H125   H     0.56537   0.50802   0.50000   0.00000  Uiso   1.00
H126   H     0.49198   0.05735   0.50000   0.00000  Uiso   1.00
H127   H     0.04682   0.45253   0.50000   0.00000  Uiso   1.00
H128   H     0.54747   0.59428   0.50000   0.00000  Uiso   1.00
H129   H     0.40572   0.95318   0.50000   0.00000  Uiso   1.00
H130   H     0.95318   0.54747   0.50000   0.00000  Uiso   1.00
H131   H     0.45253   0.40572   0.50000   0.00000  Uiso   1.00
H132   H     0.59428   0.04682   0.50000   0.00000  Uiso   1.00
loop_
_geom_bond_atom_site_label_1
_geom_bond_atom_site_label_2
_geom_bond_distance
_geom_bond_site_symmetry_2
_ccdc_geom_bond_type
C1     C7      1.434   .     D
C1     C9      1.409   .     S
C1     C19     1.407   .     S
C2     C7      1.408   .     S
C2     C8      1.433   .     D
C2     C20     1.407   .     S
C3     C8      1.409   .     S
C3     C9      1.433   .     D
C3     C21     1.407   .     S
C4     C10     1.434   .     D
C4     C12     1.409   .     S
C4     C22     1.407   .     S
C5     C10     1.408   .     S
C5     C11     1.433   .     D
C5     C23     1.407   .     S
C6     C11     1.409   .     S
C6     C12     1.433   .     D
C6     C24     1.407   .     S
C7     C13     1.427   .     S
C8     C14     1.427   .     S
C9     C15     1.427   .     S
C10    C16     1.427   .     S
C11    C17     1.427   .     S
C12    C18     1.427   .     S
C13    C25     1.374   .     D
C13    H55     1.013   .     S
C14    C26     1.374   .     D
C14    H56     1.013   .     S
C15    C27     1.374   .     D
C15    H57     1.013   .     S
C16    C28     1.374   .     D
C16    H58     1.013   .     S
C17    C29     1.374   .     D
C17    H59     1.013   .     S
C18    C30     1.374   .     D
C18    H60     1.013   .     S
C19    C31     1.363   .     D
C19    H62     1.014   .     S
C20    C32     1.363   .     D
C20    H63     1.013   .     S
C21    C33     1.363   .     D
C21    H61     1.013   .     S
C22    C34     1.363   .     D
C22    H65     1.013   .     S
C23    C35     1.363   .     D
C23    H66     1.013   .     S
C24    C36     1.363   .     D
C24    H64     1.013   .     S
C25    C31     1.380   .     S
C25    O44     1.339   .     S
C26    C32     1.380   .     S
C26    O45     1.339   .     S
C27    C33     1.380   .     S
C27    O43     1.339   .     S
C28    C34     1.380   .     S
C28    O47     1.339   .     S
C29    C35     1.380   .     S
C29    O48     1.339   .     S
C30    C36     1.380   .     S
C30    O46     1.339   .     S
C31    O37     1.304   .     S
C32    O38     1.304   .     S
C33    O39     1.304   .     S
C34    O40     1.304   .     S
C35    O41     1.304   .     S
C36    O42     1.304   .     S
O37    B49     1.430   .     S
O38    B50     1.430   .     S
O39    B51     1.430   .     S
O40    B52     1.430   .     S
O41    B53     1.430   .     S
O42    B54     1.430   .     S
O43    B51     1.436   .     S
O44    B49     1.436   .     S
O45    B50     1.436   .     S
O46    B54     1.436   .     S
O47    B52     1.436   .     S
O48    B53     1.436   .     S
B49    C70     1.462   .     S
B50    C71     1.462   .     S
B51    C72     1.462   .     S
B52    C67     1.462   .     S
B53    C68     1.462   .     S
B54    C69     1.462   .     S
C67    C73     1.410   .     S
C67    C79     1.407   .     D
C68    C74     1.410   .     D
C68    C80     1.407   .     S
C69    C75     1.410   .     S
C69    C81     1.407   .     D
C70    C76     1.410   .     S
C70    C82     1.407   .     D
C71    C77     1.410   .     D
C71    C83     1.407   .     S
C72    C78     1.410   .     D
C72    C84     1.407   .     S
C73    C85     1.370   .     D
C73    H109    1.026   .     S
C74    C86     1.370   .     S
C74    H110    1.026   .     S
C75    C87     1.370   .     D
C75    H111    1.026   .     S
C76    C88     1.370   .     D
C76    H112    1.026   .     S
C77    C89     1.370   .     S
C77    H113    1.026   .     S
C78    C90     1.370   .     S
C78    H114    1.026   .     S
C79    C91     1.399   .     S
C79    H115    1.026   .     S
C80    C92     1.399   .     D
C80    H116    1.026   .     S
C81    C93     1.399   .     S
C81    H117    1.026   .     S
C82    C94     1.399   .     S
C82    H118    1.026   .     S
C83    C95     1.399   .     D
C83    H119    1.026   .     S
C84    C96     1.399   .     D
C84    H120    1.026   .     S
C85    C97     1.403   .     S
C85    H121    1.023   .     S
C86    C98     1.403   .     D
C86    H122    1.023   .     S
C87    C99     1.404   .     S
C87    H123    1.023   .     S
C88    C100    1.403   .     S
C88    H124    1.023   .     S
C89    C101    1.403   .     D
C89    H125    1.023   .     S
C90    C102    1.404   .     D
C90    H126    1.023   .     S
C91    C97     1.405   .     D
C91    H127    1.023   .     S
C92    C98     1.405   .     S
C92    H128    1.023   .     S
C93    C99     1.405   .     D
C93    H129    1.023   .     S
C94    C100    1.405   .     D
C94    H130    1.023   .     S
C95    C101    1.405   .     S
C95    H131    1.023   .     S
C96    C102    1.405   .     S
C96    H132    1.023   .     S
C97    N103    1.314   .     S
C98    N104    1.314   .     S
C99    N105    1.314   .     S
C100   N106    1.314   .     S
C101   N107    1.314   .     S
C102   N108    1.314   .     S
N103   N106    1.287   1_455 D
N104   N107    1.287   .     D
N105   N108    1.287   1_565 D
N106   N103    1.287   1_655 D
N108   N105    1.287   1_545 D
