data_363
_audit_creation_date              2023-09-08
_audit_creation_method            'Materials Studio'
_symmetry_space_group_name_H-M    'P1'
_symmetry_Int_Tables_number       1
_symmetry_cell_setting            triclinic
loop_
_symmetry_equiv_pos_as_xyz
  x,y,z
_cell_length_a                    20.4900
_cell_length_b                    20.4900
_cell_length_c                    32.2000
_cell_angle_alpha                 90.0000
_cell_angle_beta                  90.0000
_cell_angle_gamma                 90.0000
loop_
_atom_site_label
_atom_site_type_symbol
_atom_site_fract_x
_atom_site_fract_y
_atom_site_fract_z
_atom_site_U_iso_or_equiv
_atom_site_adp_type
_atom_site_occupancy
C1     C     0.34725   0.69668   0.30103   0.00000  Uiso   1.00
C2     C     0.29431   0.71639   0.27374   0.00000  Uiso   1.00
O3     O     0.36384   0.64018   0.30584   0.00000  Uiso   1.00
H4     H     0.44049   0.85710   0.35712   0.00000  Uiso   1.00
C5     C     0.84725   0.19668   0.80103   0.00000  Uiso   1.00
C6     C     0.79431   0.21639   0.77374   0.00000  Uiso   1.00
O7     O     0.86384   0.14018   0.80584   0.00000  Uiso   1.00
H8     H     0.94049   0.35710   0.85712   0.00000  Uiso   1.00
C9     C     0.15275   0.30332   0.80103   0.00000  Uiso   1.00
C10    C     0.20569   0.28361   0.77374   0.00000  Uiso   1.00
O11    O     0.13616   0.35982   0.80584   0.00000  Uiso   1.00
H12    H     0.05951   0.14290   0.85712   0.00000  Uiso   1.00
C13    C     0.65275   0.80332   0.30103   0.00000  Uiso   1.00
C14    C     0.70569   0.78361   0.27374   0.00000  Uiso   1.00
O15    O     0.63616   0.85982   0.30584   0.00000  Uiso   1.00
H16    H     0.55951   0.64290   0.35712   0.00000  Uiso   1.00
C17    C     0.55332   0.09725   0.55103   0.00000  Uiso   1.00
C18    C     0.53361   0.04431   0.52374   0.00000  Uiso   1.00
O19    O     0.60982   0.11384   0.55584   0.00000  Uiso   1.00
H20    H     0.39290   0.19049   0.60712   0.00000  Uiso   1.00
C21    C     0.05332   0.59725   0.05103   0.00000  Uiso   1.00
C22    C     0.03361   0.54431   0.02374   0.00000  Uiso   1.00
O23    O     0.10982   0.61384   0.05584   0.00000  Uiso   1.00
H24    H     0.89290   0.69049   0.10712   0.00000  Uiso   1.00
C25    C     0.94668   0.90275   0.05103   0.00000  Uiso   1.00
C26    C     0.96639   0.95569   0.02374   0.00000  Uiso   1.00
O27    O     0.89018   0.88616   0.05584   0.00000  Uiso   1.00
H28    H     0.10710   0.80951   0.10712   0.00000  Uiso   1.00
C29    C     0.44668   0.40275   0.55103   0.00000  Uiso   1.00
C30    C     0.46639   0.45569   0.52374   0.00000  Uiso   1.00
O31    O     0.39018   0.38616   0.55584   0.00000  Uiso   1.00
H32    H     0.60710   0.30951   0.60712   0.00000  Uiso   1.00
C33    C     0.15275   0.69668   0.19897   0.00000  Uiso   1.00
C34    C     0.20569   0.71639   0.22626   0.00000  Uiso   1.00
O35    O     0.13616   0.64018   0.19416   0.00000  Uiso   1.00
H36    H     0.05951   0.85710   0.14288   0.00000  Uiso   1.00
C37    C     0.65275   0.19668   0.69897   0.00000  Uiso   1.00
C38    C     0.70569   0.21639   0.72626   0.00000  Uiso   1.00
O39    O     0.63616   0.14018   0.69416   0.00000  Uiso   1.00
H40    H     0.55951   0.35710   0.64288   0.00000  Uiso   1.00
C41    C     0.34725   0.30332   0.69897   0.00000  Uiso   1.00
C42    C     0.29431   0.28361   0.72626   0.00000  Uiso   1.00
O43    O     0.36384   0.35982   0.69416   0.00000  Uiso   1.00
H44    H     0.44049   0.14290   0.64288   0.00000  Uiso   1.00
C45    C     0.84725   0.80332   0.19897   0.00000  Uiso   1.00
C46    C     0.79431   0.78361   0.22626   0.00000  Uiso   1.00
O47    O     0.86384   0.85982   0.19416   0.00000  Uiso   1.00
H48    H     0.94049   0.64290   0.14288   0.00000  Uiso   1.00
C49    C     0.94668   0.09725   0.94897   0.00000  Uiso   1.00
C50    C     0.96639   0.04431   0.97626   0.00000  Uiso   1.00
O51    O     0.89018   0.11384   0.94416   0.00000  Uiso   1.00
H52    H     0.10710   0.19049   0.89288   0.00000  Uiso   1.00
C53    C     0.44668   0.59725   0.44897   0.00000  Uiso   1.00
C54    C     0.46639   0.54431   0.47626   0.00000  Uiso   1.00
O55    O     0.39018   0.61384   0.44416   0.00000  Uiso   1.00
H56    H     0.60710   0.69049   0.39288   0.00000  Uiso   1.00
C57    C     0.55332   0.90275   0.44897   0.00000  Uiso   1.00
C58    C     0.53361   0.95569   0.47626   0.00000  Uiso   1.00
O59    O     0.60982   0.88616   0.44416   0.00000  Uiso   1.00
H60    H     0.39290   0.80951   0.39288   0.00000  Uiso   1.00
C61    C     0.05332   0.40275   0.94897   0.00000  Uiso   1.00
C62    C     0.03361   0.45569   0.97626   0.00000  Uiso   1.00
O63    O     0.10982   0.38616   0.94416   0.00000  Uiso   1.00
H64    H     0.89290   0.30951   0.89288   0.00000  Uiso   1.00
C65    C     0.65275   0.30332   0.69897   0.00000  Uiso   1.00
C66    C     0.70569   0.28361   0.72626   0.00000  Uiso   1.00
O67    O     0.63616   0.35982   0.69416   0.00000  Uiso   1.00
H68    H     0.55951   0.14290   0.64288   0.00000  Uiso   1.00
C69    C     0.15275   0.80332   0.19897   0.00000  Uiso   1.00
C70    C     0.20569   0.78361   0.22626   0.00000  Uiso   1.00
O71    O     0.13616   0.85982   0.19416   0.00000  Uiso   1.00
H72    H     0.05951   0.64290   0.14288   0.00000  Uiso   1.00
C73    C     0.84725   0.69668   0.19897   0.00000  Uiso   1.00
C74    C     0.79431   0.71639   0.22626   0.00000  Uiso   1.00
O75    O     0.86384   0.64018   0.19416   0.00000  Uiso   1.00
H76    H     0.94049   0.85710   0.14288   0.00000  Uiso   1.00
C77    C     0.34725   0.19668   0.69897   0.00000  Uiso   1.00
C78    C     0.29431   0.21639   0.72626   0.00000  Uiso   1.00
O79    O     0.36384   0.14018   0.69416   0.00000  Uiso   1.00
H80    H     0.44049   0.35710   0.64288   0.00000  Uiso   1.00
C81    C     0.44668   0.90275   0.44897   0.00000  Uiso   1.00
C82    C     0.46639   0.95569   0.47626   0.00000  Uiso   1.00
O83    O     0.39018   0.88616   0.44416   0.00000  Uiso   1.00
H84    H     0.60710   0.80951   0.39288   0.00000  Uiso   1.00
C85    C     0.94668   0.40275   0.94897   0.00000  Uiso   1.00
C86    C     0.96639   0.45569   0.97626   0.00000  Uiso   1.00
O87    O     0.89018   0.38616   0.94416   0.00000  Uiso   1.00
H88    H     0.10710   0.30951   0.89288   0.00000  Uiso   1.00
C89    C     0.05332   0.09725   0.94897   0.00000  Uiso   1.00
C90    C     0.03361   0.04431   0.97626   0.00000  Uiso   1.00
O91    O     0.10982   0.11384   0.94416   0.00000  Uiso   1.00
H92    H     0.89290   0.19049   0.89288   0.00000  Uiso   1.00
C93    C     0.55332   0.59725   0.44897   0.00000  Uiso   1.00
C94    C     0.53361   0.54431   0.47626   0.00000  Uiso   1.00
O95    O     0.60982   0.61384   0.44416   0.00000  Uiso   1.00
H96    H     0.39290   0.69049   0.39288   0.00000  Uiso   1.00
C97    C     0.84725   0.30332   0.80103   0.00000  Uiso   1.00
C98    C     0.79431   0.28361   0.77374   0.00000  Uiso   1.00
O99    O     0.86384   0.35982   0.80584   0.00000  Uiso   1.00
H100   H     0.94049   0.14290   0.85712   0.00000  Uiso   1.00
C101   C     0.34725   0.80332   0.30103   0.00000  Uiso   1.00
C102   C     0.29431   0.78361   0.27374   0.00000  Uiso   1.00
O103   O     0.36384   0.85982   0.30584   0.00000  Uiso   1.00
H104   H     0.44049   0.64290   0.35712   0.00000  Uiso   1.00
C105   C     0.65275   0.69668   0.30103   0.00000  Uiso   1.00
C106   C     0.70569   0.71639   0.27374   0.00000  Uiso   1.00
O107   O     0.63616   0.64018   0.30584   0.00000  Uiso   1.00
H108   H     0.55951   0.85710   0.35712   0.00000  Uiso   1.00
C109   C     0.15275   0.19668   0.80103   0.00000  Uiso   1.00
C110   C     0.20569   0.21639   0.77374   0.00000  Uiso   1.00
O111   O     0.13616   0.14018   0.80584   0.00000  Uiso   1.00
H112   H     0.05951   0.35710   0.85712   0.00000  Uiso   1.00
C113   C     0.05332   0.90275   0.05103   0.00000  Uiso   1.00
C114   C     0.03361   0.95569   0.02374   0.00000  Uiso   1.00
O115   O     0.10982   0.88616   0.05584   0.00000  Uiso   1.00
H116   H     0.89290   0.80951   0.10712   0.00000  Uiso   1.00
C117   C     0.55332   0.40275   0.55103   0.00000  Uiso   1.00
C118   C     0.53361   0.45569   0.52374   0.00000  Uiso   1.00
O119   O     0.60982   0.38616   0.55584   0.00000  Uiso   1.00
H120   H     0.39290   0.30951   0.60712   0.00000  Uiso   1.00
C121   C     0.44668   0.09725   0.55103   0.00000  Uiso   1.00
C122   C     0.46639   0.04431   0.52374   0.00000  Uiso   1.00
O123   O     0.39018   0.11384   0.55584   0.00000  Uiso   1.00
H124   H     0.60710   0.19049   0.60712   0.00000  Uiso   1.00
C125   C     0.94668   0.59725   0.05103   0.00000  Uiso   1.00
C126   C     0.96639   0.54431   0.02374   0.00000  Uiso   1.00
O127   O     0.89018   0.61384   0.05584   0.00000  Uiso   1.00
H128   H     0.10710   0.69049   0.10712   0.00000  Uiso   1.00
C129   C     0.43739   0.75000   0.34595   0.00000  Uiso   1.00
N130   N     0.37790   0.75000   0.31869   0.00000  Uiso   1.00
C131   C     0.06261   0.25000   0.84595   0.00000  Uiso   1.00
N132   N     0.12210   0.25000   0.81869   0.00000  Uiso   1.00
C133   C     0.50000   0.18739   0.59595   0.00000  Uiso   1.00
N134   N     0.50000   0.12790   0.56869   0.00000  Uiso   1.00
C135   C     0.00000   0.68739   0.09595   0.00000  Uiso   1.00
N136   N     0.00000   0.62790   0.06869   0.00000  Uiso   1.00
C137   C     0.00000   0.81261   0.09595   0.00000  Uiso   1.00
N138   N     0.00000   0.87210   0.06869   0.00000  Uiso   1.00
C139   C     0.50000   0.31261   0.59595   0.00000  Uiso   1.00
N140   N     0.50000   0.37210   0.56869   0.00000  Uiso   1.00
C141   C     0.06261   0.75000   0.15405   0.00000  Uiso   1.00
N142   N     0.12210   0.75000   0.18131   0.00000  Uiso   1.00
C143   C     0.43739   0.25000   0.65405   0.00000  Uiso   1.00
N144   N     0.37790   0.25000   0.68131   0.00000  Uiso   1.00
C145   C     0.00000   0.18739   0.90405   0.00000  Uiso   1.00
N146   N     0.00000   0.12790   0.93131   0.00000  Uiso   1.00
C147   C     0.50000   0.68739   0.40405   0.00000  Uiso   1.00
N148   N     0.50000   0.62790   0.43131   0.00000  Uiso   1.00
C149   C     0.50000   0.81261   0.40405   0.00000  Uiso   1.00
N150   N     0.50000   0.87210   0.43131   0.00000  Uiso   1.00
C151   C     0.00000   0.31261   0.90405   0.00000  Uiso   1.00
N152   N     0.00000   0.37210   0.93131   0.00000  Uiso   1.00
C153   C     0.56261   0.25000   0.65405   0.00000  Uiso   1.00
N154   N     0.62210   0.25000   0.68131   0.00000  Uiso   1.00
C155   C     0.93739   0.75000   0.15405   0.00000  Uiso   1.00
N156   N     0.87790   0.75000   0.18131   0.00000  Uiso   1.00
C157   C     0.93739   0.25000   0.84595   0.00000  Uiso   1.00
N158   N     0.87790   0.25000   0.81869   0.00000  Uiso   1.00
C159   C     0.56261   0.75000   0.34595   0.00000  Uiso   1.00
N160   N     0.62210   0.75000   0.31869   0.00000  Uiso   1.00
C161   C     0.43894   0.81106   0.37500   0.00000  Uiso   1.00
C162   C     0.93894   0.31106   0.87500   0.00000  Uiso   1.00
C163   C     0.06106   0.18894   0.87500   0.00000  Uiso   1.00
C164   C     0.56106   0.68894   0.37500   0.00000  Uiso   1.00
C165   C     0.43894   0.18894   0.62500   0.00000  Uiso   1.00
C166   C     0.93894   0.68894   0.12500   0.00000  Uiso   1.00
C167   C     0.06106   0.81106   0.12500   0.00000  Uiso   1.00
C168   C     0.56106   0.31106   0.62500   0.00000  Uiso   1.00
C169   C     0.56106   0.18894   0.62500   0.00000  Uiso   1.00
C170   C     0.06106   0.68894   0.12500   0.00000  Uiso   1.00
C171   C     0.93894   0.81106   0.12500   0.00000  Uiso   1.00
C172   C     0.43894   0.31106   0.62500   0.00000  Uiso   1.00
C173   C     0.56106   0.81106   0.37500   0.00000  Uiso   1.00
C174   C     0.06106   0.31106   0.87500   0.00000  Uiso   1.00
C175   C     0.93894   0.18894   0.87500   0.00000  Uiso   1.00
C176   C     0.43894   0.68894   0.37500   0.00000  Uiso   1.00
C177   C     0.25000   0.82007   0.25000   0.00000  Uiso   1.00
H178   H     0.25000   0.87287   0.25000   0.00000  Uiso   1.00
C179   C     0.75000   0.32007   0.75000   0.00000  Uiso   1.00
H180   H     0.75000   0.37287   0.75000   0.00000  Uiso   1.00
C181   C     0.25000   0.17993   0.75000   0.00000  Uiso   1.00
H182   H     0.25000   0.12713   0.75000   0.00000  Uiso   1.00
C183   C     0.75000   0.67993   0.25000   0.00000  Uiso   1.00
H184   H     0.75000   0.62713   0.25000   0.00000  Uiso   1.00
C185   C     0.42993   0.00000   0.50000   0.00000  Uiso   1.00
H186   H     0.37713   0.00000   0.50000   0.00000  Uiso   1.00
C187   C     0.92993   0.50000   0.00000   0.00000  Uiso   1.00
H188   H     0.87713   0.50000   0.00000   0.00000  Uiso   1.00
C189   C     0.07007   0.00000   0.00000   0.00000  Uiso   1.00
H190   H     0.12287   0.00000   0.00000   0.00000  Uiso   1.00
C191   C     0.57007   0.50000   0.50000   0.00000  Uiso   1.00
H192   H     0.62287   0.50000   0.50000   0.00000  Uiso   1.00
C193   C     0.75000   0.17993   0.75000   0.00000  Uiso   1.00
H194   H     0.75000   0.12713   0.75000   0.00000  Uiso   1.00
C195   C     0.25000   0.67993   0.25000   0.00000  Uiso   1.00
H196   H     0.25000   0.62713   0.25000   0.00000  Uiso   1.00
C197   C     0.75000   0.82007   0.25000   0.00000  Uiso   1.00
H198   H     0.75000   0.87287   0.25000   0.00000  Uiso   1.00
C199   C     0.25000   0.32007   0.75000   0.00000  Uiso   1.00
H200   H     0.25000   0.37287   0.75000   0.00000  Uiso   1.00
C201   C     0.57007   0.00000   0.50000   0.00000  Uiso   1.00
H202   H     0.62287   0.00000   0.50000   0.00000  Uiso   1.00
C203   C     0.07007   0.50000   0.00000   0.00000  Uiso   1.00
H204   H     0.12287   0.50000   0.00000   0.00000  Uiso   1.00
C205   C     0.92993   0.00000   0.00000   0.00000  Uiso   1.00
H206   H     0.87713   0.00000   0.00000   0.00000  Uiso   1.00
C207   C     0.42993   0.50000   0.50000   0.00000  Uiso   1.00
H208   H     0.37713   0.50000   0.50000   0.00000  Uiso   1.00
C209   C     0.50000   0.75000   0.43041   0.00000  Uiso   1.00
C210   C     0.00000   0.25000   0.93041   0.00000  Uiso   1.00
C211   C     0.50000   0.25000   0.68041   0.00000  Uiso   1.00
C212   C     0.00000   0.75000   0.18041   0.00000  Uiso   1.00
C213   C     0.00000   0.75000   0.06959   0.00000  Uiso   1.00
C214   C     0.50000   0.25000   0.56959   0.00000  Uiso   1.00
C215   C     0.00000   0.25000   0.81959   0.00000  Uiso   1.00
C216   C     0.50000   0.75000   0.31959   0.00000  Uiso   1.00
H217   H     0.54345   0.25000   0.54893   0.00000  Uiso   1.00
H218   H     0.95655   0.75000   0.04893   0.00000  Uiso   1.00
H219   H     0.00000   0.29345   0.79893   0.00000  Uiso   1.00
H220   H     0.50000   0.79345   0.29893   0.00000  Uiso   1.00
H221   H     0.50000   0.70655   0.29893   0.00000  Uiso   1.00
H222   H     0.00000   0.20655   0.79893   0.00000  Uiso   1.00
H223   H     0.95655   0.25000   0.95107   0.00000  Uiso   1.00
H224   H     0.54345   0.75000   0.45107   0.00000  Uiso   1.00
H225   H     0.04345   0.25000   0.95107   0.00000  Uiso   1.00
H226   H     0.50000   0.29345   0.70107   0.00000  Uiso   1.00
H227   H     0.00000   0.79345   0.20107   0.00000  Uiso   1.00
H228   H     0.00000   0.70655   0.20107   0.00000  Uiso   1.00
H229   H     0.50000   0.20655   0.70107   0.00000  Uiso   1.00
H230   H     0.45655   0.75000   0.45107   0.00000  Uiso   1.00
H231   H     0.04345   0.75000   0.04893   0.00000  Uiso   1.00
H232   H     0.45655   0.25000   0.54893   0.00000  Uiso   1.00
loop_
_geom_bond_atom_site_label_1
_geom_bond_atom_site_label_2
_geom_bond_distance
_geom_bond_site_symmetry_2
_ccdc_geom_bond_type
C1     C2      1.453   .     S
C1     O3      1.216   .     D
C1     N130    1.383   .     S
C2     C102    1.377   .     S
C2     C195    1.402   .     D
H4     C161    1.106   .     S
C5     C6      1.453   .     S
C5     O7      1.216   .     D
C5     N158    1.383   .     S
C6     C98     1.377   .     S
C6     C193    1.402   .     D
H8     C162    1.106   .     S
C9     C10     1.453   .     S
C9     O11     1.216   .     D
C9     N132    1.383   .     S
C10    C110    1.377   .     S
C10    C199    1.402   .     D
H12    C163    1.106   .     S
C13    C14     1.453   .     S
C13    O15     1.216   .     D
C13    N160    1.383   .     S
C14    C106    1.377   .     D
C14    C197    1.402   .     S
H16    C164    1.106   .     S
C17    C18     1.453   .     S
C17    O19     1.216   .     D
C17    N134    1.383   .     S
C18    C122    1.377   .     D
C18    C201    1.402   .     S
H20    C165    1.106   .     S
C21    C22     1.453   .     S
C21    O23     1.216   .     D
C21    N136    1.383   .     S
C22    C126    1.377   1_455 D
C22    C203    1.402   .     S
H24    C166    1.106   .     S
C25    C26     1.453   .     S
C25    O27     1.216   .     D
C25    N138    1.383   1_655 S
C26    C114    1.377   1_655 D
C26    C205    1.402   1_565 S
H28    C167    1.106   .     S
C29    C30     1.453   .     S
C29    O31     1.216   .     D
C29    N140    1.383   .     S
C30    C118    1.377   .     D
C30    C207    1.402   .     S
H32    C168    1.106   .     S
C33    C34     1.453   .     S
C33    O35     1.216   .     D
C33    N142    1.383   .     S
C34    C70     1.377   .     D
C34    C195    1.402   .     S
H36    C167    1.106   .     S
C37    C38     1.453   .     S
C37    O39     1.216   .     D
C37    N154    1.383   .     S
C38    C66     1.377   .     D
C38    C193    1.402   .     S
H40    C168    1.106   .     S
C41    C42     1.453   .     S
C41    O43     1.216   .     D
C41    N144    1.383   .     S
C42    C78     1.377   .     D
C42    C199    1.402   .     S
H44    C165    1.106   .     S
C45    C46     1.453   .     S
C45    O47     1.216   .     D
C45    N156    1.383   .     S
C46    C74     1.377   .     S
C46    C197    1.402   .     D
H48    C166    1.106   .     S
C49    C50     1.453   .     S
C49    O51     1.216   .     D
C49    N146    1.383   1_655 S
C50    C90     1.377   1_655 S
C50    C205    1.402   1_556 D
H52    C163    1.106   .     S
C53    C54     1.453   .     S
C53    O55     1.216   .     D
C53    N148    1.383   .     S
C54    C94     1.377   .     S
C54    C207    1.402   .     D
H56    C164    1.106   .     S
C57    C58     1.453   .     S
C57    O59     1.216   .     D
C57    N150    1.383   .     S
C58    C82     1.377   .     S
C58    C201    1.402   1_565 D
H60    C161    1.106   .     S
C61    C62     1.453   .     S
C61    O63     1.216   .     D
C61    N152    1.383   .     S
C62    C86     1.377   1_455 S
C62    C203    1.402   1_556 D
H64    C162    1.106   .     S
C65    C66     1.453   .     S
C65    O67     1.216   .     D
C65    N154    1.383   .     S
C66    C179    1.402   .     S
H68    C169    1.106   .     S
C69    C70     1.453   .     S
C69    O71     1.216   .     D
C69    N142    1.383   .     S
C70    C177    1.402   .     S
H72    C170    1.106   .     S
C73    C74     1.453   .     S
C73    O75     1.216   .     D
C73    N156    1.383   .     S
C74    C183    1.402   .     D
H76    C171    1.106   .     S
C77    C78     1.453   .     S
C77    O79     1.216   .     D
C77    N144    1.383   .     S
C78    C181    1.402   .     S
H80    C172    1.106   .     S
C81    C82     1.453   .     S
C81    O83     1.216   .     D
C81    N150    1.383   .     S
C82    C185    1.402   1_565 D
H84    C173    1.106   .     S
C85    C86     1.453   .     S
C85    O87     1.216   .     D
C85    N152    1.383   1_655 S
C86    C62     1.377   1_655 S
C86    C187    1.402   1_556 D
H88    C174    1.106   .     S
C89    C90     1.453   .     S
C89    O91     1.216   .     D
C89    N146    1.383   .     S
C90    C50     1.377   1_455 S
C90    C189    1.402   1_556 D
H92    C175    1.106   .     S
C93    C94     1.453   .     S
C93    O95     1.216   .     D
C93    N148    1.383   .     S
C94    C191    1.402   .     D
H96    C176    1.106   .     S
C97    C98     1.453   .     S
C97    O99     1.216   .     D
C97    N158    1.383   .     S
C98    C179    1.402   .     D
H100   C175    1.106   .     S
C101   C102    1.453   .     S
C101   O103    1.216   .     D
C101   N130    1.383   .     S
C102   C177    1.402   .     D
H104   C176    1.106   .     S
C105   C106    1.453   .     S
C105   O107    1.216   .     D
C105   N160    1.383   .     S
C106   C183    1.402   .     S
H108   C173    1.106   .     S
C109   C110    1.453   .     S
C109   O111    1.216   .     D
C109   N132    1.383   .     S
C110   C181    1.402   .     D
H112   C174    1.106   .     S
C113   C114    1.453   .     S
C113   O115    1.216   .     D
C113   N138    1.383   .     S
C114   C26     1.377   1_455 D
C114   C189    1.402   1_565 S
H116   C171    1.106   .     S
C117   C118    1.453   .     S
C117   O119    1.216   .     D
C117   N140    1.383   .     S
C118   C191    1.402   .     S
H120   C172    1.106   .     S
C121   C122    1.453   .     S
C121   O123    1.216   .     D
C121   N134    1.383   .     S
C122   C185    1.402   .     S
H124   C169    1.106   .     S
C125   C126    1.453   .     S
C125   O127    1.216   .     D
C125   N136    1.383   1_655 S
C126   C22     1.377   1_655 D
C126   C187    1.402   .     S
H128   C170    1.106   .     S
C129   N130    1.502   .     S
C129   C161    1.562   .     S
C129   C176    1.562   .     S
C129   C216    1.538   .     S
C131   N132    1.502   .     S
C131   C163    1.562   .     S
C131   C174    1.562   .     S
C131   C215    1.538   .     S
C133   N134    1.502   .     S
C133   C165    1.562   .     S
C133   C169    1.562   .     S
C133   C214    1.538   .     S
C135   N136    1.502   .     S
C135   C166    1.562   1_455 S
C135   C170    1.562   .     S
C135   C213    1.538   .     S
N136   C125    1.383   1_455 S
C137   N138    1.502   .     S
C137   C167    1.562   .     S
C137   C171    1.562   1_455 S
C137   C213    1.538   .     S
N138   C25     1.383   1_455 S
C139   N140    1.502   .     S
C139   C168    1.562   .     S
C139   C172    1.562   .     S
C139   C214    1.538   .     S
C141   N142    1.502   .     S
C141   C167    1.562   .     S
C141   C170    1.562   .     S
C141   C212    1.538   .     S
C143   N144    1.502   .     S
C143   C165    1.562   .     S
C143   C172    1.562   .     S
C143   C211    1.538   .     S
C145   N146    1.502   .     S
C145   C163    1.562   .     S
C145   C175    1.562   1_455 S
C145   C210    1.538   .     S
N146   C49     1.383   1_455 S
C147   N148    1.502   .     S
C147   C164    1.562   .     S
C147   C176    1.562   .     S
C147   C209    1.538   .     S
C149   N150    1.502   .     S
C149   C161    1.562   .     S
C149   C173    1.562   .     S
C149   C209    1.538   .     S
C151   N152    1.502   .     S
C151   C162    1.562   1_455 S
C151   C174    1.562   .     S
C151   C210    1.538   .     S
N152   C85     1.383   1_455 S
C153   N154    1.502   .     S
C153   C168    1.562   .     S
C153   C169    1.562   .     S
C153   C211    1.538   .     S
C155   N156    1.502   .     S
C155   C166    1.562   .     S
C155   C171    1.562   .     S
C155   C212    1.538   1_655 S
C157   N158    1.502   .     S
C157   C162    1.562   .     S
C157   C175    1.562   .     S
C157   C215    1.538   1_655 S
C159   N160    1.502   .     S
C159   C164    1.562   .     S
C159   C173    1.562   .     S
C159   C216    1.538   .     S
C162   C151    1.562   1_655 S
C166   C135    1.562   1_655 S
C171   C137    1.562   1_655 S
C175   C145    1.562   1_655 S
C177   H178    1.082   .     S
C179   H180    1.082   .     S
C181   H182    1.082   .     S
C183   H184    1.082   .     S
C185   C82     1.402   1_545 D
C185   H186    1.082   .     S
C187   C86     1.402   1_554 D
C187   H188    1.082   .     S
C189   C114    1.402   1_545 S
C189   C90     1.402   1_554 D
C189   H190    1.082   .     S
C191   H192    1.082   .     S
C193   H194    1.082   .     S
C195   H196    1.082   .     S
C197   H198    1.082   .     S
C199   H200    1.082   .     S
C201   C58     1.402   1_545 D
C201   H202    1.082   .     S
C203   C62     1.402   1_554 D
C203   H204    1.082   .     S
C205   C26     1.402   1_545 S
C205   C50     1.402   1_554 D
C205   H206    1.082   .     S
C207   H208    1.082   .     S
C209   H224    1.111   .     S
C209   H230    1.111   .     S
C210   H223    1.111   1_455 S
C210   H225    1.111   .     S
C211   H226    1.111   .     S
C211   H229    1.111   .     S
C212   C155    1.538   1_455 S
C212   H227    1.111   .     S
C212   H228    1.111   .     S
C213   H218    1.111   1_455 S
C213   H231    1.111   .     S
C214   H217    1.111   .     S
C214   H232    1.111   .     S
C215   C157    1.538   1_455 S
C215   H219    1.111   .     S
C215   H222    1.111   .     S
C216   H220    1.111   .     S
C216   H221    1.111   .     S
H218   C213    1.111   1_655 S
H223   C210    1.111   1_655 S
