data_364
_audit_creation_date              2023-09-08
_audit_creation_method            'Materials Studio'
_symmetry_space_group_name_H-M    'P1'
_symmetry_Int_Tables_number       1
_symmetry_cell_setting            triclinic
loop_
_symmetry_equiv_pos_as_xyz
  x,y,z
_cell_length_a                    20.5700
_cell_length_b                    20.5700
_cell_length_c                    11.4300
_cell_angle_alpha                 90.0000
_cell_angle_beta                  90.0000
_cell_angle_gamma                 90.0000
loop_
_atom_site_label
_atom_site_type_symbol
_atom_site_fract_x
_atom_site_fract_y
_atom_site_fract_z
_atom_site_U_iso_or_equiv
_atom_site_adp_type
_atom_site_occupancy
C1     C     0.47571   0.44200   0.55616   0.00000  Uiso   1.00
C2     C     0.52064   0.43984   0.46410   0.00000  Uiso   1.00
C3     C     0.55155   0.38515   0.40597   0.00000  Uiso   1.00
C4     C     0.54406   0.49556   0.41002   0.00000  Uiso   1.00
C5     C     0.63302   0.36942   0.23675   0.00000  Uiso   1.00
C6     C     0.62965   0.30142   0.24008   0.00000  Uiso   1.00
C7     C     0.66682   0.26372   0.16367   0.00000  Uiso   1.00
C8     C     0.70824   0.29296   0.08099   0.00000  Uiso   1.00
C9     C     0.71205   0.36119   0.07924   0.00000  Uiso   1.00
C10    C     0.67483   0.39883   0.15563   0.00000  Uiso   1.00
C11    C     0.91081   0.02527   0.31895   0.00000  Uiso   1.00
O12    O     0.95703   0.17188   0.43028   0.00000  Uiso   1.00
O13    O     0.88153   0.98856   0.25392   0.00000  Uiso   1.00
N14    N     0.59416   0.40820   0.31546   0.00000  Uiso   1.00
H15    H     0.45787   0.39496   0.59794   0.00000  Uiso   1.00
H16    H     0.59630   0.27631   0.30568   0.00000  Uiso   1.00
H17    H     0.66387   0.20843   0.16769   0.00000  Uiso   1.00
H18    H     0.74590   0.38655   0.01478   0.00000  Uiso   1.00
H19    H     0.67870   0.45406   0.15157   0.00000  Uiso   1.00
C20    C     0.02429   0.05800   0.55616   0.00000  Uiso   1.00
C21    C     0.97936   0.06016   0.46410   0.00000  Uiso   1.00
C22    C     0.94845   0.11485   0.40597   0.00000  Uiso   1.00
C23    C     0.95594   0.00444   0.41002   0.00000  Uiso   1.00
C24    C     0.86698   0.13058   0.23675   0.00000  Uiso   1.00
C25    C     0.87035   0.19858   0.24008   0.00000  Uiso   1.00
C26    C     0.83318   0.23628   0.16367   0.00000  Uiso   1.00
C27    C     0.79176   0.20704   0.08099   0.00000  Uiso   1.00
C28    C     0.78795   0.13881   0.07924   0.00000  Uiso   1.00
C29    C     0.82517   0.10117   0.15563   0.00000  Uiso   1.00
C30    C     0.58919   0.47473   0.31895   0.00000  Uiso   1.00
O31    O     0.54297   0.32812   0.43028   0.00000  Uiso   1.00
O32    O     0.61847   0.51144   0.25392   0.00000  Uiso   1.00
N33    N     0.90584   0.09180   0.31546   0.00000  Uiso   1.00
H34    H     0.04213   0.10504   0.59794   0.00000  Uiso   1.00
H35    H     0.90370   0.22369   0.30568   0.00000  Uiso   1.00
H36    H     0.83613   0.29157   0.16769   0.00000  Uiso   1.00
H37    H     0.75410   0.11345   0.01478   0.00000  Uiso   1.00
H38    H     0.82130   0.04594   0.15157   0.00000  Uiso   1.00
C39    C     0.05800   0.47571   0.55616   0.00000  Uiso   1.00
C40    C     0.06016   0.52064   0.46410   0.00000  Uiso   1.00
C41    C     0.11485   0.55155   0.40597   0.00000  Uiso   1.00
C42    C     0.00444   0.54406   0.41002   0.00000  Uiso   1.00
C43    C     0.13058   0.63302   0.23675   0.00000  Uiso   1.00
C44    C     0.19858   0.62965   0.24008   0.00000  Uiso   1.00
C45    C     0.23628   0.66682   0.16367   0.00000  Uiso   1.00
C46    C     0.20704   0.70824   0.08099   0.00000  Uiso   1.00
C47    C     0.13881   0.71205   0.07924   0.00000  Uiso   1.00
C48    C     0.10117   0.67483   0.15563   0.00000  Uiso   1.00
C49    C     0.47473   0.91081   0.31895   0.00000  Uiso   1.00
O50    O     0.32812   0.95703   0.43028   0.00000  Uiso   1.00
O51    O     0.51144   0.88153   0.25392   0.00000  Uiso   1.00
N52    N     0.09180   0.59416   0.31546   0.00000  Uiso   1.00
H53    H     0.10504   0.45787   0.59794   0.00000  Uiso   1.00
H54    H     0.22369   0.59630   0.30568   0.00000  Uiso   1.00
H55    H     0.29157   0.66387   0.16769   0.00000  Uiso   1.00
H56    H     0.11345   0.74590   0.01478   0.00000  Uiso   1.00
H57    H     0.04594   0.67870   0.15157   0.00000  Uiso   1.00
C58    C     0.44200   0.02429   0.55616   0.00000  Uiso   1.00
C59    C     0.43984   0.97936   0.46410   0.00000  Uiso   1.00
C60    C     0.38515   0.94845   0.40597   0.00000  Uiso   1.00
C61    C     0.49556   0.95594   0.41002   0.00000  Uiso   1.00
C62    C     0.36942   0.86698   0.23675   0.00000  Uiso   1.00
C63    C     0.30142   0.87035   0.24008   0.00000  Uiso   1.00
C64    C     0.26372   0.83318   0.16367   0.00000  Uiso   1.00
C65    C     0.29296   0.79176   0.08099   0.00000  Uiso   1.00
C66    C     0.36119   0.78795   0.07924   0.00000  Uiso   1.00
C67    C     0.39883   0.82517   0.15563   0.00000  Uiso   1.00
C68    C     0.02527   0.58919   0.31895   0.00000  Uiso   1.00
O69    O     0.17188   0.54297   0.43028   0.00000  Uiso   1.00
O70    O     0.98856   0.61847   0.25392   0.00000  Uiso   1.00
N71    N     0.40820   0.90584   0.31546   0.00000  Uiso   1.00
H72    H     0.39496   0.04213   0.59794   0.00000  Uiso   1.00
H73    H     0.27631   0.90370   0.30568   0.00000  Uiso   1.00
H74    H     0.20843   0.83613   0.16769   0.00000  Uiso   1.00
H75    H     0.38655   0.75410   0.01478   0.00000  Uiso   1.00
H76    H     0.45406   0.82130   0.15157   0.00000  Uiso   1.00
C77    C     0.52429   0.55800   0.44384   0.00000  Uiso   1.00
C78    C     0.47936   0.56016   0.53590   0.00000  Uiso   1.00
C79    C     0.44845   0.61485   0.59403   0.00000  Uiso   1.00
C80    C     0.45594   0.50444   0.58998   0.00000  Uiso   1.00
C81    C     0.36698   0.63058   0.76325   0.00000  Uiso   1.00
C82    C     0.37035   0.69858   0.75992   0.00000  Uiso   1.00
C83    C     0.33318   0.73628   0.83633   0.00000  Uiso   1.00
C84    C     0.29176   0.70704   0.91901   0.00000  Uiso   1.00
C85    C     0.28795   0.63881   0.92076   0.00000  Uiso   1.00
C86    C     0.32517   0.60117   0.84437   0.00000  Uiso   1.00
C87    C     0.08919   0.97473   0.68105   0.00000  Uiso   1.00
O88    O     0.04297   0.82812   0.56972   0.00000  Uiso   1.00
O89    O     0.11847   0.01144   0.74608   0.00000  Uiso   1.00
N90    N     0.40584   0.59180   0.68454   0.00000  Uiso   1.00
H91    H     0.54213   0.60504   0.40206   0.00000  Uiso   1.00
H92    H     0.40370   0.72369   0.69432   0.00000  Uiso   1.00
H93    H     0.33613   0.79157   0.83231   0.00000  Uiso   1.00
H94    H     0.25410   0.61345   0.98522   0.00000  Uiso   1.00
H95    H     0.32130   0.54594   0.84843   0.00000  Uiso   1.00
C96    C     0.97571   0.94200   0.44384   0.00000  Uiso   1.00
C97    C     0.02064   0.93984   0.53590   0.00000  Uiso   1.00
C98    C     0.05155   0.88515   0.59403   0.00000  Uiso   1.00
C99    C     0.04406   0.99556   0.58998   0.00000  Uiso   1.00
C100   C     0.13302   0.86942   0.76325   0.00000  Uiso   1.00
C101   C     0.12965   0.80142   0.75992   0.00000  Uiso   1.00
C102   C     0.16682   0.76372   0.83633   0.00000  Uiso   1.00
C103   C     0.20824   0.79296   0.91901   0.00000  Uiso   1.00
C104   C     0.21205   0.86119   0.92076   0.00000  Uiso   1.00
C105   C     0.17483   0.89883   0.84437   0.00000  Uiso   1.00
C106   C     0.41081   0.52527   0.68105   0.00000  Uiso   1.00
O107   O     0.45703   0.67188   0.56972   0.00000  Uiso   1.00
O108   O     0.38153   0.48856   0.74608   0.00000  Uiso   1.00
N109   N     0.09416   0.90820   0.68454   0.00000  Uiso   1.00
H110   H     0.95787   0.89496   0.40206   0.00000  Uiso   1.00
H111   H     0.09630   0.77631   0.69432   0.00000  Uiso   1.00
H112   H     0.16387   0.70843   0.83231   0.00000  Uiso   1.00
H113   H     0.24590   0.88655   0.98522   0.00000  Uiso   1.00
H114   H     0.17870   0.95406   0.84843   0.00000  Uiso   1.00
C115   C     0.94200   0.52429   0.44384   0.00000  Uiso   1.00
C116   C     0.93984   0.47936   0.53590   0.00000  Uiso   1.00
C117   C     0.88515   0.44845   0.59403   0.00000  Uiso   1.00
C118   C     0.99556   0.45594   0.58998   0.00000  Uiso   1.00
C119   C     0.86942   0.36698   0.76325   0.00000  Uiso   1.00
C120   C     0.80142   0.37035   0.75992   0.00000  Uiso   1.00
C121   C     0.76372   0.33318   0.83633   0.00000  Uiso   1.00
C122   C     0.79296   0.29176   0.91901   0.00000  Uiso   1.00
C123   C     0.86119   0.28795   0.92076   0.00000  Uiso   1.00
C124   C     0.89883   0.32517   0.84437   0.00000  Uiso   1.00
C125   C     0.52527   0.08919   0.68105   0.00000  Uiso   1.00
O126   O     0.67188   0.04297   0.56972   0.00000  Uiso   1.00
O127   O     0.48856   0.11847   0.74608   0.00000  Uiso   1.00
N128   N     0.90820   0.40584   0.68454   0.00000  Uiso   1.00
H129   H     0.89496   0.54213   0.40206   0.00000  Uiso   1.00
H130   H     0.77631   0.40370   0.69432   0.00000  Uiso   1.00
H131   H     0.70843   0.33613   0.83231   0.00000  Uiso   1.00
H132   H     0.88655   0.25410   0.98522   0.00000  Uiso   1.00
H133   H     0.95406   0.32130   0.84843   0.00000  Uiso   1.00
C134   C     0.55800   0.97571   0.44384   0.00000  Uiso   1.00
C135   C     0.56016   0.02064   0.53590   0.00000  Uiso   1.00
C136   C     0.61485   0.05155   0.59403   0.00000  Uiso   1.00
C137   C     0.50444   0.04406   0.58998   0.00000  Uiso   1.00
C138   C     0.63058   0.13302   0.76325   0.00000  Uiso   1.00
C139   C     0.69858   0.12965   0.75992   0.00000  Uiso   1.00
C140   C     0.73628   0.16682   0.83633   0.00000  Uiso   1.00
C141   C     0.70704   0.20824   0.91901   0.00000  Uiso   1.00
C142   C     0.63881   0.21205   0.92076   0.00000  Uiso   1.00
C143   C     0.60117   0.17483   0.84437   0.00000  Uiso   1.00
C144   C     0.97473   0.41081   0.68105   0.00000  Uiso   1.00
O145   O     0.82812   0.45703   0.56972   0.00000  Uiso   1.00
O146   O     0.01144   0.38153   0.74608   0.00000  Uiso   1.00
N147   N     0.59180   0.09416   0.68454   0.00000  Uiso   1.00
H148   H     0.60504   0.95787   0.40206   0.00000  Uiso   1.00
H149   H     0.72369   0.09630   0.69432   0.00000  Uiso   1.00
H150   H     0.79157   0.16387   0.83231   0.00000  Uiso   1.00
H151   H     0.61345   0.24590   0.98522   0.00000  Uiso   1.00
H152   H     0.54594   0.17870   0.84843   0.00000  Uiso   1.00
C153   C     0.75000   0.25000   0.00000   0.00000  Uiso   1.00
C154   C     0.25000   0.75000   0.00000   0.00000  Uiso   1.00
loop_
_geom_bond_atom_site_label_1
_geom_bond_atom_site_label_2
_geom_bond_distance
_geom_bond_site_symmetry_2
_ccdc_geom_bond_type
C1     C2      1.401   .     D
C1     H15     1.140   .     S
C1     C80     1.402   .     S
C2     C3      1.453   .     S
C2     C4      1.388   .     S
C3     N14     1.436   .     S
C3     O31     1.218   .     D
C4     C30     1.459   .     S
C4     C77     1.402   .     D
C5     C6      1.401   .     D
C5     C10     1.402   .     S
C5     N14     1.444   .     S
C6     C7      1.396   .     S
C6     H16     1.140   .     S
C7     C8      1.407   .     D
C7     H17     1.140   .     S
C8     C9      1.406   .     S
C8     C153    1.541   .     S
C9     C10     1.396   .     D
C9     H18     1.140   .     S
C10    H19     1.140   .     S
C11    O13     1.219   1_545 D
C11    C23     1.459   .     S
C11    N33     1.373   .     S
O12    C22     1.218   .     D
O13    C11     1.219   1_565 D
N14    C30     1.373   .     S
C20    C21     1.401   1_455 D
C20    H34     1.140   .     S
C20    C99     1.402   1_545 S
C21    C20     1.401   1_655 D
C21    C22     1.453   .     S
C21    C23     1.388   .     S
C22    N33     1.436   .     S
C23    C96     1.402   1_545 D
C24    C25     1.401   .     D
C24    C29     1.402   .     S
C24    N33     1.444   .     S
C25    C26     1.396   .     S
C25    H35     1.140   .     S
C26    C27     1.407   .     D
C26    H36     1.140   .     S
C27    C28     1.406   .     S
C27    C153    1.541   .     S
C28    C29     1.396   .     D
C28    H37     1.140   .     S
C29    H38     1.140   .     S
C30    O32     1.219   .     D
C39    C40     1.401   .     D
C39    H53     1.140   .     S
C39    C118    1.402   1_455 S
C40    C41     1.453   .     S
C40    C42     1.388   .     S
C41    N52     1.436   .     S
C41    O69     1.218   .     D
C42    C68     1.459   .     S
C42    C115    1.402   1_455 D
C43    C44     1.401   .     D
C43    C48     1.402   .     S
C43    N52     1.444   .     S
C44    C45     1.396   .     S
C44    H54     1.140   .     S
C45    C46     1.407   .     D
C45    H55     1.140   .     S
C46    C47     1.406   .     S
C46    C154    1.541   .     S
C47    C48     1.396   .     D
C47    H56     1.140   .     S
C48    H57     1.140   .     S
C49    O51     1.219   .     D
C49    C61     1.459   .     S
C49    N71     1.373   .     S
O50    C60     1.218   .     D
N52    C68     1.373   .     S
C58    C59     1.401   1_545 S
C58    H72     1.140   .     S
C58    C137    1.402   .     D
C59    C58     1.401   1_565 S
C59    C60     1.453   .     S
C59    C61     1.388   .     D
C60    N71     1.436   .     S
C61    C134    1.402   .     S
C62    C63     1.401   .     D
C62    C67     1.402   .     S
C62    N71     1.444   .     S
C63    C64     1.396   .     S
C63    H73     1.140   .     S
C64    C65     1.407   .     D
C64    H74     1.140   .     S
C65    C66     1.406   .     S
C65    C154    1.541   .     S
C66    C67     1.396   .     D
C66    H75     1.140   .     S
C67    H76     1.140   .     S
C68    O70     1.219   1_455 D
O70    C68     1.219   1_655 D
C77    C78     1.401   .     S
C77    H91     1.140   .     S
C78    C79     1.453   .     S
C78    C80     1.388   .     D
C79    N90     1.436   .     S
C79    O107    1.218   .     D
C80    C106    1.459   .     S
C81    C82     1.401   .     D
C81    C86     1.402   .     S
C81    N90     1.444   .     S
C82    C83     1.396   .     S
C82    H92     1.140   .     S
C83    C84     1.407   .     D
C83    H93     1.140   .     S
C84    C85     1.406   .     S
C84    C154    1.541   1_556 S
C85    C86     1.396   .     D
C85    H94     1.140   .     S
C86    H95     1.140   .     S
C87    O89     1.219   1_565 D
C87    C99     1.459   .     S
C87    N109    1.373   .     S
O88    C98     1.218   .     D
O89    C87     1.219   1_545 D
N90    C106    1.373   .     S
C96    C23     1.402   1_565 D
C96    C97     1.401   1_655 S
C96    H110    1.140   .     S
C97    C96     1.401   1_455 S
C97    C98     1.453   .     S
C97    C99     1.388   .     D
C98    N109    1.436   .     S
C99    C20     1.402   1_565 S
C100   C101    1.401   .     D
C100   C105    1.402   .     S
C100   N109    1.444   .     S
C101   C102    1.396   .     S
C101   H111    1.140   .     S
C102   C103    1.407   .     D
C102   H112    1.140   .     S
C103   C104    1.406   .     S
C103   C154    1.541   1_556 S
C104   C105    1.396   .     D
C104   H113    1.140   .     S
C105   H114    1.140   .     S
C106   O108    1.219   .     D
C115   C42     1.402   1_655 D
C115   C116    1.401   .     S
C115   H129    1.140   .     S
C116   C117    1.453   .     S
C116   C118    1.388   .     D
C117   N128    1.436   .     S
C117   O145    1.218   .     D
C118   C39     1.402   1_655 S
C118   C144    1.459   .     S
C119   C120    1.401   .     D
C119   C124    1.402   .     S
C119   N128    1.444   .     S
C120   C121    1.396   .     S
C120   H130    1.140   .     S
C121   C122    1.407   .     D
C121   H131    1.140   .     S
C122   C123    1.406   .     S
C122   C153    1.541   1_556 S
C123   C124    1.396   .     D
C123   H132    1.140   .     S
C124   H133    1.140   .     S
C125   O127    1.219   .     D
C125   C137    1.459   .     S
C125   N147    1.373   .     S
O126   C136    1.218   .     D
N128   C144    1.373   .     S
C134   C135    1.401   1_565 D
C134   H148    1.140   .     S
C135   C134    1.401   1_545 D
C135   C136    1.453   .     S
C135   C137    1.388   .     S
C136   N147    1.436   .     S
C138   C139    1.401   .     D
C138   C143    1.402   .     S
C138   N147    1.444   .     S
C139   C140    1.396   .     S
C139   H149    1.140   .     S
C140   C141    1.407   .     D
C140   H150    1.140   .     S
C141   C142    1.406   .     S
C141   C153    1.541   1_556 S
C142   C143    1.396   .     D
C142   H151    1.140   .     S
C143   H152    1.140   .     S
C144   O146    1.219   1_655 D
O146   C144    1.219   1_455 D
C153   C122    1.541   1_554 S
C153   C141    1.541   1_554 S
C154   C103    1.541   1_554 S
C154   C84     1.541   1_554 S
