data_365
_audit_creation_date              2023-09-08
_audit_creation_method            'Materials Studio'
_symmetry_space_group_name_H-M    'P1'
_symmetry_Int_Tables_number       1
_symmetry_cell_setting            triclinic
loop_
_symmetry_equiv_pos_as_xyz
  x,y,z
_cell_length_a                    36.2960
_cell_length_b                    36.2960
_cell_length_c                    3.4928
_cell_angle_alpha                 90.0000
_cell_angle_beta                  90.0000
_cell_angle_gamma                 120.0000
loop_
_atom_site_label
_atom_site_type_symbol
_atom_site_fract_x
_atom_site_fract_y
_atom_site_fract_z
_atom_site_U_iso_or_equiv
_atom_site_adp_type
_atom_site_occupancy
N1     N     0.44642   0.55367   0.50001   0.00000  Uiso   1.00
N2     N     0.44633   0.89275   0.50001   0.00000  Uiso   1.00
N3     N     0.10725   0.55358   0.50001   0.00000  Uiso   1.00
N4     N     0.55358   0.44633   0.50001   0.00000  Uiso   1.00
N5     N     0.55367   0.10725   0.50001   0.00000  Uiso   1.00
N6     N     0.89275   0.44642   0.50001   0.00000  Uiso   1.00
C7     C     0.53954   0.53953   0.50001   0.00000  Uiso   1.00
C8     C     0.46047   0.00001   0.50001   0.00000  Uiso   1.00
C9     C     0.99999   0.46046   0.50001   0.00000  Uiso   1.00
C10    C     0.46046   0.46047   0.50001   0.00000  Uiso   1.00
C11    C     0.53953   0.99999   0.50001   0.00000  Uiso   1.00
C12    C     0.00001   0.53954   0.50001   0.00000  Uiso   1.00
C13    C     0.53823   0.49998   0.50001   0.00000  Uiso   1.00
C14    C     0.50002   0.03825   0.50001   0.00000  Uiso   1.00
C15    C     0.96175   0.46177   0.50001   0.00000  Uiso   1.00
C16    C     0.46177   0.50002   0.50001   0.00000  Uiso   1.00
C17    C     0.49998   0.96175   0.50001   0.00000  Uiso   1.00
C18    C     0.03825   0.53823   0.50001   0.00000  Uiso   1.00
C19    C     0.50000   0.46177   0.50001   0.00000  Uiso   1.00
C20    C     0.53823   0.03823   0.50001   0.00000  Uiso   1.00
C21    C     0.96177   0.50000   0.50001   0.00000  Uiso   1.00
C22    C     0.50000   0.53823   0.50001   0.00000  Uiso   1.00
C23    C     0.46177   0.96177   0.50001   0.00000  Uiso   1.00
C24    C     0.03823   0.50000   0.50001   0.00000  Uiso   1.00
C25    C     0.35510   0.71041   0.50001   0.00000  Uiso   1.00
C26    C     0.28959   0.64469   0.50001   0.00000  Uiso   1.00
C27    C     0.35531   0.64490   0.50001   0.00000  Uiso   1.00
C28    C     0.64490   0.28959   0.50001   0.00000  Uiso   1.00
C29    C     0.71041   0.35531   0.50001   0.00000  Uiso   1.00
C30    C     0.64469   0.35510   0.50001   0.00000  Uiso   1.00
N31    N     0.31199   0.68781   0.50001   0.00000  Uiso   1.00
N32    N     0.31219   0.62418   0.50001   0.00000  Uiso   1.00
N33    N     0.37582   0.68801   0.50001   0.00000  Uiso   1.00
N34    N     0.68801   0.31219   0.50001   0.00000  Uiso   1.00
N35    N     0.68781   0.37582   0.50001   0.00000  Uiso   1.00
N36    N     0.62418   0.31199   0.50001   0.00000  Uiso   1.00
C37    C     0.37762   0.75547   0.50001   0.00000  Uiso   1.00
C38    C     0.24453   0.62215   0.50001   0.00000  Uiso   1.00
C39    C     0.37785   0.62238   0.50001   0.00000  Uiso   1.00
C40    C     0.62238   0.24453   0.50001   0.00000  Uiso   1.00
C41    C     0.75547   0.37785   0.50001   0.00000  Uiso   1.00
C42    C     0.62215   0.37762   0.50001   0.00000  Uiso   1.00
C43    C     0.35650   0.57746   0.50001   0.00000  Uiso   1.00
C44    C     0.42254   0.77903   0.50001   0.00000  Uiso   1.00
C45    C     0.22097   0.64350   0.50001   0.00000  Uiso   1.00
C46    C     0.64350   0.42253   0.50001   0.00000  Uiso   1.00
C47    C     0.57746   0.22096   0.50001   0.00000  Uiso   1.00
C48    C     0.77903   0.35650   0.50001   0.00000  Uiso   1.00
C49    C     0.37904   0.55522   0.50001   0.00000  Uiso   1.00
C50    C     0.44478   0.82381   0.50001   0.00000  Uiso   1.00
C51    C     0.17619   0.62096   0.50001   0.00000  Uiso   1.00
C52    C     0.62096   0.44478   0.50001   0.00000  Uiso   1.00
C53    C     0.55522   0.17618   0.50001   0.00000  Uiso   1.00
C54    C     0.82382   0.37904   0.50001   0.00000  Uiso   1.00
C55    C     0.42430   0.57581   0.50001   0.00000  Uiso   1.00
C56    C     0.42419   0.84849   0.50001   0.00000  Uiso   1.00
C57    C     0.15151   0.57570   0.50001   0.00000  Uiso   1.00
C58    C     0.57570   0.42419   0.50001   0.00000  Uiso   1.00
C59    C     0.57581   0.15151   0.50001   0.00000  Uiso   1.00
C60    C     0.84849   0.42430   0.50001   0.00000  Uiso   1.00
C61    C     0.44493   0.62107   0.50001   0.00000  Uiso   1.00
C62    C     0.37893   0.82386   0.50001   0.00000  Uiso   1.00
C63    C     0.17614   0.55507   0.50001   0.00000  Uiso   1.00
C64    C     0.55507   0.37893   0.50001   0.00000  Uiso   1.00
C65    C     0.62107   0.17614   0.50001   0.00000  Uiso   1.00
C66    C     0.82386   0.44493   0.50001   0.00000  Uiso   1.00
C67    C     0.42275   0.64366   0.50001   0.00000  Uiso   1.00
C68    C     0.35634   0.77909   0.50001   0.00000  Uiso   1.00
C69    C     0.22091   0.57725   0.50001   0.00000  Uiso   1.00
C70    C     0.57725   0.35634   0.50001   0.00000  Uiso   1.00
C71    C     0.64366   0.22091   0.50001   0.00000  Uiso   1.00
C72    C     0.77909   0.42275   0.50001   0.00000  Uiso   1.00
H73    H     0.32393   0.56031   0.50001   0.00000  Uiso   1.00
H74    H     0.43969   0.76363   0.50001   0.00000  Uiso   1.00
H75    H     0.23637   0.67607   0.50001   0.00000  Uiso   1.00
H76    H     0.67607   0.43969   0.50001   0.00000  Uiso   1.00
H77    H     0.56031   0.23637   0.50001   0.00000  Uiso   1.00
H78    H     0.76363   0.32393   0.50001   0.00000  Uiso   1.00
H79    H     0.36068   0.52310   0.50001   0.00000  Uiso   1.00
H80    H     0.47690   0.83757   0.50001   0.00000  Uiso   1.00
H81    H     0.16243   0.63932   0.50001   0.00000  Uiso   1.00
H82    H     0.63932   0.47690   0.50001   0.00000  Uiso   1.00
H83    H     0.52310   0.16243   0.50001   0.00000  Uiso   1.00
H84    H     0.83757   0.36068   0.50001   0.00000  Uiso   1.00
H85    H     0.47706   0.63946   0.50001   0.00000  Uiso   1.00
H86    H     0.36054   0.83760   0.50001   0.00000  Uiso   1.00
H87    H     0.16240   0.52294   0.50001   0.00000  Uiso   1.00
H88    H     0.52294   0.36054   0.50001   0.00000  Uiso   1.00
H89    H     0.63946   0.16240   0.50001   0.00000  Uiso   1.00
H90    H     0.83760   0.47706   0.50001   0.00000  Uiso   1.00
H91    H     0.44004   0.67621   0.50001   0.00000  Uiso   1.00
H92    H     0.32379   0.76383   0.50001   0.00000  Uiso   1.00
H93    H     0.23617   0.55996   0.50001   0.00000  Uiso   1.00
H94    H     0.55996   0.32379   0.50001   0.00000  Uiso   1.00
H95    H     0.67621   0.23617   0.50001   0.00000  Uiso   1.00
H96    H     0.76383   0.44004   0.50001   0.00000  Uiso   1.00
C97    C     0.57026   0.48966   0.50001   0.00000  Uiso   1.00
C98    C     0.51027   0.42970   0.50001   0.00000  Uiso   1.00
H99    H     0.56769   0.56767   0.50001   0.00000  Uiso   1.00
O100   O     0.60829   0.51888   0.50001   0.00000  Uiso   1.00
O101   O     0.48103   0.39168   0.50001   0.00000  Uiso   1.00
C102   C     0.51034   0.08060   0.50001   0.00000  Uiso   1.00
C103   C     0.57030   0.08057   0.50001   0.00000  Uiso   1.00
H104   H     0.43233   0.00002   0.50001   0.00000  Uiso   1.00
O105   O     0.48112   0.08941   0.50001   0.00000  Uiso   1.00
O106   O     0.60832   0.08935   0.50001   0.00000  Uiso   1.00
C107   C     0.91939   0.42974   0.50001   0.00000  Uiso   1.00
C108   C     0.91943   0.48973   0.50001   0.00000  Uiso   1.00
H109   H     0.99998   0.43231   0.50001   0.00000  Uiso   1.00
O110   O     0.91059   0.39171   0.50001   0.00000  Uiso   1.00
O111   O     0.91065   0.51897   0.50001   0.00000  Uiso   1.00
C112   C     0.42974   0.51034   0.50001   0.00000  Uiso   1.00
C113   C     0.48973   0.57030   0.50001   0.00000  Uiso   1.00
H114   H     0.43231   0.43233   0.50001   0.00000  Uiso   1.00
O115   O     0.39171   0.48112   0.50001   0.00000  Uiso   1.00
O116   O     0.51897   0.60832   0.50001   0.00000  Uiso   1.00
C117   C     0.48966   0.91939   0.50001   0.00000  Uiso   1.00
C118   C     0.42970   0.91943   0.50001   0.00000  Uiso   1.00
H119   H     0.56767   0.99998   0.50001   0.00000  Uiso   1.00
O120   O     0.51888   0.91059   0.50001   0.00000  Uiso   1.00
O121   O     0.39168   0.91065   0.50001   0.00000  Uiso   1.00
C122   C     0.08061   0.57026   0.50001   0.00000  Uiso   1.00
C123   C     0.08057   0.51027   0.50001   0.00000  Uiso   1.00
H124   H     0.00002   0.56769   0.50001   0.00000  Uiso   1.00
O125   O     0.08941   0.60829   0.50001   0.00000  Uiso   1.00
O126   O     0.08935   0.48102   0.50001   0.00000  Uiso   1.00
loop_
_geom_bond_atom_site_label_1
_geom_bond_atom_site_label_2
_geom_bond_distance
_geom_bond_site_symmetry_2
_ccdc_geom_bond_type
N1     C55     1.391   .     S
N1     C112    1.374   .     S
N1     C113    1.374   .     S
N2     C56     1.391   .     S
N2     C117    1.374   .     S
N2     C118    1.374   .     S
N3     C57     1.391   .     S
N3     C122    1.374   .     S
N3     C123    1.374   .     S
N4     C58     1.391   .     S
N4     C97     1.374   .     S
N4     C98     1.374   .     S
N5     C59     1.391   .     S
N5     C102    1.374   .     S
N5     C103    1.374   .     S
N6     C60     1.391   .     S
N6     C107    1.374   .     S
N6     C108    1.374   .     S
C7     C13     1.412   .     D
C7     C22     1.412   .     S
C7     H99     1.022   .     S
C8     C14     1.412   .     D
C8     C23     1.412   1_545 S
C8     H104    1.022   .     S
C9     C15     1.412   .     S
C9     C24     1.412   1_655 D
C9     H109    1.022   .     S
C10    C16     1.412   .     S
C10    C19     1.412   .     D
C10    H114    1.022   .     S
C11    C17     1.412   .     S
C11    C20     1.412   1_565 D
C11    H119    1.022   .     S
C12    C18     1.412   .     D
C12    C21     1.412   1_455 S
C12    H124    1.022   .     S
C13    C19     1.387   .     S
C13    C97     1.389   .     S
C14    C20     1.387   .     S
C14    C102    1.389   .     S
C15    C21     1.387   .     D
C15    C107    1.389   .     S
C16    C22     1.387   .     D
C16    C112    1.389   .     S
C17    C23     1.387   .     D
C17    C117    1.389   .     S
C18    C24     1.387   .     S
C18    C122    1.389   .     S
C19    C98     1.389   .     S
C20    C11     1.412   1_545 D
C20    C103    1.389   .     S
C21    C12     1.412   1_655 S
C21    C108    1.389   .     S
C22    C113    1.389   .     S
C23    C8      1.412   1_565 S
C23    C118    1.389   .     S
C24    C9      1.412   1_455 D
C24    C123    1.389   .     S
C25    N31     1.356   .     S
C25    N33     1.356   .     D
C25    C37     1.416   .     S
C26    N31     1.356   .     D
C26    N32     1.356   .     S
C26    C38     1.416   .     S
C27    N32     1.356   .     D
C27    N33     1.356   .     S
C27    C39     1.416   .     S
C28    N34     1.356   .     S
C28    N36     1.356   .     D
C28    C40     1.416   .     S
C29    N34     1.356   .     D
C29    N35     1.356   .     S
C29    C41     1.416   .     S
C30    N35     1.356   .     D
C30    N36     1.356   .     S
C30    C42     1.416   .     S
C37    C44     1.412   .     D
C37    C68     1.412   .     S
C38    C45     1.412   .     D
C38    C69     1.412   .     S
C39    C43     1.412   .     D
C39    C67     1.412   .     S
C40    C47     1.412   .     D
C40    C71     1.412   .     S
C41    C48     1.412   .     D
C41    C72     1.412   .     S
C42    C46     1.412   .     D
C42    C70     1.412   .     S
C43    C49     1.408   .     S
C43    H73     1.024   .     S
C44    C50     1.408   .     S
C44    H74     1.024   .     S
C45    C51     1.408   .     S
C45    H75     1.024   .     S
C46    C52     1.408   .     S
C46    H76     1.024   .     S
C47    C53     1.408   .     S
C47    H77     1.024   .     S
C48    C54     1.408   .     S
C48    H78     1.024   .     S
C49    C55     1.425   .     D
C49    H79     1.013   .     S
C50    C56     1.425   .     D
C50    H80     1.013   .     S
C51    C57     1.425   .     D
C51    H81     1.013   .     S
C52    C58     1.425   .     D
C52    H82     1.013   .     S
C53    C59     1.425   .     D
C53    H83     1.013   .     S
C54    C60     1.425   .     D
C54    H84     1.013   .     S
C55    C61     1.425   .     S
C56    C62     1.425   .     S
C57    C63     1.425   .     S
C58    C64     1.425   .     S
C59    C65     1.425   .     S
C60    C66     1.425   .     S
C61    C67     1.407   .     D
C61    H85     1.013   .     S
C62    C68     1.407   .     D
C62    H86     1.013   .     S
C63    C69     1.407   .     D
C63    H87     1.013   .     S
C64    C70     1.407   .     D
C64    H88     1.013   .     S
C65    C71     1.407   .     D
C65    H89     1.013   .     S
C66    C72     1.407   .     D
C66    H90     1.013   .     S
C67    H91     1.024   .     S
C68    H92     1.024   .     S
C69    H93     1.024   .     S
C70    H94     1.024   .     S
C71    H95     1.024   .     S
C72    H96     1.024   .     S
C97    O100    1.252   .     D
C98    O101    1.252   .     D
C102   O105    1.252   .     D
C103   O106    1.252   .     D
C107   O110    1.252   .     D
C108   O111    1.252   .     D
C112   O115    1.252   .     D
C113   O116    1.252   .     D
C117   O120    1.252   .     D
C118   O121    1.252   .     D
C122   O125    1.252   .     D
C123   O126    1.252   .     D
