data_366
_audit_creation_date              2023-09-08
_audit_creation_method            'Materials Studio'
_symmetry_space_group_name_H-M    'P4'
_symmetry_Int_Tables_number       75
_symmetry_cell_setting            tetragonal
loop_
_symmetry_equiv_pos_as_xyz
  x,y,z
  -x,-y,z
  -y,x,z
  y,-x,z
_cell_length_a                    39.0000
_cell_length_b                    39.0000
_cell_length_c                    3.5000
_cell_angle_alpha                 90.0000
_cell_angle_beta                  90.0000
_cell_angle_gamma                 90.0000
loop_
_atom_site_label
_atom_site_type_symbol
_atom_site_fract_x
_atom_site_fract_y
_atom_site_fract_z
_atom_site_U_iso_or_equiv
_atom_site_adp_type
_atom_site_occupancy
C1     C     0.22010   0.17760   0.56930   0.00000  Uiso   1.00
C2     C     0.25260   0.16090   0.57010   0.00000  Uiso   1.00
C3     C     0.28420   0.17930   0.57530   0.00000  Uiso   1.00
N4     N     0.28810   0.21390   0.57160   0.00000  Uiso   1.00
C5     C     0.32250   0.21960   0.57910   0.00000  Uiso   1.00
C6     C     0.34010   0.18890   0.58880   0.00000  Uiso   1.00
C7     C     0.31580   0.16330   0.58630   0.00000  Uiso   1.00
C8     C     0.33920   0.25220   0.57780   0.00000  Uiso   1.00
C9     C     0.32080   0.28370   0.57160   0.00000  Uiso   1.00
C10    C     0.18750   0.15920   0.56030   0.00000  Uiso   1.00
C11    C     0.16300   0.18250   0.56390   0.00000  Uiso   1.00
C12    C     0.17980   0.21600   0.57480   0.00000  Uiso   1.00
N13    N     0.21440   0.21200   0.57700   0.00000  Uiso   1.00
C14    C     0.33750   0.31720   0.55910   0.00000  Uiso   1.00
C15    C     0.31300   0.34050   0.55610   0.00000  Uiso   1.00
C16    C     0.28040   0.32210   0.56700   0.00000  Uiso   1.00
N17    N     0.28610   0.28770   0.57520   0.00000  Uiso   1.00
C18    C     0.24790   0.33880   0.56830   0.00000  Uiso   1.00
C19    C     0.21630   0.32040   0.57530   0.00000  Uiso   1.00
N20    N     0.21240   0.28580   0.57220   0.00000  Uiso   1.00
C21    C     0.17800   0.28010   0.58140   0.00000  Uiso   1.00
C22    C     0.16050   0.31080   0.59160   0.00000  Uiso   1.00
C23    C     0.18480   0.33640   0.58750   0.00000  Uiso   1.00
C24    C     0.16140   0.24750   0.58160   0.00000  Uiso   1.00
C25    C     0.37810   0.25350   0.58530   0.00000  Uiso   1.00
C26    C     0.25360   0.12190   0.56400   0.00000  Uiso   1.00
C27    C     0.12297   0.25070   0.62424   0.00000  Uiso   1.00
C28    C     0.24680   0.37770   0.56030   0.00000  Uiso   1.00
C29    C     0.39460   0.27320   0.68440   0.00000  Uiso   1.00
C30    C     0.43060   0.27470   0.69280   0.00000  Uiso   1.00
C31    C     0.45150   0.25660   0.60270   0.00000  Uiso   1.00
C32    C     0.23530   0.10140   0.65600   0.00000  Uiso   1.00
C33    C     0.23640   0.06520   0.64930   0.00000  Uiso   1.00
C34    C     0.25590   0.04850   0.55030   0.00000  Uiso   1.00
C35    C     0.24400   0.45110   0.54260   0.00000  Uiso   1.00
C36    C     0.26380   0.43490   0.64190   0.00000  Uiso   1.00
C37    C     0.26520   0.39870   0.65050   0.00000  Uiso   1.00
C38    C     0.07060   0.26409   0.38009   0.00000  Uiso   1.00
C39    C     0.10655   0.26623   0.43107   0.00000  Uiso   1.00
N40    N     0.48850   0.25890   0.61510   0.00000  Uiso   1.00
N41    N     0.24180   0.48810   0.53020   0.00000  Uiso   1.00
N42    N     0.01169   0.23670   0.55057   0.00000  Uiso   1.00
N43    N     0.98860   0.25770   0.54040   0.00000  Uiso   1.00
O44    O     0.49190   0.29670   0.61570   0.00000  Uiso   1.00
O45    O     0.50370   0.20480   0.53500   0.00000  Uiso   1.00
O46    O     0.00580   0.20260   0.62920   0.00000  Uiso   1.00
O47    O     0.99370   0.29520   0.54760   0.00000  Uiso   1.00
H48    H     0.36590   0.18358   0.68036   0.00000  Uiso   1.00
H49    H     0.32262   0.13774   0.67559   0.00000  Uiso   1.00
H50    H     0.18234   0.13384   0.45087   0.00000  Uiso   1.00
H51    H     0.13804   0.17572   0.45386   0.00000  Uiso   1.00
H52    H     0.36270   0.32379   0.45412   0.00000  Uiso   1.00
H53    H     0.31816   0.36588   0.44748   0.00000  Uiso   1.00
H54    H     0.13462   0.31605   0.68059   0.00000  Uiso   1.00
H55    H     0.17789   0.36191   0.67757   0.00000  Uiso   1.00
H56    H     0.38335   0.29781   0.80744   0.00000  Uiso   1.00
H57    H     0.44402   0.29838   0.81166   0.00000  Uiso   1.00
H58    H     0.20953   0.10867   0.78668   0.00000  Uiso   1.00
H59    H     0.21380   0.04972   0.76294   0.00000  Uiso   1.00
H60    H     0.28833   0.44645   0.76352   0.00000  Uiso   1.00
H61    H     0.29113   0.39175   0.77931   0.00000  Uiso   1.00
H62    H     0.05719   0.28190   0.16947   0.00000  Uiso   1.00
H63    H     0.11853   0.28686   0.24292   0.00000  Uiso   1.00
H64    H     0.26927   0.23180   0.54641   0.00000  Uiso   1.00
H65    H     0.23121   0.26791   0.54352   0.00000  Uiso   1.00
C66    C     0.43320   0.22302   0.42317   0.00000  Uiso   1.00
C67    C     0.39720   0.22152   0.41477   0.00000  Uiso   1.00
C68    C     0.21098   0.39608   0.36720   0.00000  Uiso   1.00
C69    C     0.20958   0.43228   0.35860   0.00000  Uiso   1.00
C70    C     0.10386   0.22134   0.88736   0.00000  Uiso   1.00
C71    C     0.06792   0.21920   0.83638   0.00000  Uiso   1.00
C72    C     0.05131   0.23984   0.59064   0.00000  Uiso   1.00
C73    C     0.28966   0.06757   0.36527   0.00000  Uiso   1.00
C74    C     0.28856   0.10377   0.37197   0.00000  Uiso   1.00
H76    H     0.44898   0.20057   0.31112   0.00000  Uiso   1.00
H77    H     0.38378   0.19785   0.29594   0.00000  Uiso   1.00
H78    H     0.18843   0.38037   0.25621   0.00000  Uiso   1.00
H79    H     0.18589   0.44577   0.24091   0.00000  Uiso   1.00
H80    H     0.11727   0.20353   1.09798   0.00000  Uiso   1.00
H81    H     0.05238   0.19967   1.00595   0.00000  Uiso   1.00
H82    H     0.31314   0.05384   0.24622   0.00000  Uiso   1.00
H83    H     0.31116   0.11925   0.25845   0.00000  Uiso   1.00
loop_
_geom_bond_atom_site_label_1
_geom_bond_atom_site_label_2
_geom_bond_distance
_geom_bond_site_symmetry_2
_ccdc_geom_bond_type
C1     C2      1.425   .     S
C1     C10     1.460   .     S
C1     N13     1.360   .     D
C2     C3      1.426   .     D
C2     C26     1.522   .     S
C3     N4      1.358   .     S
C3     C7      1.382   .     S
N4     C5      1.360   .     S
N4     H64     1.017   .     S
C5     C6      1.381   .     S
C5     C8      1.429   .     D
C6     C7      1.377   .     D
C6     H48     1.076   .     S
C7     H49     1.078   .     S
C8     C9      1.423   .     S
C8     C25     1.518   .     S
C9     C14     1.460   .     S
C9     N17     1.362   .     D
C10    C11     1.319   .     D
C10    H50     1.080   .     S
C11    C12     1.462   .     S
C11    H51     1.080   .     S
C12    N13     1.358   .     S
C12    C24     1.423   .     D
C14    C15     1.319   .     D
C14    H52     1.080   .     S
C15    C16     1.460   .     S
C15    H53     1.079   .     S
C16    N17     1.360   .     S
C16    C18     1.425   .     D
C18    C19     1.426   .     S
C18    C28     1.518   .     S
C19    N20     1.358   .     S
C19    C23     1.379   .     D
N20    C21     1.360   .     S
N20    H65     1.017   .     S
C21    C22     1.379   .     D
C21    C24     1.427   .     S
C22    C23     1.377   .     S
C22    H54     1.076   .     S
C23    H55     1.078   .     S
C24    C27     1.511   .     S
C25    C29     1.061   .     D
C25    C67     1.571   .     S
C26    C32     1.119   .     D
C26    C74     1.676   .     S
C27    C39     1.111   .     D
C27    C70     1.648   .     S
C28    C37     1.134   .     D
C28    C68     1.709   .     S
C29    C30     1.406   .     S
C29    H56     1.140   .     S
C30    C31     1.123   .     D
C30    H57     1.140   .     S
C31    N40     1.446   .     S
C31    C66     1.618   .     S
C32    C33     1.413   .     S
C32    H58     1.140   .     S
C33    C34     1.060   .     D
C33    H59     1.140   .     S
C34    C73     1.645   .     S
C34    N43     1.449   4_565 S
C35    C36     1.057   .     D
C35    N41     1.446   .     S
C35    C69     1.660   .     S
C36    C37     1.413   .     S
C36    H60     1.140   .     S
C37    H61     1.140   .     S
C38    C39     1.416   .     S
C38    H62     1.140   .     S
C38    C72     1.415   .     D
C39    H63     1.140   .     S
N40    O44     1.480   .     D
N40    N41     1.169   3_655 S
N41    N40     1.169   4_565 S
N41    O45     1.478   4_565 D
N42    O46     1.377   .     D
N42    C72     1.556   .     S
N42    N43     1.218   1_455 S
N43    O47     1.476   .     D
N43    C34     1.449   3_655 S
N43    N42     1.218   1_655 S
O45    N41     1.478   3_655 D
C66    C67     1.406   .     D
C66    H76     1.140   .     S
C67    H77     1.140   .     S
C68    C69     1.413   .     D
C68    H78     1.140   .     S
C69    H79     1.140   .     S
C70    C71     1.415   .     D
C70    H80     1.140   .     S
C71    C72     1.344   .     S
C71    H81     1.140   .     S
C73    C74     1.413   .     D
C73    H82     1.140   .     S
C74    H83     1.140   .     S
