data_367
_audit_creation_date              2023-09-08
_audit_creation_method            'Materials Studio'
_symmetry_space_group_name_H-M    'P1'
_symmetry_Int_Tables_number       1
_symmetry_cell_setting            triclinic
loop_
_symmetry_equiv_pos_as_xyz
  x,y,z
_cell_length_a                    25.4170
_cell_length_b                    12.3770
_cell_length_c                    25.4170
_cell_angle_alpha                 90.0000
_cell_angle_beta                  90.0000
_cell_angle_gamma                 90.0000
loop_
_atom_site_label
_atom_site_type_symbol
_atom_site_fract_x
_atom_site_fract_y
_atom_site_fract_z
_atom_site_U_iso_or_equiv
_atom_site_adp_type
_atom_site_occupancy
C1     C     0.00800   0.23600   0.30600   0.00000  Uiso   1.00
C2     C     0.99200   0.23600   0.69400   0.00000  Uiso   1.00
C3     C     0.99200   0.76400   0.69400   0.00000  Uiso   1.00
C4     C     0.00800   0.76400   0.30600   0.00000  Uiso   1.00
C5     C     0.03400   0.32300   0.28300   0.00000  Uiso   1.00
C6     C     0.96600   0.32300   0.71700   0.00000  Uiso   1.00
C7     C     0.96600   0.67700   0.71700   0.00000  Uiso   1.00
C8     C     0.03400   0.67700   0.28300   0.00000  Uiso   1.00
C9     C     0.03300   0.33900   0.22800   0.00000  Uiso   1.00
C10    C     0.96700   0.33900   0.77200   0.00000  Uiso   1.00
C11    C     0.96700   0.66100   0.77200   0.00000  Uiso   1.00
C12    C     0.03300   0.66100   0.22800   0.00000  Uiso   1.00
C13    C     0.04472   0.14448   0.46552   0.00000  Uiso   1.00
C14    C     0.95528   0.14448   0.53448   0.00000  Uiso   1.00
C15    C     0.95528   0.85552   0.53448   0.00000  Uiso   1.00
C16    C     0.04472   0.85552   0.46552   0.00000  Uiso   1.00
C17    C     0.00900   0.26500   0.19500   0.00000  Uiso   1.00
C18    C     0.99100   0.26500   0.80500   0.00000  Uiso   1.00
C19    C     0.99100   0.73500   0.80500   0.00000  Uiso   1.00
C20    C     0.00900   0.73500   0.19500   0.00000  Uiso   1.00
C21    C     0.00700   0.28200   0.13700   0.00000  Uiso   1.00
C22    C     0.99300   0.28200   0.86300   0.00000  Uiso   1.00
C23    C     0.99300   0.71800   0.86300   0.00000  Uiso   1.00
C24    C     0.00700   0.71800   0.13700   0.00000  Uiso   1.00
C25    C     0.01589   0.22167   0.35869   0.00000  Uiso   1.00
C26    C     0.98411   0.22167   0.64131   0.00000  Uiso   1.00
C27    C     0.98411   0.77833   0.64131   0.00000  Uiso   1.00
C28    C     0.01589   0.77833   0.35869   0.00000  Uiso   1.00
C29    C     0.98300   0.16900   0.21800   0.00000  Uiso   1.00
C30    C     0.01700   0.16900   0.78200   0.00000  Uiso   1.00
C31    C     0.01700   0.83100   0.78200   0.00000  Uiso   1.00
C32    C     0.98300   0.83100   0.21800   0.00000  Uiso   1.00
C33    C     0.98000   0.15700   0.27200   0.00000  Uiso   1.00
C34    C     0.02000   0.15700   0.72800   0.00000  Uiso   1.00
C35    C     0.02000   0.84300   0.72800   0.00000  Uiso   1.00
C36    C     0.98000   0.84300   0.27200   0.00000  Uiso   1.00
N37    N     0.97955   0.16956   0.39424   0.00000  Uiso   1.00
N38    N     0.02045   0.16956   0.60576   0.00000  Uiso   1.00
N39    N     0.02045   0.83044   0.60576   0.00000  Uiso   1.00
N40    N     0.97955   0.83044   0.39424   0.00000  Uiso   1.00
C41    C     0.94644   0.13842   0.48217   0.00000  Uiso   1.00
C42    C     0.05356   0.13842   0.51783   0.00000  Uiso   1.00
C43    C     0.05356   0.86158   0.51783   0.00000  Uiso   1.00
C44    C     0.94644   0.86158   0.48217   0.00000  Uiso   1.00
C45    C     0.99013   0.14870   0.44396   0.00000  Uiso   1.00
C46    C     0.00987   0.14870   0.55604   0.00000  Uiso   1.00
C47    C     0.00987   0.85130   0.55604   0.00000  Uiso   1.00
C48    C     0.99013   0.85130   0.44396   0.00000  Uiso   1.00
N49    N     0.94500   0.28700   0.05900   0.00000  Uiso   1.00
N50    N     0.05500   0.28700   0.94100   0.00000  Uiso   1.00
N51    N     0.05500   0.71300   0.94100   0.00000  Uiso   1.00
N52    N     0.94500   0.71300   0.05900   0.00000  Uiso   1.00
C53    C     0.95500   0.28800   0.11200   0.00000  Uiso   1.00
C54    C     0.04500   0.28800   0.88800   0.00000  Uiso   1.00
C55    C     0.04500   0.71200   0.88800   0.00000  Uiso   1.00
C56    C     0.95500   0.71200   0.11200   0.00000  Uiso   1.00
C57    C     0.90800   0.29000   0.14000   0.00000  Uiso   1.00
C58    C     0.09200   0.29000   0.86000   0.00000  Uiso   1.00
C59    C     0.09200   0.71000   0.86000   0.00000  Uiso   1.00
C60    C     0.90800   0.71000   0.14000   0.00000  Uiso   1.00
C61    C     0.89200   0.28600   0.05500   0.00000  Uiso   1.00
C62    C     0.10800   0.28600   0.94500   0.00000  Uiso   1.00
C63    C     0.10800   0.71400   0.94500   0.00000  Uiso   1.00
C64    C     0.89200   0.71400   0.05500   0.00000  Uiso   1.00
C65    C     0.86800   0.28600   0.10400   0.00000  Uiso   1.00
C66    C     0.13200   0.28600   0.89600   0.00000  Uiso   1.00
C67    C     0.13200   0.71400   0.89600   0.00000  Uiso   1.00
C68    C     0.86800   0.71400   0.10400   0.00000  Uiso   1.00
H69    H     0.05446   0.38106   0.30748   0.00000  Uiso   1.00
H70    H     0.94554   0.38106   0.69252   0.00000  Uiso   1.00
H71    H     0.94554   0.61894   0.69252   0.00000  Uiso   1.00
H72    H     0.05446   0.61894   0.30748   0.00000  Uiso   1.00
H73    H     0.05215   0.40924   0.21168   0.00000  Uiso   1.00
H74    H     0.94786   0.40924   0.78832   0.00000  Uiso   1.00
H75    H     0.94786   0.59076   0.78832   0.00000  Uiso   1.00
H76    H     0.05215   0.59076   0.21168   0.00000  Uiso   1.00
H77    H     0.07781   0.14108   0.43883   0.00000  Uiso   1.00
H78    H     0.92219   0.14108   0.56117   0.00000  Uiso   1.00
H79    H     0.92219   0.85892   0.56117   0.00000  Uiso   1.00
H80    H     0.07781   0.85892   0.43883   0.00000  Uiso   1.00
H81    H     0.96414   0.11013   0.19275   0.00000  Uiso   1.00
H82    H     0.03586   0.11013   0.80725   0.00000  Uiso   1.00
H83    H     0.03586   0.88987   0.80725   0.00000  Uiso   1.00
H84    H     0.96414   0.88987   0.19275   0.00000  Uiso   1.00
H85    H     0.95845   0.09036   0.28877   0.00000  Uiso   1.00
H86    H     0.04155   0.09036   0.71123   0.00000  Uiso   1.00
H87    H     0.04155   0.90964   0.71123   0.00000  Uiso   1.00
H88    H     0.95845   0.90964   0.28877   0.00000  Uiso   1.00
H89    H     0.90652   0.13378   0.46754   0.00000  Uiso   1.00
H90    H     0.09348   0.13378   0.53246   0.00000  Uiso   1.00
H91    H     0.09348   0.86622   0.53246   0.00000  Uiso   1.00
H92    H     0.90652   0.86622   0.46754   0.00000  Uiso   1.00
H93    H     0.90285   0.29183   0.18223   0.00000  Uiso   1.00
H94    H     0.09715   0.29183   0.81777   0.00000  Uiso   1.00
H95    H     0.09715   0.70817   0.81777   0.00000  Uiso   1.00
H96    H     0.90285   0.70817   0.18223   0.00000  Uiso   1.00
H97    H     0.82672   0.28198   0.11385   0.00000  Uiso   1.00
H98    H     0.17328   0.28198   0.88615   0.00000  Uiso   1.00
H99    H     0.17328   0.71802   0.88615   0.00000  Uiso   1.00
H100   H     0.82672   0.71802   0.11385   0.00000  Uiso   1.00
H101   H     0.97057   0.71924   0.97193   0.00000  Uiso   1.00
H102   H     0.02943   0.71924   0.02807   0.00000  Uiso   1.00
H103   H     0.02943   0.28076   0.02807   0.00000  Uiso   1.00
H104   H     0.97057   0.28076   0.97193   0.00000  Uiso   1.00
C105   C     0.30600   0.23600   0.99200   0.00000  Uiso   1.00
C106   C     0.69400   0.23600   0.00800   0.00000  Uiso   1.00
C107   C     0.69400   0.76400   0.00800   0.00000  Uiso   1.00
C108   C     0.30600   0.76400   0.99200   0.00000  Uiso   1.00
C109   C     0.28300   0.32300   0.96600   0.00000  Uiso   1.00
C110   C     0.71700   0.32300   0.03400   0.00000  Uiso   1.00
C111   C     0.71700   0.67700   0.03400   0.00000  Uiso   1.00
C112   C     0.28300   0.67700   0.96600   0.00000  Uiso   1.00
C113   C     0.22800   0.33900   0.96700   0.00000  Uiso   1.00
C114   C     0.77200   0.33900   0.03300   0.00000  Uiso   1.00
C115   C     0.77200   0.66100   0.03300   0.00000  Uiso   1.00
C116   C     0.22800   0.66100   0.96700   0.00000  Uiso   1.00
C117   C     0.46730   0.13581   0.95589   0.00000  Uiso   1.00
C118   C     0.53270   0.13581   0.04411   0.00000  Uiso   1.00
C119   C     0.53270   0.86419   0.04411   0.00000  Uiso   1.00
C120   C     0.46730   0.86419   0.95589   0.00000  Uiso   1.00
C121   C     0.19500   0.26500   0.99100   0.00000  Uiso   1.00
C122   C     0.80500   0.26500   0.00900   0.00000  Uiso   1.00
C123   C     0.80500   0.73500   0.00900   0.00000  Uiso   1.00
C124   C     0.19500   0.73500   0.99100   0.00000  Uiso   1.00
C125   C     0.13700   0.28200   0.99300   0.00000  Uiso   1.00
C126   C     0.86300   0.28200   0.00700   0.00000  Uiso   1.00
C127   C     0.86300   0.71800   0.00700   0.00000  Uiso   1.00
C128   C     0.13700   0.71800   0.99300   0.00000  Uiso   1.00
C129   C     0.36334   0.22251   0.98718   0.00000  Uiso   1.00
C130   C     0.63667   0.22251   0.01282   0.00000  Uiso   1.00
C131   C     0.63667   0.77749   0.01282   0.00000  Uiso   1.00
C132   C     0.36334   0.77749   0.98718   0.00000  Uiso   1.00
C133   C     0.21800   0.16900   0.01700   0.00000  Uiso   1.00
C134   C     0.78200   0.16900   0.98300   0.00000  Uiso   1.00
C135   C     0.78200   0.83100   0.98300   0.00000  Uiso   1.00
C136   C     0.21800   0.83100   0.01700   0.00000  Uiso   1.00
C137   C     0.27200   0.15700   0.02000   0.00000  Uiso   1.00
C138   C     0.72800   0.15700   0.98000   0.00000  Uiso   1.00
C139   C     0.72800   0.84300   0.98000   0.00000  Uiso   1.00
C140   C     0.27200   0.84300   0.02000   0.00000  Uiso   1.00
N141   N     0.38945   0.15093   0.01381   0.00000  Uiso   1.00
N142   N     0.61055   0.15093   0.98619   0.00000  Uiso   1.00
N143   N     0.61055   0.84908   0.98619   0.00000  Uiso   1.00
N144   N     0.38945   0.84908   0.01381   0.00000  Uiso   1.00
C145   C     0.47799   0.13482   0.05053   0.00000  Uiso   1.00
C146   C     0.52201   0.13482   0.94947   0.00000  Uiso   1.00
C147   C     0.52201   0.86518   0.94947   0.00000  Uiso   1.00
C148   C     0.47799   0.86518   0.05053   0.00000  Uiso   1.00
C149   C     0.44507   0.13831   0.00658   0.00000  Uiso   1.00
C150   C     0.55493   0.13831   0.99342   0.00000  Uiso   1.00
C151   C     0.55493   0.86169   0.99342   0.00000  Uiso   1.00
C152   C     0.44507   0.86169   0.00658   0.00000  Uiso   1.00
N153   N     0.05900   0.28700   0.05500   0.00000  Uiso   1.00
N154   N     0.94100   0.28700   0.94500   0.00000  Uiso   1.00
N155   N     0.94100   0.71300   0.94500   0.00000  Uiso   1.00
N156   N     0.05900   0.71300   0.05500   0.00000  Uiso   1.00
C157   C     0.11200   0.28800   0.04500   0.00000  Uiso   1.00
C158   C     0.88800   0.28800   0.95500   0.00000  Uiso   1.00
C159   C     0.88800   0.71200   0.95500   0.00000  Uiso   1.00
C160   C     0.11200   0.71200   0.04500   0.00000  Uiso   1.00
C161   C     0.14000   0.29000   0.09200   0.00000  Uiso   1.00
C162   C     0.86000   0.29000   0.90800   0.00000  Uiso   1.00
C163   C     0.86000   0.71000   0.90800   0.00000  Uiso   1.00
C164   C     0.14000   0.71000   0.09200   0.00000  Uiso   1.00
C165   C     0.05500   0.28600   0.10800   0.00000  Uiso   1.00
C166   C     0.94500   0.28600   0.89200   0.00000  Uiso   1.00
C167   C     0.94500   0.71400   0.89200   0.00000  Uiso   1.00
C168   C     0.05500   0.71400   0.10800   0.00000  Uiso   1.00
C169   C     0.10400   0.28600   0.13200   0.00000  Uiso   1.00
C170   C     0.89600   0.28600   0.86800   0.00000  Uiso   1.00
C171   C     0.89600   0.71400   0.86800   0.00000  Uiso   1.00
C172   C     0.10400   0.71400   0.13200   0.00000  Uiso   1.00
H173   H     0.30748   0.38106   0.94554   0.00000  Uiso   1.00
H174   H     0.69252   0.38106   0.05446   0.00000  Uiso   1.00
H175   H     0.69252   0.61894   0.05446   0.00000  Uiso   1.00
H176   H     0.30748   0.61894   0.94554   0.00000  Uiso   1.00
H177   H     0.21168   0.40924   0.94786   0.00000  Uiso   1.00
H178   H     0.78832   0.40924   0.05215   0.00000  Uiso   1.00
H179   H     0.78832   0.59076   0.05215   0.00000  Uiso   1.00
H180   H     0.21168   0.59076   0.94786   0.00000  Uiso   1.00
H181   H     0.44211   0.13571   0.92158   0.00000  Uiso   1.00
H182   H     0.55789   0.13571   0.07843   0.00000  Uiso   1.00
H183   H     0.55789   0.86430   0.07843   0.00000  Uiso   1.00
H184   H     0.44211   0.86430   0.92158   0.00000  Uiso   1.00
H185   H     0.19275   0.11013   0.03586   0.00000  Uiso   1.00
H186   H     0.80725   0.11013   0.96414   0.00000  Uiso   1.00
H187   H     0.80725   0.88987   0.96414   0.00000  Uiso   1.00
H188   H     0.19275   0.88987   0.03586   0.00000  Uiso   1.00
H189   H     0.28877   0.09036   0.04155   0.00000  Uiso   1.00
H190   H     0.71123   0.09036   0.95845   0.00000  Uiso   1.00
H191   H     0.71123   0.90964   0.95845   0.00000  Uiso   1.00
H192   H     0.28877   0.90964   0.04155   0.00000  Uiso   1.00
H193   H     0.46100   0.13541   0.08956   0.00000  Uiso   1.00
H194   H     0.53900   0.13541   0.91044   0.00000  Uiso   1.00
H195   H     0.53900   0.86459   0.91044   0.00000  Uiso   1.00
H196   H     0.46100   0.86459   0.08956   0.00000  Uiso   1.00
H197   H     0.18223   0.29183   0.09715   0.00000  Uiso   1.00
H198   H     0.81777   0.29183   0.90285   0.00000  Uiso   1.00
H199   H     0.81777   0.70817   0.90285   0.00000  Uiso   1.00
H200   H     0.18223   0.70817   0.09715   0.00000  Uiso   1.00
H201   H     0.11385   0.28198   0.17328   0.00000  Uiso   1.00
H202   H     0.88615   0.28198   0.82672   0.00000  Uiso   1.00
H203   H     0.88615   0.71802   0.82672   0.00000  Uiso   1.00
H204   H     0.11385   0.71802   0.17328   0.00000  Uiso   1.00
H205   H     0.38415   0.72369   0.96062   0.00000  Uiso   1.00
H206   H     0.04555   0.72834   0.37753   0.00000  Uiso   1.00
H207   H     0.61585   0.72369   0.03938   0.00000  Uiso   1.00
H208   H     0.95445   0.72834   0.62247   0.00000  Uiso   1.00
H209   H     0.61585   0.27631   0.03938   0.00000  Uiso   1.00
H210   H     0.95445   0.27166   0.62247   0.00000  Uiso   1.00
H211   H     0.38415   0.27631   0.96062   0.00000  Uiso   1.00
H212   H     0.04555   0.27166   0.37753   0.00000  Uiso   1.00
loop_
_geom_bond_atom_site_label_1
_geom_bond_atom_site_label_2
_geom_bond_distance
_geom_bond_site_symmetry_2
_ccdc_geom_bond_type
C1     C5      1.392   .     S
C1     C25     1.366   .     D
C1     C33     1.486   1_455 S
C2     C6      1.392   .     S
C2     C26     1.366   .     D
C2     C34     1.486   1_655 S
C3     C7      1.392   .     D
C3     C27     1.366   .     S
C3     C35     1.486   1_655 S
C4     C8      1.392   .     S
C4     C28     1.366   .     S
C4     C36     1.486   1_455 D
C5     C9      1.412   .     D
C5     H69     1.083   .     S
C6     C10     1.412   .     D
C6     H70     1.083   .     S
C7     C11     1.412   .     S
C7     H71     1.083   .     S
C8     C12     1.412   .     D
C8     H72     1.083   .     S
C9     C17     1.384   .     S
C9     H73     1.079   .     S
C10    C18     1.384   .     S
C10    H74     1.079   .     S
C11    C19     1.384   .     D
C11    H75     1.079   .     S
C12    C20     1.384   .     S
C12    H76     1.079   .     S
C13    C42     1.350   .     D
C13    C45     1.493   1_455 S
C13    H77     1.081   .     S
C14    C41     1.350   .     D
C14    C46     1.493   1_655 S
C14    H78     1.081   .     S
C15    C44     1.350   .     D
C15    C47     1.493   1_655 S
C15    H79     1.081   .     S
C16    C43     1.350   .     S
C16    C48     1.493   1_455 D
C16    H80     1.081   .     S
C17    C21     1.490   .     D
C17    C29     1.480   1_455 S
C18    C22     1.490   .     D
C18    C30     1.480   1_655 S
C19    C23     1.490   .     S
C19    C31     1.480   1_655 S
C20    C24     1.490   .     S
C20    C32     1.480   1_455 D
C21    C53     1.468   1_455 S
C21    C165    1.426   .     S
C22    C54     1.468   1_655 S
C22    C166    1.426   .     S
C23    C55     1.468   1_655 D
C23    C167    1.426   .     S
C24    C56     1.468   1_455 S
C24    C168    1.426   .     D
C25    N37     1.444   1_455 S
C25    H212    1.086   .     S
C26    N38     1.444   1_655 S
C26    H210    1.086   .     S
C27    N39     1.444   1_655 D
C27    H208    1.086   .     S
C28    N40     1.444   1_455 D
C28    H206    1.086   .     S
C29    C17     1.480   1_655 S
C29    C33     1.383   .     D
C29    H81     1.083   .     S
C30    C18     1.480   1_455 S
C30    C34     1.383   .     D
C30    H82     1.083   .     S
C31    C19     1.480   1_455 S
C31    C35     1.383   .     D
C31    H83     1.083   .     S
C32    C20     1.480   1_655 D
C32    C36     1.383   .     S
C32    H84     1.083   .     S
C33    C1      1.486   1_655 S
C33    H85     1.078   .     S
C34    C2      1.486   1_455 S
C34    H86     1.078   .     S
C35    C3      1.486   1_455 S
C35    H87     1.078   .     S
C36    C4      1.486   1_655 D
C36    H88     1.078   .     S
N37    C25     1.444   1_655 S
N37    C45     1.318   .     D
N38    C26     1.444   1_455 S
N38    C46     1.318   .     D
N39    C27     1.444   1_455 D
N39    C47     1.318   .     S
N40    C28     1.444   1_655 D
N40    C48     1.318   .     S
C41    C45     1.481   .     S
C41    H89     1.082   .     S
C42    C46     1.481   .     S
C42    H90     1.082   .     S
C43    C47     1.481   .     D
C43    H91     1.082   .     S
C44    C48     1.481   .     S
C44    H92     1.082   .     S
C45    C13     1.493   1_655 S
C46    C14     1.493   1_455 S
C47    C15     1.493   1_455 S
C48    C16     1.493   1_655 D
N49    C53     1.371   .     D
N49    C61     1.351   .     S
N50    C54     1.371   .     D
N50    C62     1.351   .     S
N51    C55     1.371   .     S
N51    C63     1.351   .     D
N52    C56     1.371   .     D
N52    C64     1.351   .     S
C53    C21     1.468   1_655 S
C53    C57     1.391   .     S
C54    C22     1.468   1_455 S
C54    C58     1.391   .     S
C55    C23     1.468   1_455 D
C55    C59     1.391   .     S
C56    C24     1.468   1_655 S
C56    C60     1.391   .     S
C57    C65     1.369   .     D
C57    H93     1.081   .     S
C58    C66     1.369   .     D
C58    H94     1.081   .     S
C59    C67     1.369   .     D
C59    H95     1.081   .     S
C60    C68     1.369   .     D
C60    H96     1.081   .     S
C61    C65     1.387   .     S
C61    C126    1.426   .     D
C62    C66     1.387   .     S
C62    C125    1.426   .     D
C63    C67     1.387   .     S
C63    C128    1.426   .     S
C64    C68     1.387   .     S
C64    C127    1.426   .     D
C65    H97     1.080   .     S
C66    H98     1.080   .     S
C67    H99     1.080   .     S
C68    H100    1.080   .     S
H101   N155    1.020   .     S
H102   N156    1.020   .     S
H103   N153    1.020   .     S
H104   N154    1.020   .     S
C105   C109    1.392   .     D
C105   C129    1.472   .     S
C105   C137    1.486   1_556 S
C106   C110    1.392   .     D
C106   C130    1.472   .     S
C106   C138    1.486   1_554 S
C107   C111    1.392   .     D
C107   C131    1.472   .     S
C107   C139    1.486   1_554 S
C108   C112    1.392   .     S
C108   C132    1.472   .     S
C108   C140    1.486   1_556 D
C109   C113    1.412   .     S
C109   H173    1.083   .     S
C110   C114    1.412   .     S
C110   H174    1.083   .     S
C111   C115    1.412   .     S
C111   H175    1.083   .     S
C112   C116    1.412   .     D
C112   H176    1.083   .     S
C113   C121    1.384   .     D
C113   H177    1.079   .     S
C114   C122    1.384   .     D
C114   H178    1.079   .     S
C115   C123    1.384   .     D
C115   H179    1.079   .     S
C116   C124    1.384   .     S
C116   H180    1.079   .     S
C117   C146    1.400   .     D
C117   C149    1.407   1_556 S
C117   H181    1.082   .     S
C118   C145    1.400   .     S
C118   C150    1.407   1_554 D
C118   H182    1.082   .     S
C119   C148    1.400   .     D
C119   C151    1.407   1_554 S
C119   H183    1.082   .     S
C120   C147    1.400   .     S
C120   C152    1.407   1_556 D
C120   H184    1.082   .     S
C121   C125    1.490   .     S
C121   C133    1.480   1_556 S
C122   C126    1.490   .     S
C122   C134    1.480   1_554 S
C123   C127    1.490   .     S
C123   C135    1.480   1_554 S
C124   C128    1.490   .     S
C124   C136    1.480   1_556 D
C125   C157    1.468   1_556 S
C126   C158    1.468   1_554 S
C127   C159    1.468   1_554 S
C128   C160    1.468   1_556 D
C129   N141    1.298   1_556 D
C129   H211    1.086   .     S
C130   N142    1.298   1_554 D
C130   H209    1.086   .     S
C131   N143    1.298   1_554 D
C131   H207    1.086   .     S
C132   N144    1.298   1_556 D
C132   H205    1.086   .     S
C133   C121    1.480   1_554 S
C133   C137    1.383   .     D
C133   H185    1.083   .     S
C134   C122    1.480   1_556 S
C134   C138    1.383   .     D
C134   H186    1.083   .     S
C135   C123    1.480   1_556 S
C135   C139    1.383   .     D
C135   H187    1.083   .     S
C136   C124    1.480   1_554 D
C136   C140    1.383   .     S
C136   H188    1.083   .     S
C137   C105    1.486   1_554 S
C137   H189    1.078   .     S
C138   C106    1.486   1_556 S
C138   H190    1.078   .     S
C139   C107    1.486   1_556 S
C139   H191    1.078   .     S
C140   C108    1.486   1_554 D
C140   H192    1.078   .     S
N141   C129    1.298   1_554 D
N141   C149    1.434   .     S
N142   C130    1.298   1_556 D
N142   C150    1.434   .     S
N143   C131    1.298   1_556 D
N143   C151    1.434   .     S
N144   C132    1.298   1_554 D
N144   C152    1.434   .     S
C145   C149    1.396   .     D
C145   H193    1.082   .     S
C146   C150    1.396   .     S
C146   H194    1.082   .     S
C147   C151    1.396   .     D
C147   H195    1.082   .     S
C148   C152    1.396   .     S
C148   H196    1.082   .     S
C149   C117    1.407   1_554 S
C150   C118    1.407   1_556 D
C151   C119    1.407   1_556 S
C152   C120    1.407   1_554 D
N153   C157    1.371   .     S
N153   C165    1.351   .     S
N154   C158    1.371   .     S
N154   C166    1.351   .     S
N155   C159    1.371   .     S
N155   C167    1.351   .     S
N156   C160    1.371   .     S
N156   C168    1.351   .     S
C157   C125    1.468   1_554 S
C157   C161    1.391   .     D
C158   C126    1.468   1_556 S
C158   C162    1.391   .     D
C159   C127    1.468   1_556 S
C159   C163    1.391   .     D
C160   C128    1.468   1_554 D
C160   C164    1.391   .     S
C161   C169    1.369   .     S
C161   H197    1.081   .     S
C162   C170    1.369   .     S
C162   H198    1.081   .     S
C163   C171    1.369   .     S
C163   H199    1.081   .     S
C164   C172    1.369   .     D
C164   H200    1.081   .     S
C165   C169    1.387   .     D
C166   C170    1.387   .     D
C167   C171    1.387   .     D
C168   C172    1.387   .     S
C169   H201    1.080   .     S
C170   H202    1.080   .     S
C171   H203    1.080   .     S
C172   H204    1.080   .     S
