data_368
_audit_creation_date              2023-09-08
_audit_creation_method            'Materials Studio'
_symmetry_space_group_name_H-M    'P1'
_symmetry_Int_Tables_number       1
_symmetry_cell_setting            triclinic
loop_
_symmetry_equiv_pos_as_xyz
  x,y,z
_cell_length_a                    34.1122
_cell_length_b                    34.1122
_cell_length_c                    3.4871
_cell_angle_alpha                 90.0000
_cell_angle_beta                  90.0000
_cell_angle_gamma                 90.0000
loop_
_atom_site_label
_atom_site_type_symbol
_atom_site_fract_x
_atom_site_fract_y
_atom_site_fract_z
_atom_site_U_iso_or_equiv
_atom_site_adp_type
_atom_site_occupancy
C1     C     0.10260   0.00000   0.03185   0.00000  Uiso   1.00
C2     C     0.14771   0.00005   0.03191   0.00000  Uiso   1.00
C3     C     0.23146  -0.00015   0.03222   0.00000  Uiso   1.00
N4     N     0.59967  -0.00061  -0.01743   0.00000  Uiso   1.00
C5     C     0.35760  -0.00056   0.02469   0.00000  Uiso   1.00
C6     C     0.27475  -0.00033   0.03102   0.00000  Uiso   1.00
C7     C    -0.10296   0.00057  -0.03079   0.00000  Uiso   1.00
C8     C    -0.14811   0.00038  -0.03008   0.00000  Uiso   1.00
C9     C    -0.23189  -0.00008  -0.03045   0.00000  Uiso   1.00
N10    N     0.39989  -0.00058   0.01896   0.00000  Uiso   1.00
C11    C     0.64196  -0.00060  -0.02356   0.00000  Uiso   1.00
C12    C     0.72481  -0.00033  -0.02988   0.00000  Uiso   1.00
C13    C    -0.00057   0.10296   0.03079   0.00000  Uiso   1.00
C14    C    -0.00038   0.14811   0.03009   0.00000  Uiso   1.00
C15    C     0.00008   0.23189   0.03046   0.00000  Uiso   1.00
N16    N     0.00058   0.60011  -0.01896   0.00000  Uiso   1.00
C17    C     0.00060   0.35804   0.02358   0.00000  Uiso   1.00
C18    C     0.00033   0.27519   0.02989   0.00000  Uiso   1.00
C19    C    -0.00000  -0.10261  -0.03187   0.00000  Uiso   1.00
C20    C    -0.00005  -0.14771  -0.03193   0.00000  Uiso   1.00
C21    C     0.00015  -0.23146  -0.03223   0.00000  Uiso   1.00
N22    N     0.00062   0.40033   0.01745   0.00000  Uiso   1.00
C23    C     0.00056   0.64240  -0.02469   0.00000  Uiso   1.00
C24    C     0.00033   0.72525  -0.03103   0.00000  Uiso   1.00
C25    C     0.08246  -0.03692   0.00237   0.00000  Uiso   1.00
C26    C     0.42412  -0.03242   0.03930   0.00000  Uiso   1.00
C27    C     0.46507  -0.02086   0.01505   0.00000  Uiso   1.00
C28    C     0.29537  -0.03392  -0.08295   0.00000  Uiso   1.00
C29    C     0.33633  -0.03374  -0.09381   0.00000  Uiso   1.00
O30    O     0.41279  -0.06572   0.09514   0.00000  Uiso   1.00
C31    C     0.07302  -0.10079   0.01848   0.00000  Uiso   1.00
C32    C     0.16984   0.02886  -0.16426   0.00000  Uiso   1.00
C33    C     0.21069   0.03041  -0.14058   0.00000  Uiso   1.00
H34    H     0.27976  -0.05990  -0.17517   0.00000  Uiso   1.00
H35    H     0.35139  -0.05929  -0.20344   0.00000  Uiso   1.00
H36    H     0.08063  -0.13102   0.05998   0.00000  Uiso   1.00
H37    H     0.15604   0.04928  -0.35692   0.00000  Uiso   1.00
H38    H     0.22621   0.05366  -0.28737   0.00000  Uiso   1.00
C39    C    -0.08274   0.03752  -0.03365   0.00000  Uiso   1.00
C40    C     0.57552   0.03121   0.01142   0.00000  Uiso   1.00
C41    C     0.53452   0.01963   0.00182   0.00000  Uiso   1.00
C42    C     0.70381   0.03309  -0.14205   0.00000  Uiso   1.00
C43    C     0.66285   0.03265  -0.14671   0.00000  Uiso   1.00
O44    O     0.58702   0.06451   0.06349   0.00000  Uiso   1.00
C45    C    -0.07371   0.10093   0.04401   0.00000  Uiso   1.00
C46    C    -0.17002  -0.02873  -0.22436   0.00000  Uiso   1.00
C47    C    -0.21086  -0.03054  -0.20195   0.00000  Uiso   1.00
H48    H     0.71912   0.05916  -0.23647   0.00000  Uiso   1.00
H49    H     0.64745   0.05811  -0.25407   0.00000  Uiso   1.00
H50    H    -0.08143   0.13076   0.10870   0.00000  Uiso   1.00
H51    H    -0.15598  -0.04944  -0.41158   0.00000  Uiso   1.00
H52    H    -0.22617  -0.05403  -0.34717   0.00000  Uiso   1.00
C53    C     0.03632   0.08252   0.01856   0.00000  Uiso   1.00
C54    C     0.03245   0.42456   0.03727   0.00000  Uiso   1.00
C55    C     0.02087   0.46551   0.01294   0.00000  Uiso   1.00
C56    C     0.03393   0.29578  -0.08423   0.00000  Uiso   1.00
C57    C     0.03376   0.33674  -0.09503   0.00000  Uiso   1.00
O58    O     0.06576   0.41325   0.09274   0.00000  Uiso   1.00
C59    C     0.10028   0.07321   0.05496   0.00000  Uiso   1.00
C60    C    -0.02916   0.17037  -0.16545   0.00000  Uiso   1.00
C61    C    -0.03056   0.21122  -0.14193   0.00000  Uiso   1.00
H62    H     0.05988   0.28016  -0.17679   0.00000  Uiso   1.00
H63    H     0.05931   0.35180  -0.20483   0.00000  Uiso   1.00
H64    H     0.13035   0.08112   0.10323   0.00000  Uiso   1.00
H65    H    -0.04974   0.15670  -0.35726   0.00000  Uiso   1.00
H66    H    -0.05380   0.22681  -0.28812   0.00000  Uiso   1.00
C67    C    -0.03691  -0.08221  -0.05166   0.00000  Uiso   1.00
C68    C    -0.03124   0.57595   0.01003   0.00000  Uiso   1.00
C69    C    -0.01964   0.53495   0.00011   0.00000  Uiso   1.00
C70    C    -0.03311   0.70427  -0.14284   0.00000  Uiso   1.00
C71    C    -0.03270   0.66330  -0.14749   0.00000  Uiso   1.00
O72    O    -0.06454   0.58743   0.06245   0.00000  Uiso   1.00
C73    C    -0.10063  -0.07249   0.00868   0.00000  Uiso   1.00
C74    C     0.02891  -0.16968  -0.22714   0.00000  Uiso   1.00
C75    C     0.03064  -0.21052  -0.20442   0.00000  Uiso   1.00
H76    H    -0.05917   0.71960  -0.23716   0.00000  Uiso   1.00
H77    H    -0.05816   0.64791  -0.25464   0.00000  Uiso   1.00
H78    H    -0.13059  -0.07998   0.06822   0.00000  Uiso   1.00
H79    H     0.04958  -0.15565  -0.41495   0.00000  Uiso   1.00
H80    H     0.05406  -0.22590  -0.34994   0.00000  Uiso   1.00
C81    C    -0.08252  -0.03632  -0.01856   0.00000  Uiso   1.00
C82    C     0.57544  -0.03245  -0.03726   0.00000  Uiso   1.00
C83    C     0.53449  -0.02087  -0.01293   0.00000  Uiso   1.00
C84    C     0.70422  -0.03393   0.08424   0.00000  Uiso   1.00
C85    C     0.66326  -0.03376   0.09504   0.00000  Uiso   1.00
O86    O     0.58675  -0.06576  -0.09274   0.00000  Uiso   1.00
C87    C    -0.07320  -0.10028  -0.05497   0.00000  Uiso   1.00
C88    C    -0.17037   0.02916   0.16545   0.00000  Uiso   1.00
C89    C    -0.21122   0.03056   0.14193   0.00000  Uiso   1.00
H90    H     0.71984  -0.05988   0.17681   0.00000  Uiso   1.00
H91    H     0.64820  -0.05931   0.20485   0.00000  Uiso   1.00
H92    H    -0.08112  -0.13035  -0.10325   0.00000  Uiso   1.00
H93    H    -0.15670   0.04974   0.35726   0.00000  Uiso   1.00
H94    H    -0.22680   0.05380   0.28813   0.00000  Uiso   1.00
C95    C     0.08221   0.03691   0.05164   0.00000  Uiso   1.00
C96    C     0.42405   0.03124  -0.01002   0.00000  Uiso   1.00
C97    C     0.46505   0.01964  -0.00010   0.00000  Uiso   1.00
C98    C     0.29573   0.03311   0.14284   0.00000  Uiso   1.00
C99    C     0.33670   0.03269   0.14749   0.00000  Uiso   1.00
O100   O     0.41257   0.06454  -0.06243   0.00000  Uiso   1.00
C101   C     0.07249   0.10063  -0.00868   0.00000  Uiso   1.00
C102   C     0.16968  -0.02891   0.22712   0.00000  Uiso   1.00
C103   C     0.21052  -0.03064   0.20441   0.00000  Uiso   1.00
H104   H     0.28040   0.05917   0.23715   0.00000  Uiso   1.00
H105   H     0.35209   0.05816   0.25465   0.00000  Uiso   1.00
H106   H     0.07998   0.13059  -0.06821   0.00000  Uiso   1.00
H107   H     0.15565  -0.04958   0.41493   0.00000  Uiso   1.00
H108   H     0.22590  -0.05406   0.34993   0.00000  Uiso   1.00
C109   C    -0.03752   0.08274   0.03365   0.00000  Uiso   1.00
C110   C    -0.03121   0.42448  -0.01139   0.00000  Uiso   1.00
C111   C    -0.01963   0.46548  -0.00180   0.00000  Uiso   1.00
C112   C    -0.03309   0.29619   0.14205   0.00000  Uiso   1.00
C113   C    -0.03265   0.33715   0.14673   0.00000  Uiso   1.00
O114   O    -0.06451   0.41298  -0.06345   0.00000  Uiso   1.00
C115   C    -0.10093   0.07371  -0.04401   0.00000  Uiso   1.00
C116   C     0.02873   0.17002   0.22437   0.00000  Uiso   1.00
C117   C     0.03054   0.21086   0.20195   0.00000  Uiso   1.00
H118   H    -0.05916   0.28088   0.23647   0.00000  Uiso   1.00
H119   H    -0.05811   0.35255   0.25408   0.00000  Uiso   1.00
H120   H    -0.13076   0.08143  -0.10869   0.00000  Uiso   1.00
H121   H     0.04944   0.15598   0.41159   0.00000  Uiso   1.00
H122   H     0.05403   0.22617   0.34718   0.00000  Uiso   1.00
C123   C     0.03692  -0.08246  -0.00239   0.00000  Uiso   1.00
C124   C     0.03242   0.57588  -0.03930   0.00000  Uiso   1.00
C125   C     0.02086   0.53493  -0.01505   0.00000  Uiso   1.00
C126   C     0.03392   0.70463   0.08294   0.00000  Uiso   1.00
C127   C     0.03373   0.66367   0.09381   0.00000  Uiso   1.00
O128   O     0.06572   0.58721  -0.09515   0.00000  Uiso   1.00
C129   C     0.10079  -0.07302  -0.01850   0.00000  Uiso   1.00
C130   C    -0.02886  -0.16984   0.16424   0.00000  Uiso   1.00
C131   C    -0.03041  -0.21069   0.14056   0.00000  Uiso   1.00
H132   H     0.05990   0.72024   0.17516   0.00000  Uiso   1.00
H133   H     0.05928   0.64861   0.20343   0.00000  Uiso   1.00
H134   H     0.13102  -0.08062  -0.06001   0.00000  Uiso   1.00
H135   H    -0.04928  -0.15604   0.35690   0.00000  Uiso   1.00
H136   H    -0.05366  -0.22620   0.28736   0.00000  Uiso   1.00
N137   N     0.04292  -0.04292  -0.00001   0.00000  Uiso   1.00
N138   N    -0.04337   0.04337  -0.00000   0.00000  Uiso   1.00
N139   N     0.04275   0.04320   0.04982   0.00000  Uiso   1.00
N140   N    -0.04320  -0.04275  -0.04983   0.00000  Uiso   1.00
C141   C     0.49979   0.04160   0.00075   0.00000  Uiso   1.00
C142   C     0.49977  -0.04283   0.00117   0.00000  Uiso   1.00
C143   C    -0.04160   0.50021  -0.00073   0.00000  Uiso   1.00
C144   C     0.04283   0.50023  -0.00117   0.00000  Uiso   1.00
H145   H    -0.02203  -0.02155  -0.09039   0.00000  Uiso   1.00
H146   H     0.02155   0.02203   0.09037   0.00000  Uiso   1.00
H147   H     0.49977  -0.07464   0.00128   0.00000  Uiso   1.00
H148   H     0.49980   0.07341   0.00054   0.00000  Uiso   1.00
H149   H     0.07464   0.50023  -0.00128   0.00000  Uiso   1.00
H150   H    -0.07341   0.50020  -0.00052   0.00000  Uiso   1.00
loop_
_geom_bond_atom_site_label_1
_geom_bond_atom_site_label_2
_geom_bond_distance
_geom_bond_site_symmetry_2
_ccdc_geom_bond_type
C1     C2      1.539   .     S
C1     C25     1.438   .     S
C1     C95     1.440   .     D
C2     C32     1.415   .     D
C2     C102    1.415   .     S
C3     C6      1.477   .     S
C3     C33     1.397   .     D
C3     C103    1.397   .     S
N4     C11     1.443   .     S
N4     C40     1.367   .     S
N4     C82     1.367   .     S
C5     N10     1.443   .     S
C5     C29     1.407   .     D
C5     C99     1.407   .     S
C6     C28     1.402   .     D
C6     C98     1.402   .     S
C7     C8      1.540   .     S
C7     C39     1.437   .     D
C7     C81     1.439   .     S
C8     C46     1.415   .     D
C8     C88     1.416   .     S
C9     C12     1.477   1_455 S
C9     C47     1.397   .     D
C9     C89     1.397   .     S
N10    C26     1.367   .     S
N10    C96     1.367   .     S
C11    C43     1.407   .     D
C11    C85     1.407   .     S
C12    C9      1.477   1_655 S
C12    C42     1.402   .     D
C12    C84     1.402   .     S
C13    C14     1.540   .     S
C13    C53     1.439   .     D
C13    C109    1.437   .     S
C14    C60     1.416   .     S
C14    C116    1.415   .     D
C15    C18     1.477   .     S
C15    C61     1.397   .     S
C15    C117    1.397   .     D
N16    C23     1.443   .     S
N16    C68     1.367   .     S
N16    C124    1.367   .     S
C17    N22     1.443   .     S
C17    C57     1.407   .     S
C17    C113    1.407   .     D
C18    C56     1.402   .     S
C18    C112    1.402   .     D
C19    C20     1.539   .     S
C19    C67     1.440   .     S
C19    C123    1.438   .     D
C20    C74     1.415   .     S
C20    C130    1.415   .     D
C21    C24     1.477   1_545 S
C21    C75     1.397   .     S
C21    C131    1.397   .     D
N22    C54     1.367   .     S
N22    C110    1.367   .     S
C23    C71     1.407   .     S
C23    C127    1.407   .     D
C24    C21     1.477   1_565 S
C24    C70     1.402   .     S
C24    C126    1.402   .     D
C25    C129    1.383   .     S
C25    N137    1.364   .     D
C26    C27     1.454   .     S
C26    O30     1.215   .     D
C27    C97     1.382   .     D
C27    C142    1.402   .     S
C28    C29     1.398   .     S
C28    H34     1.083   .     S
C29    H35     1.082   .     S
C31    H36     1.073   .     S
C31    C123    1.383   .     S
C31    C129    1.346   .     D
C32    C33     1.397   .     S
C32    H37     1.076   .     S
C33    H38     1.082   .     S
C39    C115    1.382   .     S
C39    N138    1.363   .     S
C40    C41     1.454   .     S
C40    O44     1.215   .     D
C41    C83     1.382   .     S
C41    C141    1.402   .     D
C42    C43     1.398   .     S
C42    H48     1.083   .     S
C43    H49     1.082   .     S
C45    H50     1.075   .     S
C45    C109    1.382   .     S
C45    C115    1.349   .     D
C46    C47     1.397   .     S
C46    H51     1.075   .     S
C47    H52     1.082   .     S
C53    C101    1.383   .     S
C53    N139    1.364   .     S
C54    C55     1.454   .     S
C54    O58     1.215   .     D
C55    C111    1.382   .     S
C55    C144    1.402   .     D
C56    C57     1.398   .     D
C56    H62     1.083   .     S
C57    H63     1.082   .     S
C59    H64     1.074   .     S
C59    C95     1.383   .     S
C59    C101    1.350   .     D
C60    C61     1.397   .     D
C60    H65     1.076   .     S
C61    H66     1.082   .     S
C67    C87     1.383   .     D
C67    N140    1.363   .     S
C68    C69     1.454   .     S
C68    O72     1.215   .     D
C69    C125    1.382   .     D
C69    C143    1.402   .     S
C70    C71     1.398   .     D
C70    H76     1.083   .     S
C71    H77     1.082   .     S
C73    H78     1.074   .     S
C73    C81     1.383   .     D
C73    C87     1.350   .     S
C74    C75     1.397   .     D
C74    H79     1.075   .     S
C75    H80     1.082   .     S
C81    N140    1.364   .     S
C82    C83     1.454   .     S
C82    O86     1.215   .     D
C83    C142    1.402   .     D
C84    C85     1.398   .     D
C84    H90     1.083   .     S
C85    H91     1.082   .     S
C87    H92     1.074   .     S
C88    C89     1.397   .     D
C88    H93     1.076   .     S
C89    H94     1.082   .     S
C95    N139    1.363   .     S
C96    C97     1.454   .     S
C96    O100    1.215   .     D
C97    C141    1.402   .     S
C98    C99     1.398   .     D
C98    H104    1.083   .     S
C99    H105    1.082   .     S
C101   H106    1.074   .     S
C102   C103    1.397   .     D
C102   H107    1.075   .     S
C103   H108    1.082   .     S
C109   N138    1.363   .     D
C110   C111    1.454   .     S
C110   O114    1.215   .     D
C111   C143    1.402   .     D
C112   C113    1.398   .     S
C112   H118    1.083   .     S
C113   H119    1.082   .     S
C115   H120    1.075   .     S
C116   C117    1.397   .     S
C116   H121    1.075   .     S
C117   H122    1.082   .     S
C123   N137    1.364   .     S
C124   C125    1.454   .     S
C124   O128    1.215   .     D
C125   C144    1.402   .     S
C126   C127    1.398   .     S
C126   H132    1.083   .     S
C127   H133    1.082   .     S
C129   H134    1.073   .     S
C130   C131    1.397   .     S
C130   H135    1.076   .     S
C131   H136    1.082   .     S
N139   H146    1.032   .     S
N140   H145    1.032   .     S
C141   H148    1.085   .     S
C142   H147    1.085   .     S
C143   H150    1.085   .     S
C144   H149    1.085   .     S
