data_369
_audit_creation_date              2023-09-08
_audit_creation_method            'Materials Studio'
_symmetry_space_group_name_H-M    'P1'
_symmetry_Int_Tables_number       1
_symmetry_cell_setting            triclinic
loop_
_symmetry_equiv_pos_as_xyz
  x,y,z
_cell_length_a                    34.6223
_cell_length_b                    34.6223
_cell_length_c                    3.4820
_cell_angle_alpha                 90.0000
_cell_angle_beta                  90.0000
_cell_angle_gamma                 90.0000
loop_
_atom_site_label
_atom_site_type_symbol
_atom_site_fract_x
_atom_site_fract_y
_atom_site_fract_z
_atom_site_U_iso_or_equiv
_atom_site_adp_type
_atom_site_occupancy
C1     C     0.10135  -0.00027   0.02609   0.00000  Uiso   1.00
C2     C     0.14582  -0.00036   0.02525   0.00000  Uiso   1.00
C3     C     0.22846  -0.00034   0.02226   0.00000  Uiso   1.00
C4     C     0.27121  -0.00024   0.01965   0.00000  Uiso   1.00
C5     C     0.35294   0.00001   0.01693   0.00000  Uiso   1.00
C6     C     0.47866  -0.00086   0.01225   0.00000  Uiso   1.00
N7     N     0.39478   0.00010   0.01537   0.00000  Uiso   1.00
C8     C     0.89898   0.00024  -0.00807   0.00000  Uiso   1.00
C9     C     0.85458   0.00043  -0.00101   0.00000  Uiso   1.00
C10    C     0.77131   0.00062   0.00666   0.00000  Uiso   1.00
C11    C     0.72779   0.00067   0.01031   0.00000  Uiso   1.00
C12    C     0.64540   0.00069   0.01619   0.00000  Uiso   1.00
C13    C     0.51959  -0.00077   0.01225   0.00000  Uiso   1.00
N14    N     0.60352   0.00055   0.01561   0.00000  Uiso   1.00
C15    C    -0.00003   0.10173   0.01389   0.00000  Uiso   1.00
C16    C    -0.00022   0.14626   0.00833   0.00000  Uiso   1.00
C17    C    -0.00027   0.22905   0.00452   0.00000  Uiso   1.00
C18    C    -0.00002   0.27188   0.00494   0.00000  Uiso   1.00
C19    C     0.00076   0.35384   0.00160   0.00000  Uiso   1.00
C20    C     0.00006   0.47963  -0.01838   0.00000  Uiso   1.00
N21    N     0.00108   0.39578   0.00061   0.00000  Uiso   1.00
C22    C     0.00057   0.89851  -0.02454   0.00000  Uiso   1.00
C23    C     0.00067   0.85396  -0.02506   0.00000  Uiso   1.00
C24    C     0.00084   0.77116  -0.02662   0.00000  Uiso   1.00
C25    C     0.00100   0.72833  -0.02836   0.00000  Uiso   1.00
C26    C     0.00131   0.64634  -0.03276   0.00000  Uiso   1.00
C27    C     0.00011   0.52044  -0.02781   0.00000  Uiso   1.00
N28    N     0.00136   0.60436  -0.03733   0.00000  Uiso   1.00
C29    C     0.08143   0.96332   0.03885   0.00000  Uiso   1.00
C30    C     0.47912   0.93282  -0.21491   0.00000  Uiso   1.00
C31    C     0.53987   0.03241   0.12954   0.00000  Uiso   1.00
C32    C     0.58279   0.03188   0.14611   0.00000  Uiso   1.00
O33    O     0.59951   0.05924   0.29075   0.00000  Uiso   1.00
C34    C     0.66618   0.03387  -0.08709   0.00000  Uiso   1.00
C35    C     0.07470   0.89980  -0.04581   0.00000  Uiso   1.00
C36    C     0.20791   0.02985   0.19345   0.00000  Uiso   1.00
C37    C     0.29160   0.03293  -0.09129   0.00000  Uiso   1.00
C38    C     0.83277   0.02877  -0.19518   0.00000  Uiso   1.00
H39    H     0.46373   0.90714  -0.30695   0.00000  Uiso   1.00
H40    H     0.65078   0.05957  -0.17464   0.00000  Uiso   1.00
H41    H     0.08243   0.87044  -0.11243   0.00000  Uiso   1.00
H42    H     0.22317   0.05300   0.33681   0.00000  Uiso   1.00
H43    H     0.27628   0.05860  -0.18124   0.00000  Uiso   1.00
H44    H     0.84654   0.04880  -0.38742   0.00000  Uiso   1.00
C45    C     0.91882   0.03666   0.01668   0.00000  Uiso   1.00
C46    C     0.51915   0.06549   0.23939   0.00000  Uiso   1.00
C47    C     0.45850   0.96595  -0.10451   0.00000  Uiso   1.00
C48    C     0.41576   0.96681  -0.11906   0.00000  Uiso   1.00
O49    O     0.39842   0.93947  -0.25691   0.00000  Uiso   1.00
C50    C     0.33229   0.96707   0.13309   0.00000  Uiso   1.00
C51    C     0.92589   0.10057  -0.02937   0.00000  Uiso   1.00
C52    C     0.79265   0.97110   0.18619   0.00000  Uiso   1.00
C53    C     0.70666   0.96706   0.10296   0.00000  Uiso   1.00
C54    C     0.16751   0.97101  -0.16879   0.00000  Uiso   1.00
H55    H     0.53447   0.09121   0.33142   0.00000  Uiso   1.00
H56    H     0.34774   0.94178   0.23112   0.00000  Uiso   1.00
H57    H     0.91828   0.13021  -0.08194   0.00000  Uiso   1.00
H58    H     0.77868   0.94877   0.35142   0.00000  Uiso   1.00
H59    H     0.72072   0.94002   0.16563   0.00000  Uiso   1.00
H60    H     0.15379   0.95073  -0.35853   0.00000  Uiso   1.00
C61    C     0.03639   0.08161   0.03472   0.00000  Uiso   1.00
C62    C     0.07001   0.47973  -0.04799   0.00000  Uiso   1.00
C63    C     0.96509   0.54067  -0.05090   0.00000  Uiso   1.00
C64    C     0.96611   0.58315  -0.10428   0.00000  Uiso   1.00
O65    O     0.93707   0.59998  -0.21337   0.00000  Uiso   1.00
C66    C     0.96938   0.66709   0.10918   0.00000  Uiso   1.00
C67    C     0.09925   0.07179  -0.01924   0.00000  Uiso   1.00
C68    C     0.96946   0.20846   0.17437   0.00000  Uiso   1.00
C69    C     0.96757   0.29273  -0.11959   0.00000  Uiso   1.00
C70    C     0.97196   0.83213  -0.21675   0.00000  Uiso   1.00
H71    H     0.09717   0.46421  -0.06481   0.00000  Uiso   1.00
H72    H     0.94509   0.65179   0.23244   0.00000  Uiso   1.00
H73    H     0.12885   0.07905  -0.07590   0.00000  Uiso   1.00
H74    H     0.94630   0.22372   0.31727   0.00000  Uiso   1.00
H75    H     0.94213   0.27769  -0.22048   0.00000  Uiso   1.00
H76    H     0.95127   0.84586  -0.40160   0.00000  Uiso   1.00
C77    C     0.96418   0.91863  -0.00757   0.00000  Uiso   1.00
C78    C     0.93006   0.52026  -0.03223   0.00000  Uiso   1.00
C79    C     0.03500   0.45919  -0.04408   0.00000  Uiso   1.00
C80    C     0.03425   0.41635  -0.07820   0.00000  Uiso   1.00
O81    O     0.06314   0.39966  -0.19040   0.00000  Uiso   1.00
C82    C     0.03266   0.33264   0.13788   0.00000  Uiso   1.00
C83    C     0.90108   0.92799  -0.03177   0.00000  Uiso   1.00
C84    C     0.03107   0.79185   0.14236   0.00000  Uiso   1.00
C85    C     0.03340   0.70794  -0.15973   0.00000  Uiso   1.00
C86    C     0.02828   0.16800  -0.18748   0.00000  Uiso   1.00
H87    H     0.90287   0.53578  -0.04586   0.00000  Uiso   1.00
H88    H     0.05739   0.34764   0.25597   0.00000  Uiso   1.00
H89    H     0.87132   0.92030  -0.07296   0.00000  Uiso   1.00
H90    H     0.05437   0.77668   0.28390   0.00000  Uiso   1.00
H91    H     0.05844   0.72330  -0.26528   0.00000  Uiso   1.00
H92    H     0.04847   0.15428  -0.37832   0.00000  Uiso   1.00
C93    C     0.91895   0.96375  -0.02957   0.00000  Uiso   1.00
C94    C     0.51943   0.93294  -0.21560   0.00000  Uiso   1.00
C95    C     0.45824   0.03227   0.12869   0.00000  Uiso   1.00
C96    C     0.41530   0.03167   0.14243   0.00000  Uiso   1.00
O97    O     0.39834   0.05933   0.27922   0.00000  Uiso   1.00
C98    C     0.33199   0.03275  -0.09991   0.00000  Uiso   1.00
C99    C     0.92857   0.90079   0.02199   0.00000  Uiso   1.00
C100   C     0.79245   0.03013  -0.17576   0.00000  Uiso   1.00
C101   C     0.70657   0.03429  -0.07918   0.00000  Uiso   1.00
C102   C     0.16763   0.02828   0.21750   0.00000  Uiso   1.00
H103   H     0.53495   0.90736  -0.30813   0.00000  Uiso   1.00
H104   H     0.34724   0.05805  -0.20105   0.00000  Uiso   1.00
H105   H     0.92127   0.87117   0.07772   0.00000  Uiso   1.00
H106   H     0.77829   0.05257  -0.33786   0.00000  Uiso   1.00
H107   H     0.72056   0.06133  -0.14370   0.00000  Uiso   1.00
H108   H     0.15394   0.04885   0.40406   0.00000  Uiso   1.00
C109   C     0.08134   0.03619   0.00952   0.00000  Uiso   1.00
C110   C     0.47882   0.06543   0.23877   0.00000  Uiso   1.00
C111   C     0.53990   0.96617  -0.10560   0.00000  Uiso   1.00
C112   C     0.58263   0.96729  -0.12180   0.00000  Uiso   1.00
O113   O     0.60002   0.94010  -0.26244   0.00000  Uiso   1.00
C114   C     0.66629   0.96752   0.11678   0.00000  Uiso   1.00
C115   C     0.07217   0.09936   0.03751   0.00000  Uiso   1.00
C116   C     0.20781   0.96946  -0.14745   0.00000  Uiso   1.00
C117   C     0.29188   0.96668   0.12814   0.00000  Uiso   1.00
C118   C     0.83298   0.97231   0.19867   0.00000  Uiso   1.00
H119   H     0.46338   0.09110   0.33041   0.00000  Uiso   1.00
H120   H     0.65103   0.94178   0.20583   0.00000  Uiso   1.00
H121   H     0.07997   0.12904   0.08195   0.00000  Uiso   1.00
H122   H     0.22300   0.94641  -0.29325   0.00000  Uiso   1.00
H123   H     0.27676   0.94093   0.21931   0.00000  Uiso   1.00
H124   H     0.84694   0.95235   0.39048   0.00000  Uiso   1.00
C125   C     0.96365   0.08175  -0.01185   0.00000  Uiso   1.00
C126   C     0.93009   0.48007   0.01296   0.00000  Uiso   1.00
C127   C     0.03519   0.54073  -0.01254   0.00000  Uiso   1.00
C128   C     0.03468   0.58353   0.02806   0.00000  Uiso   1.00
O129   O     0.06393   0.59991   0.13559   0.00000  Uiso   1.00
C130   C     0.03306   0.66752  -0.17295   0.00000  Uiso   1.00
C131   C     0.89982   0.07437   0.03388   0.00000  Uiso   1.00
C132   C     0.02990   0.20833  -0.16501   0.00000  Uiso   1.00
C133   C     0.03271   0.29222   0.12938   0.00000  Uiso   1.00
C134   C     0.02939   0.83217   0.16700   0.00000  Uiso   1.00
H135   H     0.90295   0.46464   0.03845   0.00000  Uiso   1.00
H136   H     0.05741   0.65255  -0.29910   0.00000  Uiso   1.00
H137   H     0.87011   0.08187   0.08501   0.00000  Uiso   1.00
H138   H     0.05308   0.22347  -0.30895   0.00000  Uiso   1.00
H139   H     0.05787   0.27681   0.23179   0.00000  Uiso   1.00
H140   H     0.04971   0.84581   0.35696   0.00000  Uiso   1.00
C141   C     0.03689   0.91855  -0.03613   0.00000  Uiso   1.00
C142   C     0.07012   0.52008  -0.02190   0.00000  Uiso   1.00
C143   C     0.96509   0.45956   0.01898   0.00000  Uiso   1.00
C144   C     0.96624   0.41720   0.07950   0.00000  Uiso   1.00
O145   O     0.93810   0.40083   0.21278   0.00000  Uiso   1.00
C146   C     0.96836   0.33317  -0.13033   0.00000  Uiso   1.00
C147   C     0.10031   0.92554   0.04890   0.00000  Uiso   1.00
C148   C     0.97048   0.79178  -0.19409   0.00000  Uiso   1.00
C149   C     0.96874   0.70754   0.10077   0.00000  Uiso   1.00
C150   C     0.97107   0.16812   0.19966   0.00000  Uiso   1.00
H151   H     0.09738   0.53549  -0.01367   0.00000  Uiso   1.00
H152   H     0.94382   0.34860  -0.24679   0.00000  Uiso   1.00
H153   H     0.12971   0.91792   0.11466   0.00000  Uiso   1.00
H154   H     0.94719   0.77656  -0.33542   0.00000  Uiso   1.00
H155   H     0.94363   0.72264   0.20827   0.00000  Uiso   1.00
H156   H     0.95070   0.15445   0.38914   0.00000  Uiso   1.00
N157   N     0.04272   0.95732   0.00132   0.00000  Uiso   1.00
N158   N     0.95769   0.04282   0.00233   0.00000  Uiso   1.00
N159   N     0.04259   0.04269   0.03674   0.00000  Uiso   1.00
N160   N     0.95781   0.95743  -0.03354   0.00000  Uiso   1.00
H161   H     0.97863   0.97836  -0.07180   0.00000  Uiso   1.00
H162   H     0.02174   0.02179   0.07488   0.00000  Uiso   1.00
loop_
_geom_bond_atom_site_label_1
_geom_bond_atom_site_label_2
_geom_bond_distance
_geom_bond_site_symmetry_2
_ccdc_geom_bond_type
C1     C2      1.540   .     S
C1     C29     1.438   1_545 S
C1     C109    1.441   .     D
C2     C54     1.415   1_545 S
C2     C102    1.415   .     D
C3     C4      1.480   .     S
C3     C36     1.398   .     D
C3     C116    1.398   1_545 S
C4     C37     1.402   .     S
C4     C117    1.402   1_545 D
C5     N7      1.449   .     S
C5     C50     1.405   1_545 D
C5     C98     1.406   .     S
C6     C13     1.417   .     D
C6     C47     1.405   1_545 S
C6     C95     1.407   .     S
N7     C48     1.440   1_545 S
N7     C96     1.377   .     S
C8     C9      1.538   .     S
C8     C45     1.438   .     D
C8     C93     1.442   1_545 S
C9     C38     1.411   .     S
C9     C118    1.411   1_545 D
C10    C11     1.507   .     S
C10    C52     1.408   1_545 D
C10    C100    1.408   .     S
C11    C53     1.412   1_545 S
C11    C101    1.411   .     D
C12    N14     1.450   .     S
C12    C34     1.402   .     D
C12    C114    1.402   1_545 S
C13    C31     1.407   .     S
C13    C111    1.405   1_545 S
N14    C32     1.378   .     S
N14    C112    1.441   1_545 S
C15    C16     1.542   .     S
C15    C61     1.442   .     D
C15    C125    1.438   1_455 S
C16    C86     1.416   .     S
C16    C150    1.416   1_455 D
C17    C18     1.483   .     S
C17    C68     1.399   1_455 D
C17    C132    1.398   .     S
C18    C69     1.403   1_455 S
C18    C133    1.403   .     D
C19    N21     1.452   .     S
C19    C82     1.408   .     D
C19    C146    1.408   1_455 S
C20    C27     1.414   .     D
C20    C79     1.404   .     S
C20    C143    1.402   1_455 S
N21    C80     1.379   .     S
N21    C144    1.442   1_455 S
C22    C23     1.542   .     S
C22    C77     1.441   1_455 S
C22    C141    1.437   .     D
C23    C70     1.416   1_455 D
C23    C134    1.416   .     S
C24    C25     1.483   .     S
C24    C84     1.398   .     S
C24    C148    1.398   1_455 D
C25    C85     1.402   .     D
C25    C149    1.403   1_455 S
C26    N28     1.454   .     S
C26    C66     1.408   1_455 S
C26    C130    1.409   .     D
C27    C63     1.402   1_455 S
C27    C127    1.404   .     S
N28    C64     1.443   1_455 S
N28    C128    1.379   .     S
C29    C1      1.438   1_565 S
C29    C147    1.462   .     S
C29    N157    1.363   .     D
C30    H39     1.085   .     S
C30    C47     1.404   .     D
C30    C94     1.396   .     S
C31    C32     1.487   .     S
C31    C46     1.405   .     D
C32    O33     1.219   .     D
C34    H40     1.081   .     S
C34    C101    1.399   .     S
C35    H41     1.076   .     S
C35    C141    1.461   .     S
C35    C147    1.300   .     D
C36    H42     1.082   .     S
C36    C102    1.398   .     S
C37    H43     1.081   .     S
C37    C98     1.399   .     D
C38    H44     1.075   .     S
C38    C100    1.398   .     D
C45    C131    1.463   .     S
C45    N158    1.363   .     S
C46    H55     1.085   .     S
C46    C110    1.396   .     S
C47    C6      1.405   1_565 S
C47    C48     1.481   .     S
C48    N7      1.440   1_565 S
C48    O49     1.220   .     D
C50    C5      1.405   1_565 D
C50    H56     1.081   .     S
C50    C117    1.399   .     S
C51    H57     1.076   .     S
C51    C125    1.462   .     S
C51    C131    1.298   .     D
C52    C10     1.408   1_565 D
C52    H58     1.078   .     S
C52    C118    1.398   .     S
C53    C11     1.412   1_565 S
C53    H59     1.078   .     S
C53    C114    1.399   .     D
C54    C2      1.415   1_565 S
C54    H60     1.075   .     S
C54    C116    1.398   .     D
C61    C115    1.383   .     S
C61    N159    1.364   .     S
C62    H71     1.085   .     S
C62    C79     1.405   .     D
C62    C142    1.400   .     S
C63    C27     1.402   1_655 S
C63    C64     1.483   .     S
C63    C78     1.405   .     D
C64    N28     1.443   1_655 S
C64    O65     1.223   .     D
C66    C26     1.408   1_655 S
C66    H72     1.082   .     S
C66    C149    1.401   .     D
C67    H73     1.073   .     S
C67    C109    1.383   .     S
C67    C115    1.352   .     D
C68    C17     1.399   1_655 D
C68    H74     1.082   .     S
C68    C150    1.401   .     S
C69    C18     1.403   1_655 S
C69    H75     1.082   .     S
C69    C146    1.401   .     D
C70    C23     1.416   1_655 D
C70    H76     1.074   .     S
C70    C148    1.400   .     S
C77    C22     1.441   1_655 S
C77    C99     1.383   .     D
C77    N160    1.364   .     S
C78    H87     1.085   .     S
C78    C126    1.400   .     S
C79    C80     1.488   .     S
C80    O81     1.220   .     D
C82    H88     1.082   .     S
C82    C133    1.400   .     S
C83    H89     1.074   .     S
C83    C93     1.384   .     D
C83    C99     1.352   .     S
C84    H90     1.082   .     S
C84    C134    1.400   .     D
C85    H91     1.081   .     S
C85    C130    1.400   .     S
C86    H92     1.075   .     S
C86    C132    1.399   .     D
C93    C8      1.442   1_565 S
C93    N160    1.363   .     S
C94    H103    1.085   .     S
C94    C111    1.405   .     D
C95    C96     1.487   .     S
C95    C110    1.405   .     D
C96    O97     1.220   .     D
C98    H104    1.082   .     S
C99    H105    1.074   .     S
C100   H106    1.078   .     S
C101   H107    1.078   .     S
C102   H108    1.074   .     S
C109   N159    1.364   .     S
C110   H119    1.085   .     S
C111   C13     1.405   1_565 S
C111   C112    1.481   .     S
C112   N14     1.441   1_565 S
C112   O113    1.220   .     D
C114   C12     1.402   1_565 S
C114   H120    1.081   .     S
C115   H121    1.074   .     S
C116   C3      1.398   1_565 S
C116   H122    1.082   .     S
C117   C4      1.402   1_565 D
C117   H123    1.082   .     S
C118   C9      1.411   1_565 D
C118   H124    1.076   .     S
C125   C15     1.438   1_655 S
C125   N158    1.364   .     D
C126   H135    1.084   .     S
C126   C143    1.405   .     D
C127   C128    1.488   .     S
C127   C142    1.405   .     D
C128   O129    1.220   .     D
C130   H136    1.083   .     S
C131   H137    1.076   .     S
C132   H138    1.082   .     S
C133   H139    1.082   .     S
C134   H140    1.075   .     S
C141   N157    1.364   .     S
C142   H151    1.085   .     S
C143   C20     1.402   1_655 S
C143   C144    1.482   .     S
C144   N21     1.442   1_655 S
C144   O145    1.219   .     D
C146   C19     1.408   1_655 S
C146   H152    1.082   .     S
C147   H153    1.076   .     S
C148   C24     1.398   1_655 D
C148   H154    1.082   .     S
C149   C25     1.403   1_655 S
C149   H155    1.081   .     S
C150   C16     1.416   1_655 D
C150   H156    1.075   .     S
N159   H162    1.031   .     S
N160   H161    1.031   .     S
