data_37
_audit_creation_date              2023-09-08
_audit_creation_method            'Materials Studio'
_symmetry_space_group_name_H-M    'P1'
_symmetry_Int_Tables_number       1
_symmetry_cell_setting            triclinic
loop_
_symmetry_equiv_pos_as_xyz
  x,y,z
_cell_length_a                    18.3370
_cell_length_b                    18.3930
_cell_length_c                    3.6560
_cell_angle_alpha                 105.5710
_cell_angle_beta                  82.2640
_cell_angle_gamma                 119.7210
loop_
_atom_site_label
_atom_site_type_symbol
_atom_site_fract_x
_atom_site_fract_y
_atom_site_fract_z
_atom_site_U_iso_or_equiv
_atom_site_adp_type
_atom_site_occupancy
C1     C    -0.19837  -0.73932  -0.49189   0.00000  Uiso   1.00
C2     C    -0.19837  -0.66512  -0.51188   0.00000  Uiso   1.00
C3     C    -0.27462  -0.66529  -0.52191   0.00000  Uiso   1.00
C4     C    -0.34980  -0.73948  -0.51060   0.00000  Uiso   1.00
C5     C    -0.34980  -0.81452  -0.49066   0.00000  Uiso   1.00
C6     C    -0.27462  -0.81446  -0.48060   0.00000  Uiso   1.00
C7     C    -0.29649  -0.90127  -0.46575   0.00000  Uiso   1.00
N8     N    -0.38214  -0.95277  -0.47310   0.00000  Uiso   1.00
C9     C    -0.41591  -0.90144  -0.48553   0.00000  Uiso   1.00
C10    C    -0.41591  -0.71786  -0.51464   0.00000  Uiso   1.00
N11    N    -0.38214  -0.63317  -0.52762   0.00000  Uiso   1.00
C12    C    -0.29649  -0.60008  -0.53639   0.00000  Uiso   1.00
C13    C    -0.11065  -0.71780  -0.48635   0.00000  Uiso   1.00
N14    N    -0.05927  -0.63353  -0.50303   0.00000  Uiso   1.00
C15    C    -0.11065  -0.60000  -0.51886   0.00000  Uiso   1.00
O16    O    -0.49080  -0.92630  -0.50225   0.00000  Uiso   1.00
O17    O    -0.24632  -0.92473  -0.43806   0.00000  Uiso   1.00
O18    O    -0.08567  -0.76644  -0.45969   0.00000  Uiso   1.00
O19    O    -0.08567  -0.52669  -0.54592   0.00000  Uiso   1.00
O20    O    -0.24632  -0.52708  -0.56491   0.00000  Uiso   1.00
O21    O    -0.49080  -0.76697  -0.49667   0.00000  Uiso   1.00
C22    C    -0.42757  -0.58708  -0.51841   0.00000  Uiso   1.00
C23    C    -0.39402  -0.49962  -0.33141   0.00000  Uiso   1.00
C24    C    -0.43818  -0.45521  -0.31890   0.00000  Uiso   1.00
C25    C    -0.51748  -0.49717  -0.49129   0.00000  Uiso   1.00
C26    C    -0.55113  -0.58482  -0.67655   0.00000  Uiso   1.00
C27    C    -0.50697  -0.62915  -0.68837   0.00000  Uiso   1.00
C28    C    -0.56405  -0.44967  -0.48841   0.00000  Uiso   1.00
C29    C    -0.65226  -0.49196  -0.48065   0.00000  Uiso   1.00
C30    C    -0.69684  -0.44923  -0.49801   0.00000  Uiso   1.00
C31    C    -0.65226  -0.36246  -0.51611   0.00000  Uiso   1.00
C32    C    -0.56405  -0.31763  -0.50980   0.00000  Uiso   1.00
C33    C    -0.52070  -0.36225  -0.49947   0.00000  Uiso   1.00
C34    C    -0.79003  -0.49525  -0.49725   0.00000  Uiso   1.00
C35    C    -0.51748  -0.22414  -0.50770   0.00000  Uiso   1.00
C36    C    -0.43818  -0.18778  -0.68140   0.00000  Uiso   1.00
C37    C    -0.39402  -0.09974  -0.66962   0.00000  Uiso   1.00
C38    C    -0.42757  -0.04543  -0.48206   0.00000  Uiso   1.00
C39    C    -0.50697  -0.08178  -0.31079   0.00000  Uiso   1.00
C40    C    -0.55113  -0.16972  -0.32188   0.00000  Uiso   1.00
C41    C    -0.83489  -0.45384  -0.28969   0.00000  Uiso   1.00
C42    C    -0.92258  -0.49719  -0.28904   0.00000  Uiso   1.00
C43    C    -0.96731  -0.58280  -0.49579   0.00000  Uiso   1.00
C44    C    -0.92258  -0.62422  -0.70328   0.00000  Uiso   1.00
C45    C    -0.83489  -0.58096  -0.70407   0.00000  Uiso   1.00
H46    H    -0.33463  -0.46588  -0.18419   0.00000  Uiso   1.00
H47    H    -0.41076  -0.38845  -0.16535   0.00000  Uiso   1.00
H48    H    -0.61065  -0.61894  -0.82340   0.00000  Uiso   1.00
H49    H    -0.53443  -0.69594  -0.83970   0.00000  Uiso   1.00
H50    H    -0.68660  -0.55796  -0.45288   0.00000  Uiso   1.00
H51    H    -0.68660  -0.33038  -0.54332   0.00000  Uiso   1.00
H52    H    -0.45289  -0.32876  -0.50003   0.00000  Uiso   1.00
H53    H    -0.41076  -0.22745  -0.83540   0.00000  Uiso   1.00
H54    H    -0.33464  -0.07483  -0.81782   0.00000  Uiso   1.00
H55    H    -0.53443  -0.04211  -0.15901   0.00000  Uiso   1.00
H56    H    -0.61065  -0.19439  -0.17405   0.00000  Uiso   1.00
H57    H    -0.80216  -0.38845  -0.12124   0.00000  Uiso   1.00
H58    H    -0.95547  -0.46437  -0.12008   0.00000  Uiso   1.00
H59    H    -0.95547  -0.68953  -0.87170   0.00000  Uiso   1.00
H60    H    -0.80215  -0.61402  -0.87306   0.00000  Uiso   1.00
loop_
_geom_bond_atom_site_label_1
_geom_bond_atom_site_label_2
_geom_bond_distance
_geom_bond_site_symmetry_2
_ccdc_geom_bond_type
C1     C2      1.386   .     D
C1     C6      1.402   .     S
C1     C13     1.455   .     S
C2     C3      1.402   .     S
C2     C15     1.455   .     S
C3     C4      1.383   .     D
C3     C12     1.456   .     S
C4     C5      1.402   .     S
C4     C10     1.454   .     S
C5     C6      1.383   .     D
C5     C9      1.454   .     S
C6     C7      1.456   .     S
C7     N8      1.374   .     S
C7     O17     1.219   .     D
N8     C9      1.374   .     S
N8     C38     1.473   1_545 S
C9     O16     1.218   .     D
C10    N11     1.374   .     S
C10    O21     1.218   .     D
N11    C12     1.374   .     S
N11    C22     1.446   .     S
C12    O20     1.218   .     D
C13    N14     1.372   .     S
C13    O18     1.219   .     D
N14    C15     1.372   .     S
N14    C43     1.467   1_655 S
C15    O19     1.219   .     D
C22    C23     1.405   .     D
C22    C27     1.405   .     S
C23    C24     1.397   .     S
C23    H46     1.081   .     S
C24    C25     1.407   .     D
C24    H47     1.081   .     S
C25    C26     1.407   .     S
C25    C28     1.492   .     S
C26    C27     1.396   .     D
C26    H48     1.082   .     S
C27    H49     1.080   .     S
C28    C29     1.405   .     S
C28    C33     1.406   .     D
C29    C30     1.403   .     D
C29    H50     1.082   .     S
C30    C31     1.403   .     S
C30    C34     1.484   .     S
C31    C32     1.405   .     D
C31    H51     1.082   .     S
C32    C33     1.407   .     S
C32    C35     1.492   .     S
C33    H52     1.080   .     S
C34    C41     1.406   .     D
C34    C45     1.405   .     S
C35    C36     1.407   .     D
C35    C40     1.407   .     S
C36    C37     1.397   .     S
C36    H53     1.081   .     S
C37    C38     1.405   .     D
C37    H54     1.081   .     S
C38    N8      1.473   1_565 S
C38    C39     1.405   .     S
C39    C40     1.396   .     D
C39    H55     1.080   .     S
C40    H56     1.082   .     S
C41    C42     1.396   .     S
C41    H57     1.083   .     S
C42    C43     1.404   .     D
C42    H58     1.082   .     S
C43    N14     1.467   1_455 S
C43    C44     1.404   .     S
C44    C45     1.396   .     D
C44    H59     1.082   .     S
C45    H60     1.083   .     S
