data_370
_audit_creation_date              2023-09-08
_audit_creation_method            'Materials Studio'
_symmetry_space_group_name_H-M    'P1'
_symmetry_Int_Tables_number       1
_symmetry_cell_setting            triclinic
loop_
_symmetry_equiv_pos_as_xyz
  x,y,z
_cell_length_a                    37.4026
_cell_length_b                    37.4026
_cell_length_c                    3.9699
_cell_angle_alpha                 90.0000
_cell_angle_beta                  90.0000
_cell_angle_gamma                 120.0000
loop_
_atom_site_label
_atom_site_type_symbol
_atom_site_fract_x
_atom_site_fract_y
_atom_site_fract_z
_atom_site_U_iso_or_equiv
_atom_site_adp_type
_atom_site_occupancy
C1     C     0.47108   0.95676   0.66740   0.00000  Uiso   1.00
C2     C     0.45654   0.98462   0.65162   0.00000  Uiso   1.00
C3     C     0.48369   0.02745   0.66396   0.00000  Uiso   1.00
C4     C     0.44076   0.91216   0.68746   0.00000  Uiso   1.00
N5     N     0.45215   0.88592   0.77637   0.00000  Uiso   1.00
C6     C     0.42618   0.84199   0.81043   0.00000  Uiso   1.00
C7     C     0.38513   0.82042   0.69349   0.00000  Uiso   1.00
C8     C     0.36181   0.77750   0.72439   0.00000  Uiso   1.00
C9     C     0.37922   0.75528   0.86596   0.00000  Uiso   1.00
C10    C     0.42009   0.77680   0.98241   0.00000  Uiso   1.00
C11    C     0.44316   0.81976   0.95674   0.00000  Uiso   1.00
C12    C     0.35532   0.70981   0.88286   0.00000  Uiso   1.00
N13    N     0.31352   0.68972   0.88254   0.00000  Uiso   1.00
H14    H     0.42366   0.97269   0.62783   0.00000  Uiso   1.00
H15    H     0.40862   0.90225   0.64327   0.00000  Uiso   1.00
H16    H     0.37097   0.83605   0.57159   0.00000  Uiso   1.00
H17    H     0.33053   0.76158   0.62813   0.00000  Uiso   1.00
H18    H     0.43415   0.76047   1.09562   0.00000  Uiso   1.00
H19    H     0.47447   0.83585   1.05140   0.00000  Uiso   1.00
O20    O     0.58618   0.53037   0.62459   0.00000  Uiso   1.00
C21    C     0.61506   0.56768   0.77825   0.00000  Uiso   1.00
C22    C     0.65954   0.58770   0.66515   0.00000  Uiso   1.00
C23    C     0.68608   0.63195   0.79164   0.00000  Uiso   1.00
C24    C     0.67464   0.66134   0.70332   0.00000  Uiso   1.00
C25    C     0.69862   0.70252   0.80298   0.00000  Uiso   1.00
C26    C     0.73470   0.71515   0.98810   0.00000  Uiso   1.00
C27    C     0.74672   0.68657   1.07576   0.00000  Uiso   1.00
C28    C     0.72271   0.64525   0.97896   0.00000  Uiso   1.00
O29    O     0.60475   0.58325   1.00067   0.00000  Uiso   1.00
C30    C     0.67690   0.55893   0.73610   0.00000  Uiso   1.00
H31    H     0.65914   0.59008   0.38944   0.00000  Uiso   1.00
H32    H     0.64718   0.65233   0.55416   0.00000  Uiso   1.00
H33    H     0.68941   0.72474   0.73362   0.00000  Uiso   1.00
H34    H     0.75329   0.74708   1.06455   0.00000  Uiso   1.00
H35    H     0.77460   0.69638   1.22096   0.00000  Uiso   1.00
H36    H     0.73301   0.62409   1.05367   0.00000  Uiso   1.00
H37    H     0.67757   0.55355   1.00970   0.00000  Uiso   1.00
H38    H     0.65746   0.52863   0.61135   0.00000  Uiso   1.00
H39    H     0.70855   0.57221   0.63109   0.00000  Uiso   1.00
C40    C     0.04324   0.51432   0.66740   0.00000  Uiso   1.00
C41    C     0.01538   0.47192   0.65162   0.00000  Uiso   1.00
C42    C     0.97255   0.45624   0.66396   0.00000  Uiso   1.00
C43    C     0.08784   0.52860   0.68746   0.00000  Uiso   1.00
N44    N     0.11408   0.56623   0.77637   0.00000  Uiso   1.00
C45    C     0.15801   0.58419   0.81043   0.00000  Uiso   1.00
C46    C     0.17958   0.56471   0.69349   0.00000  Uiso   1.00
C47    C     0.22250   0.58431   0.72439   0.00000  Uiso   1.00
C48    C     0.24472   0.62394   0.86596   0.00000  Uiso   1.00
C49    C     0.22320   0.64329   0.98241   0.00000  Uiso   1.00
C50    C     0.18024   0.62340   0.95674   0.00000  Uiso   1.00
C51    C     0.29019   0.64551   0.88286   0.00000  Uiso   1.00
N52    N     0.31028   0.62380   0.88254   0.00000  Uiso   1.00
H53    H     0.02731   0.45097   0.62783   0.00000  Uiso   1.00
H54    H     0.09775   0.50637   0.64327   0.00000  Uiso   1.00
H55    H     0.16395   0.53492   0.57159   0.00000  Uiso   1.00
H56    H     0.23842   0.56895   0.62813   0.00000  Uiso   1.00
H57    H     0.23953   0.67368   1.09562   0.00000  Uiso   1.00
H58    H     0.16415   0.63862   1.05140   0.00000  Uiso   1.00
O59    O     0.46963   0.05581   0.62459   0.00000  Uiso   1.00
C60    C     0.43232   0.04738   0.77825   0.00000  Uiso   1.00
C61    C     0.41230   0.07184   0.66515   0.00000  Uiso   1.00
C62    C     0.36805   0.05413   0.79164   0.00000  Uiso   1.00
C63    C     0.33866   0.01330   0.70332   0.00000  Uiso   1.00
C64    C     0.29748   0.99610   0.80298   0.00000  Uiso   1.00
C65    C     0.28485   0.01955   0.98810   0.00000  Uiso   1.00
C66    C     0.31343   0.06015   1.07576   0.00000  Uiso   1.00
C67    C     0.35475   0.07746   0.97896   0.00000  Uiso   1.00
O68    O     0.41675   0.02150   1.00067   0.00000  Uiso   1.00
C69    C     0.44107   0.11797   0.73610   0.00000  Uiso   1.00
H70    H     0.40992   0.06906   0.38944   0.00000  Uiso   1.00
H71    H     0.34767   0.99485   0.55416   0.00000  Uiso   1.00
H72    H     0.27526   0.96467   0.73362   0.00000  Uiso   1.00
H73    H     0.25292   0.00621   1.06455   0.00000  Uiso   1.00
H74    H     0.30362   0.07822   1.22096   0.00000  Uiso   1.00
H75    H     0.37591   0.10892   1.05367   0.00000  Uiso   1.00
H76    H     0.44645   0.12402   1.00970   0.00000  Uiso   1.00
H77    H     0.47137   0.12883   0.61135   0.00000  Uiso   1.00
H78    H     0.42779   0.13634   0.63109   0.00000  Uiso   1.00
C79    C     0.48568   0.52892   0.66740   0.00000  Uiso   1.00
C80    C     0.52808   0.54346   0.65162   0.00000  Uiso   1.00
C81    C     0.54376   0.51631   0.66396   0.00000  Uiso   1.00
C82    C     0.47140   0.55924   0.68746   0.00000  Uiso   1.00
N83    N     0.43377   0.54785   0.77637   0.00000  Uiso   1.00
C84    C     0.41581   0.57382   0.81043   0.00000  Uiso   1.00
C85    C     0.43529   0.61487   0.69349   0.00000  Uiso   1.00
C86    C     0.41569   0.63819   0.72439   0.00000  Uiso   1.00
C87    C     0.37606   0.62078   0.86596   0.00000  Uiso   1.00
C88    C     0.35671   0.57991   0.98241   0.00000  Uiso   1.00
C89    C     0.37660   0.55684   0.95674   0.00000  Uiso   1.00
C90    C     0.35449   0.64468   0.88286   0.00000  Uiso   1.00
N91    N     0.37620   0.68648   0.88254   0.00000  Uiso   1.00
H92    H     0.54903   0.57634   0.62783   0.00000  Uiso   1.00
H93    H     0.49363   0.59138   0.64327   0.00000  Uiso   1.00
H94    H     0.46508   0.62903   0.57159   0.00000  Uiso   1.00
H95    H     0.43105   0.66947   0.62813   0.00000  Uiso   1.00
H96    H     0.32632   0.56585   1.09562   0.00000  Uiso   1.00
H97    H     0.36138   0.52553   1.05140   0.00000  Uiso   1.00
O98    O     0.94419   0.41382   0.62459   0.00000  Uiso   1.00
C99    C     0.95262   0.38494   0.77825   0.00000  Uiso   1.00
C100   C     0.92816   0.34046   0.66515   0.00000  Uiso   1.00
C101   C     0.94587   0.31392   0.79164   0.00000  Uiso   1.00
C102   C     0.98670   0.32536   0.70332   0.00000  Uiso   1.00
C103   C     0.00390   0.30138   0.80298   0.00000  Uiso   1.00
C104   C     0.98045   0.26530   0.98810   0.00000  Uiso   1.00
C105   C     0.93985   0.25328   1.07576   0.00000  Uiso   1.00
C106   C     0.92254   0.27729   0.97896   0.00000  Uiso   1.00
O107   O     0.97850   0.39525   1.00067   0.00000  Uiso   1.00
C108   C     0.88203   0.32310   0.73610   0.00000  Uiso   1.00
H109   H     0.93094   0.34086   0.38944   0.00000  Uiso   1.00
H110   H     0.00515   0.35282   0.55416   0.00000  Uiso   1.00
H111   H     0.03533   0.31059   0.73362   0.00000  Uiso   1.00
H112   H     0.99379   0.24671   1.06455   0.00000  Uiso   1.00
H113   H     0.92178   0.22540   1.22096   0.00000  Uiso   1.00
H114   H     0.89108   0.26699   1.05367   0.00000  Uiso   1.00
H115   H     0.87598   0.32243   1.00970   0.00000  Uiso   1.00
H116   H     0.87117   0.34254   0.61135   0.00000  Uiso   1.00
H117   H     0.86366   0.29145   0.63109   0.00000  Uiso   1.00
C118   C     0.52892   0.04324   0.66740   0.00000  Uiso   1.00
C119   C     0.54346   0.01538   0.65162   0.00000  Uiso   1.00
C120   C     0.51631   0.97255   0.66396   0.00000  Uiso   1.00
C121   C     0.55924   0.08784   0.68746   0.00000  Uiso   1.00
N122   N     0.54785   0.11408   0.77637   0.00000  Uiso   1.00
C123   C     0.57382   0.15801   0.81043   0.00000  Uiso   1.00
C124   C     0.61487   0.17958   0.69349   0.00000  Uiso   1.00
C125   C     0.63819   0.22250   0.72439   0.00000  Uiso   1.00
C126   C     0.62078   0.24472   0.86596   0.00000  Uiso   1.00
C127   C     0.57991   0.22320   0.98241   0.00000  Uiso   1.00
C128   C     0.55684   0.18024   0.95674   0.00000  Uiso   1.00
C129   C     0.64468   0.29019   0.88286   0.00000  Uiso   1.00
N130   N     0.68648   0.31028   0.88254   0.00000  Uiso   1.00
H131   H     0.57634   0.02731   0.62783   0.00000  Uiso   1.00
H132   H     0.59138   0.09775   0.64327   0.00000  Uiso   1.00
H133   H     0.62903   0.16395   0.57159   0.00000  Uiso   1.00
H134   H     0.66947   0.23842   0.62813   0.00000  Uiso   1.00
H135   H     0.56585   0.23953   1.09562   0.00000  Uiso   1.00
H136   H     0.52553   0.16415   1.05140   0.00000  Uiso   1.00
O137   O     0.41382   0.46963   0.62459   0.00000  Uiso   1.00
C138   C     0.38494   0.43232   0.77825   0.00000  Uiso   1.00
C139   C     0.34046   0.41230   0.66515   0.00000  Uiso   1.00
C140   C     0.31392   0.36805   0.79164   0.00000  Uiso   1.00
C141   C     0.32536   0.33866   0.70332   0.00000  Uiso   1.00
C142   C     0.30138   0.29748   0.80298   0.00000  Uiso   1.00
C143   C     0.26530   0.28485   0.98810   0.00000  Uiso   1.00
C144   C     0.25328   0.31343   1.07576   0.00000  Uiso   1.00
C145   C     0.27729   0.35475   0.97896   0.00000  Uiso   1.00
O146   O     0.39525   0.41675   1.00067   0.00000  Uiso   1.00
C147   C     0.32310   0.44107   0.73610   0.00000  Uiso   1.00
H148   H     0.34086   0.40992   0.38944   0.00000  Uiso   1.00
H149   H     0.35282   0.34767   0.55416   0.00000  Uiso   1.00
H150   H     0.31059   0.27526   0.73362   0.00000  Uiso   1.00
H151   H     0.24671   0.25292   1.06455   0.00000  Uiso   1.00
H152   H     0.22540   0.30362   1.22096   0.00000  Uiso   1.00
H153   H     0.26699   0.37591   1.05367   0.00000  Uiso   1.00
H154   H     0.32243   0.44645   1.00970   0.00000  Uiso   1.00
H155   H     0.34254   0.47137   0.61135   0.00000  Uiso   1.00
H156   H     0.29145   0.42779   0.63109   0.00000  Uiso   1.00
C157   C     0.95676   0.48568   0.66740   0.00000  Uiso   1.00
C158   C     0.98462   0.52808   0.65162   0.00000  Uiso   1.00
C159   C     0.02745   0.54376   0.66396   0.00000  Uiso   1.00
C160   C     0.91216   0.47140   0.68746   0.00000  Uiso   1.00
N161   N     0.88592   0.43377   0.77637   0.00000  Uiso   1.00
C162   C     0.84199   0.41581   0.81043   0.00000  Uiso   1.00
C163   C     0.82042   0.43529   0.69349   0.00000  Uiso   1.00
C164   C     0.77750   0.41569   0.72439   0.00000  Uiso   1.00
C165   C     0.75528   0.37606   0.86596   0.00000  Uiso   1.00
C166   C     0.77680   0.35671   0.98241   0.00000  Uiso   1.00
C167   C     0.81976   0.37660   0.95674   0.00000  Uiso   1.00
C168   C     0.70981   0.35449   0.88286   0.00000  Uiso   1.00
N169   N     0.68972   0.37620   0.88254   0.00000  Uiso   1.00
H170   H     0.97269   0.54903   0.62783   0.00000  Uiso   1.00
H171   H     0.90225   0.49363   0.64327   0.00000  Uiso   1.00
H172   H     0.83605   0.46508   0.57159   0.00000  Uiso   1.00
H173   H     0.76158   0.43105   0.62813   0.00000  Uiso   1.00
H174   H     0.76047   0.32632   1.09562   0.00000  Uiso   1.00
H175   H     0.83585   0.36138   1.05140   0.00000  Uiso   1.00
O176   O     0.53037   0.94419   0.62459   0.00000  Uiso   1.00
C177   C     0.56768   0.95262   0.77825   0.00000  Uiso   1.00
C178   C     0.58770   0.92816   0.66515   0.00000  Uiso   1.00
C179   C     0.63195   0.94587   0.79164   0.00000  Uiso   1.00
C180   C     0.66134   0.98670   0.70332   0.00000  Uiso   1.00
C181   C     0.70252   0.00390   0.80298   0.00000  Uiso   1.00
C182   C     0.71515   0.98045   0.98810   0.00000  Uiso   1.00
C183   C     0.68657   0.93985   1.07576   0.00000  Uiso   1.00
C184   C     0.64525   0.92254   0.97896   0.00000  Uiso   1.00
O185   O     0.58325   0.97850   1.00067   0.00000  Uiso   1.00
C186   C     0.55893   0.88203   0.73610   0.00000  Uiso   1.00
H187   H     0.59008   0.93094   0.38944   0.00000  Uiso   1.00
H188   H     0.65233   0.00515   0.55416   0.00000  Uiso   1.00
H189   H     0.72474   0.03533   0.73362   0.00000  Uiso   1.00
H190   H     0.74708   0.99379   1.06455   0.00000  Uiso   1.00
H191   H     0.69638   0.92178   1.22096   0.00000  Uiso   1.00
H192   H     0.62409   0.89108   1.05367   0.00000  Uiso   1.00
H193   H     0.55355   0.87598   1.00970   0.00000  Uiso   1.00
H194   H     0.52863   0.87117   0.61135   0.00000  Uiso   1.00
H195   H     0.57221   0.86366   0.63109   0.00000  Uiso   1.00
C196   C     0.51432   0.47108   0.66740   0.00000  Uiso   1.00
C197   C     0.47192   0.45654   0.65162   0.00000  Uiso   1.00
C198   C     0.45624   0.48369   0.66396   0.00000  Uiso   1.00
C199   C     0.52860   0.44076   0.68746   0.00000  Uiso   1.00
N200   N     0.56623   0.45215   0.77637   0.00000  Uiso   1.00
C201   C     0.58419   0.42618   0.81043   0.00000  Uiso   1.00
C202   C     0.56471   0.38513   0.69349   0.00000  Uiso   1.00
C203   C     0.58431   0.36181   0.72439   0.00000  Uiso   1.00
C204   C     0.62394   0.37922   0.86596   0.00000  Uiso   1.00
C205   C     0.64329   0.42009   0.98241   0.00000  Uiso   1.00
C206   C     0.62340   0.44316   0.95674   0.00000  Uiso   1.00
C207   C     0.64551   0.35532   0.88286   0.00000  Uiso   1.00
N208   N     0.62380   0.31352   0.88254   0.00000  Uiso   1.00
H209   H     0.45097   0.42366   0.62783   0.00000  Uiso   1.00
H210   H     0.50637   0.40862   0.64327   0.00000  Uiso   1.00
H211   H     0.53492   0.37097   0.57159   0.00000  Uiso   1.00
H212   H     0.56895   0.33053   0.62813   0.00000  Uiso   1.00
H213   H     0.67368   0.43415   1.09562   0.00000  Uiso   1.00
H214   H     0.63862   0.47447   1.05140   0.00000  Uiso   1.00
O215   O     0.05581   0.58618   0.62459   0.00000  Uiso   1.00
C216   C     0.04738   0.61506   0.77825   0.00000  Uiso   1.00
C217   C     0.07184   0.65954   0.66515   0.00000  Uiso   1.00
C218   C     0.05413   0.68608   0.79164   0.00000  Uiso   1.00
C219   C     0.01330   0.67464   0.70332   0.00000  Uiso   1.00
C220   C     0.99610   0.69862   0.80298   0.00000  Uiso   1.00
C221   C     0.01955   0.73470   0.98810   0.00000  Uiso   1.00
C222   C     0.06015   0.74672   1.07576   0.00000  Uiso   1.00
C223   C     0.07746   0.72271   0.97896   0.00000  Uiso   1.00
O224   O     0.02150   0.60475   1.00067   0.00000  Uiso   1.00
C225   C     0.11797   0.67690   0.73610   0.00000  Uiso   1.00
H226   H     0.06906   0.65914   0.38944   0.00000  Uiso   1.00
H227   H     0.99485   0.64718   0.55416   0.00000  Uiso   1.00
H228   H     0.96467   0.68941   0.73362   0.00000  Uiso   1.00
H229   H     0.00621   0.75329   1.06455   0.00000  Uiso   1.00
H230   H     0.07822   0.77460   1.22096   0.00000  Uiso   1.00
H231   H     0.10892   0.73301   1.05367   0.00000  Uiso   1.00
H232   H     0.12402   0.67757   1.00970   0.00000  Uiso   1.00
H233   H     0.12883   0.65746   0.61135   0.00000  Uiso   1.00
H234   H     0.13634   0.70855   0.63109   0.00000  Uiso   1.00
loop_
_geom_bond_atom_site_label_1
_geom_bond_atom_site_label_2
_geom_bond_distance
_geom_bond_site_symmetry_2
_ccdc_geom_bond_type
C1     C2      1.397   .     S
C1     C4      1.478   .     S
C1     C120    1.487   .     D
C2     C3      1.405   1_565 D
C2     H14     1.082   .     S
C3     C2      1.405   1_545 D
C3     O59     1.409   .     S
C3     C118    1.487   .     S
C4     N5      1.299   .     D
C4     H15     1.081   .     S
N5     C6      1.437   .     S
C6     C7      1.409   .     S
C6     C11     1.400   .     D
C7     C8      1.397   .     D
C7     H16     1.080   .     S
C8     C9      1.404   .     S
C8     H17     1.083   .     S
C9     C10     1.403   .     D
C9     C12     1.475   .     S
C10    C11     1.397   .     S
C10    H18     1.083   .     S
C11    H19     1.082   .     S
C12    N13     1.354   .     S
C12    N91     1.433   .     D
N13    C51     1.433   .     D
O20    C21     1.407   .     S
O20    C81     1.409   .     S
C21    C22     1.511   .     S
C21    O29     1.222   .     D
C22    C23     1.528   .     S
C22    C30     1.535   .     S
C22    H31     1.099   .     S
C23    C24     1.409   .     S
C23    C28     1.413   .     D
C24    C25     1.397   .     D
C24    H32     1.083   .     S
C25    C26     1.395   .     S
C25    H33     1.082   .     S
C26    C27     1.395   .     D
C26    H34     1.082   .     S
C27    C28     1.398   .     S
C27    H35     1.082   .     S
C28    H36     1.081   .     S
C30    H37     1.107   .     S
C30    H38     1.111   .     S
C30    H39     1.111   .     S
C40    C41     1.397   .     D
C40    C43     1.478   .     S
C40    C159    1.487   .     S
C41    C42     1.405   1_455 S
C41    H53     1.082   .     S
C42    C41     1.405   1_655 S
C42    O98     1.409   .     S
C42    C157    1.487   .     D
C43    N44     1.299   .     D
C43    H54     1.081   .     S
N44    C45     1.437   .     S
C45    C46     1.409   .     D
C45    C50     1.400   .     S
C46    C47     1.397   .     S
C46    H55     1.080   .     S
C47    C48     1.404   .     D
C47    H56     1.083   .     S
C48    C49     1.403   .     S
C48    C51     1.475   .     S
C49    C50     1.397   .     D
C49    H57     1.083   .     S
C50    H58     1.082   .     S
C51    N52     1.354   .     S
N52    C90     1.433   .     D
O59    C60     1.407   .     S
C60    C61     1.511   .     S
C60    O68     1.222   .     D
C61    C62     1.528   .     S
C61    C69     1.535   .     S
C61    H70     1.099   .     S
C62    C63     1.409   .     S
C62    C67     1.413   .     D
C63    C64     1.397   1_545 D
C63    H71     1.083   1_545 S
C64    C63     1.397   1_565 D
C64    C65     1.395   1_565 S
C64    H72     1.082   .     S
C65    C64     1.395   1_545 S
C65    C66     1.395   .     D
C65    H73     1.082   .     S
C66    C67     1.398   .     S
C66    H74     1.082   .     S
C67    H75     1.081   .     S
C69    H76     1.107   .     S
C69    H77     1.111   .     S
C69    H78     1.111   .     S
H71    C63     1.083   1_565 S
C79    C80     1.397   .     D
C79    C82     1.478   .     S
C79    C198    1.487   .     S
C80    C81     1.405   .     S
C80    H92     1.082   .     S
C81    C196    1.487   .     D
C82    N83     1.299   .     D
C82    H93     1.081   .     S
N83    C84     1.437   .     S
C84    C85     1.409   .     D
C84    C89     1.400   .     S
C85    C86     1.397   .     S
C85    H94     1.080   .     S
C86    C87     1.404   .     D
C86    H95     1.083   .     S
C87    C88     1.403   .     S
C87    C90     1.475   .     S
C88    C89     1.397   .     D
C88    H96     1.083   .     S
C89    H97     1.082   .     S
C90    N91     1.354   .     S
O98    C99     1.407   .     S
C99    C100    1.511   .     S
C99    O107    1.222   .     D
C100   C101    1.528   .     S
C100   C108    1.535   .     S
C100   H109    1.099   .     S
C101   C102    1.409   .     S
C101   C106    1.413   .     D
C102   C103    1.397   1_655 D
C102   H110    1.083   1_655 S
C103   C102    1.397   1_455 D
C103   C104    1.395   1_455 S
C103   H111    1.082   .     S
C104   C103    1.395   1_655 S
C104   C105    1.395   .     D
C104   H112    1.082   .     S
C105   C106    1.398   .     S
C105   H113    1.082   .     S
C106   H114    1.081   .     S
C108   H115    1.107   .     S
C108   H116    1.111   .     S
C108   H117    1.111   .     S
H110   C102    1.083   1_455 S
C118   C119    1.397   .     D
C118   C121    1.478   .     S
C119   C120    1.405   1_545 S
C119   H131    1.082   .     S
C120   C119    1.405   1_565 S
C120   O176    1.409   .     S
C121   N122    1.299   .     D
C121   H132    1.081   .     S
N122   C123    1.437   .     S
C123   C124    1.409   .     D
C123   C128    1.400   .     S
C124   C125    1.397   .     S
C124   H133    1.080   .     S
C125   C126    1.404   .     D
C125   H134    1.083   .     S
C126   C127    1.403   .     S
C126   C129    1.475   .     S
C127   C128    1.397   .     D
C127   H135    1.083   .     S
C128   H136    1.082   .     S
C129   N130    1.354   .     S
C129   N208    1.433   .     D
N130   C168    1.433   .     D
O137   C138    1.407   .     S
O137   C198    1.409   .     S
C138   C139    1.511   .     S
C138   O146    1.222   .     D
C139   C140    1.528   .     S
C139   C147    1.535   .     S
C139   H148    1.099   .     S
C140   C141    1.409   .     S
C140   C145    1.413   .     D
C141   C142    1.397   .     D
C141   H149    1.083   .     S
C142   C143    1.395   .     S
C142   H150    1.082   .     S
C143   C144    1.395   .     D
C143   H151    1.082   .     S
C144   C145    1.398   .     S
C144   H152    1.082   .     S
C145   H153    1.081   .     S
C147   H154    1.107   .     S
C147   H155    1.111   .     S
C147   H156    1.111   .     S
C157   C158    1.397   .     S
C157   C160    1.478   .     S
C158   C159    1.405   1_655 D
C158   H170    1.082   .     S
C159   C158    1.405   1_455 D
C159   O215    1.409   .     S
C160   N161    1.299   .     D
C160   H171    1.081   .     S
N161   C162    1.437   .     S
C162   C163    1.409   .     S
C162   C167    1.400   .     D
C163   C164    1.397   .     D
C163   H172    1.080   .     S
C164   C165    1.404   .     S
C164   H173    1.083   .     S
C165   C166    1.403   .     D
C165   C168    1.475   .     S
C166   C167    1.397   .     S
C166   H174    1.083   .     S
C167   H175    1.082   .     S
C168   N169    1.354   .     S
N169   C207    1.433   .     D
O176   C177    1.407   .     S
C177   C178    1.511   .     S
C177   O185    1.222   .     D
C178   C179    1.528   .     S
C178   C186    1.535   .     S
C178   H187    1.099   .     S
C179   C180    1.409   .     S
C179   C184    1.413   .     D
C180   C181    1.397   1_565 D
C180   H188    1.083   1_565 S
C181   C180    1.397   1_545 D
C181   C182    1.395   1_545 S
C181   H189    1.082   .     S
C182   C181    1.395   1_565 S
C182   C183    1.395   .     D
C182   H190    1.082   .     S
C183   C184    1.398   .     S
C183   H191    1.082   .     S
C184   H192    1.081   .     S
C186   H193    1.107   .     S
C186   H194    1.111   .     S
C186   H195    1.111   .     S
H188   C180    1.083   1_545 S
C196   C197    1.397   .     S
C196   C199    1.478   .     S
C197   C198    1.405   .     D
C197   H209    1.082   .     S
C199   N200    1.299   .     D
C199   H210    1.081   .     S
N200   C201    1.437   .     S
C201   C202    1.409   .     D
C201   C206    1.400   .     S
C202   C203    1.397   .     S
C202   H211    1.080   .     S
C203   C204    1.404   .     D
C203   H212    1.083   .     S
C204   C205    1.403   .     S
C204   C207    1.475   .     S
C205   C206    1.397   .     D
C205   H213    1.083   .     S
C206   H214    1.082   .     S
C207   N208    1.354   .     S
O215   C216    1.407   .     S
C216   C217    1.511   .     S
C216   O224    1.222   .     D
C217   C218    1.528   .     S
C217   C225    1.535   .     S
C217   H226    1.099   .     S
C218   C219    1.409   .     S
C218   C223    1.413   .     D
C219   C220    1.397   1_455 D
C219   H227    1.083   1_455 S
C220   C219    1.397   1_655 D
C220   C221    1.395   1_655 S
C220   H228    1.082   .     S
C221   C220    1.395   1_455 S
C221   C222    1.395   .     D
C221   H229    1.082   .     S
C222   C223    1.398   .     S
C222   H230    1.082   .     S
C223   H231    1.081   .     S
C225   H232    1.107   .     S
C225   H233    1.111   .     S
C225   H234    1.111   .     S
H227   C219    1.083   1_655 S
