data_373
_audit_creation_date              2023-09-08
_audit_creation_method            'Materials Studio'
_symmetry_space_group_name_H-M    'P1'
_symmetry_Int_Tables_number       1
_symmetry_cell_setting            triclinic
loop_
_symmetry_equiv_pos_as_xyz
  x,y,z
_cell_length_a                    22.1630
_cell_length_b                    22.1629
_cell_length_c                    3.4207
_cell_angle_alpha                 90.0000
_cell_angle_beta                  90.0000
_cell_angle_gamma                 120.0000
loop_
_atom_site_label
_atom_site_type_symbol
_atom_site_fract_x
_atom_site_fract_y
_atom_site_fract_z
_atom_site_U_iso_or_equiv
_atom_site_adp_type
_atom_site_occupancy
C1     C     0.14521   0.62588   0.49999   0.00000  Uiso   1.00
C2     C     0.07328   0.59117   0.49999   0.00000  Uiso   1.00
C3     C     0.03489   0.62661   0.49999   0.00000  Uiso   1.00
H4     H     0.17408   0.68527   0.49999   0.00000  Uiso   1.00
H5     H     0.06339   0.68600   0.49999   0.00000  Uiso   1.00
C6     C     0.37412   0.51933   0.49999   0.00000  Uiso   1.00
C7     C     0.40883   0.48211   0.49999   0.00000  Uiso   1.00
C8     C     0.37339   0.40828   0.49999   0.00000  Uiso   1.00
H9     H     0.31473   0.48881   0.49999   0.00000  Uiso   1.00
H10    H     0.31400   0.37739   0.49999   0.00000  Uiso   1.00
C11    C     0.48067   0.85479   0.49999   0.00000  Uiso   1.00
C12    C     0.51789   0.92672   0.49999   0.00000  Uiso   1.00
C13    C     0.59172   0.96511   0.49999   0.00000  Uiso   1.00
H14    H     0.51119   0.82592   0.49999   0.00000  Uiso   1.00
H15    H     0.62261   0.93661   0.49999   0.00000  Uiso   1.00
C16    C     0.85479   0.37412   0.49999   0.00000  Uiso   1.00
C17    C     0.92672   0.40883   0.49999   0.00000  Uiso   1.00
C18    C     0.96511   0.37339   0.49999   0.00000  Uiso   1.00
H19    H     0.82592   0.31473   0.49999   0.00000  Uiso   1.00
H20    H     0.93661   0.31400   0.49999   0.00000  Uiso   1.00
C21    C     0.62588   0.48067   0.49999   0.00000  Uiso   1.00
C22    C     0.59117   0.51789   0.49999   0.00000  Uiso   1.00
C23    C     0.62661   0.59172   0.49999   0.00000  Uiso   1.00
H24    H     0.68527   0.51119   0.49999   0.00000  Uiso   1.00
H25    H     0.68600   0.62261   0.49999   0.00000  Uiso   1.00
C26    C     0.51933   0.14521   0.49999   0.00000  Uiso   1.00
C27    C     0.48211   0.07328   0.49999   0.00000  Uiso   1.00
C28    C     0.40828   0.03489   0.49999   0.00000  Uiso   1.00
H29    H     0.48881   0.17408   0.49999   0.00000  Uiso   1.00
H30    H     0.37739   0.06339   0.49999   0.00000  Uiso   1.00
C31    C     0.62588   0.14521   0.49999   0.00000  Uiso   1.00
C32    C     0.59117   0.07328   0.49999   0.00000  Uiso   1.00
C33    C     0.62661   0.03489   0.49999   0.00000  Uiso   1.00
H34    H     0.68527   0.17408   0.49999   0.00000  Uiso   1.00
H35    H     0.68600   0.06339   0.49999   0.00000  Uiso   1.00
C36    C     0.51933   0.37412   0.49999   0.00000  Uiso   1.00
C37    C     0.48211   0.40883   0.49999   0.00000  Uiso   1.00
C38    C     0.40828   0.37339   0.49999   0.00000  Uiso   1.00
H39    H     0.48881   0.31473   0.49999   0.00000  Uiso   1.00
H40    H     0.37739   0.31400   0.49999   0.00000  Uiso   1.00
C41    C     0.85479   0.48067   0.49999   0.00000  Uiso   1.00
C42    C     0.92672   0.51789   0.49999   0.00000  Uiso   1.00
C43    C     0.96511   0.59172   0.49999   0.00000  Uiso   1.00
H44    H     0.82592   0.51119   0.49999   0.00000  Uiso   1.00
H45    H     0.93661   0.62261   0.49999   0.00000  Uiso   1.00
C46    C     0.37412   0.85479   0.49999   0.00000  Uiso   1.00
C47    C     0.40883   0.92672   0.49999   0.00000  Uiso   1.00
C48    C     0.37339   0.96511   0.49999   0.00000  Uiso   1.00
H49    H     0.31473   0.82592   0.49999   0.00000  Uiso   1.00
H50    H     0.31400   0.93661   0.49999   0.00000  Uiso   1.00
C51    C     0.48067   0.62588   0.49999   0.00000  Uiso   1.00
C52    C     0.51789   0.59117   0.49999   0.00000  Uiso   1.00
C53    C     0.59172   0.62661   0.49999   0.00000  Uiso   1.00
H54    H     0.51119   0.68527   0.49999   0.00000  Uiso   1.00
H55    H     0.62261   0.68600   0.49999   0.00000  Uiso   1.00
C56    C     0.14521   0.51933   0.49999   0.00000  Uiso   1.00
C57    C     0.07328   0.48211   0.49999   0.00000  Uiso   1.00
C58    C     0.03489   0.40828   0.49999   0.00000  Uiso   1.00
H59    H     0.17408   0.48881   0.49999   0.00000  Uiso   1.00
H60    H     0.06339   0.37739   0.49999   0.00000  Uiso   1.00
B61    B     0.26177   0.63089   0.49999   0.00000  Uiso   1.00
C62    C     0.18206   0.59103   0.49999   0.00000  Uiso   1.00
C63    C     0.03650   0.51825   0.49999   0.00000  Uiso   1.00
B64    B     0.36911   0.63089   0.49999   0.00000  Uiso   1.00
C65    C     0.40897   0.59103   0.49999   0.00000  Uiso   1.00
C66    C     0.48175   0.51825   0.49999   0.00000  Uiso   1.00
B67    B     0.36911   0.73823   0.49999   0.00000  Uiso   1.00
C68    C     0.40897   0.81794   0.49999   0.00000  Uiso   1.00
C69    C     0.48175   0.96350   0.49999   0.00000  Uiso   1.00
B70    B     0.73823   0.36912   0.49999   0.00000  Uiso   1.00
C71    C     0.81794   0.40897   0.49999   0.00000  Uiso   1.00
C72    C     0.96350   0.48175   0.49999   0.00000  Uiso   1.00
B73    B     0.63088   0.36912   0.49999   0.00000  Uiso   1.00
C74    C     0.59103   0.40897   0.49999   0.00000  Uiso   1.00
C75    C     0.51825   0.48175   0.49999   0.00000  Uiso   1.00
B76    B     0.63088   0.26177   0.49999   0.00000  Uiso   1.00
C77    C     0.59103   0.18206   0.49999   0.00000  Uiso   1.00
C78    C     0.51825   0.03650   0.49999   0.00000  Uiso   1.00
O79    O     0.29790   0.59581   0.49999   0.00000  Uiso   1.00
O80    O     0.40419   0.70210   0.49999   0.00000  Uiso   1.00
O81    O     0.29790   0.70210   0.49999   0.00000  Uiso   1.00
O82    O     0.70209   0.40419   0.49999   0.00000  Uiso   1.00
O83    O     0.59581   0.29791   0.49999   0.00000  Uiso   1.00
O84    O     0.70209   0.29791   0.49999   0.00000  Uiso   1.00
loop_
_geom_bond_atom_site_label_1
_geom_bond_atom_site_label_2
_geom_bond_distance
_geom_bond_site_symmetry_2
_ccdc_geom_bond_type
C1     C2      1.381   .     S
C1     H4      1.140   .     S
C1     C62     1.376   .     D
C2     C3      1.417   .     S
C2     C63     1.400   .     D
C3     H5      1.140   .     S
C3     C43     1.339   1_455 D
C6     C7      1.381   .     S
C6     H9      1.140   .     S
C6     C65     1.376   .     D
C7     C8      1.417   .     S
C7     C66     1.400   .     D
C8     H10     1.140   .     S
C8     C38     1.339   .     D
C11    C12     1.381   .     D
C11    H14     1.140   .     S
C11    C68     1.376   .     S
C12    C13     1.417   .     S
C12    C69     1.400   .     S
C13    H15     1.140   .     S
C13    C33     1.339   1_565 D
C16    C17     1.381   .     S
C16    H19     1.140   .     S
C16    C71     1.376   .     D
C17    C18     1.417   .     S
C17    C72     1.400   .     D
C18    H20     1.140   .     S
C18    C58     1.339   1_655 D
C21    C22     1.381   .     D
C21    H24     1.140   .     S
C21    C74     1.376   .     S
C22    C23     1.417   .     S
C22    C75     1.400   .     S
C23    H25     1.140   .     S
C23    C53     1.339   .     D
C26    C27     1.381   .     S
C26    H29     1.140   .     S
C26    C77     1.376   .     D
C27    C28     1.417   .     S
C27    C78     1.400   .     D
C28    H30     1.140   .     S
C28    C48     1.339   1_545 D
C31    C32     1.381   .     D
C31    H34     1.140   .     S
C31    C77     1.376   .     S
C32    C33     1.417   .     S
C32    C78     1.400   .     S
C33    C13     1.339   1_545 D
C33    H35     1.140   .     S
C36    C37     1.381   .     S
C36    H39     1.140   .     S
C36    C74     1.376   .     D
C37    C38     1.417   .     S
C37    C75     1.400   .     D
C38    H40     1.140   .     S
C41    C42     1.381   .     D
C41    H44     1.140   .     S
C41    C71     1.376   .     S
C42    C43     1.417   .     S
C42    C72     1.400   .     S
C43    C3      1.339   1_655 D
C43    H45     1.140   .     S
C46    C47     1.381   .     S
C46    H49     1.140   .     S
C46    C68     1.376   .     D
C47    C48     1.417   .     S
C47    C69     1.400   .     D
C48    C28     1.339   1_565 D
C48    H50     1.140   .     S
C51    C52     1.381   .     D
C51    H54     1.140   .     S
C51    C65     1.376   .     S
C52    C53     1.417   .     S
C52    C66     1.400   .     S
C53    H55     1.140   .     S
C56    C57     1.381   .     D
C56    H59     1.140   .     S
C56    C62     1.376   .     S
C57    C58     1.417   .     S
C57    C63     1.400   .     S
C58    C18     1.339   1_455 D
C58    H60     1.140   .     S
B61    C62     1.530   .     S
B61    O79     1.367   .     S
B61    O81     1.367   .     S
C63    C72     1.401   1_455 S
B64    C65     1.530   .     S
B64    O79     1.367   .     S
B64    O80     1.367   .     S
C66    C75     1.401   .     S
B67    C68     1.530   .     S
B67    O80     1.367   .     S
B67    O81     1.367   .     S
C69    C78     1.401   1_565 S
B70    C71     1.530   .     S
B70    O82     1.367   .     S
B70    O84     1.367   .     S
C72    C63     1.401   1_655 S
B73    C74     1.530   .     S
B73    O82     1.367   .     S
B73    O83     1.367   .     S
B76    C77     1.530   .     S
B76    O83     1.367   .     S
B76    O84     1.367   .     S
C78    C69     1.401   1_545 S
