data_374
_audit_creation_date              2023-09-08
_audit_creation_method            'Materials Studio'
_symmetry_space_group_name_H-M    'P1'
_symmetry_Int_Tables_number       1
_symmetry_cell_setting            triclinic
loop_
_symmetry_equiv_pos_as_xyz
  x,y,z
_cell_length_a                    36.1175
_cell_length_b                    36.1175
_cell_length_c                    5.5000
_cell_angle_alpha                 90.0000
_cell_angle_beta                  90.0000
_cell_angle_gamma                 120.0000
loop_
_atom_site_label
_atom_site_type_symbol
_atom_site_fract_x
_atom_site_fract_y
_atom_site_fract_z
_atom_site_U_iso_or_equiv
_atom_site_adp_type
_atom_site_occupancy
C1     C     0.16337   0.07491   0.45255   0.00000  Uiso   1.00
C2     C     0.18987   0.05738   0.49988   0.00000  Uiso   1.00
C3     C     0.23316   0.08435   0.56058   0.00000  Uiso   1.00
C4     C     0.25056   0.12928   0.57342   0.00000  Uiso   1.00
C5     C     0.22400   0.14682   0.52549   0.00000  Uiso   1.00
C6     C     0.18071   0.11990   0.46512   0.00000  Uiso   1.00
C7     C     0.29537   0.15702   0.65469   0.00000  Uiso   1.00
C8     C     0.32578   0.19570   0.54280   0.00000  Uiso   1.00
C9     C     0.36738   0.22019   0.62736   0.00000  Uiso   1.00
C10    C     0.38057   0.20759   0.83057   0.00000  Uiso   1.00
C11    C     0.35073   0.16879   0.93848   0.00000  Uiso   1.00
C12    C     0.30878   0.14391   0.85198   0.00000  Uiso   1.00
C13    C     0.42466   0.23174   0.92729   0.00000  Uiso   1.00
C14    C     0.44647   0.20955   0.98601   0.00000  Uiso   1.00
C15    C     0.48870   0.23204   1.07081   0.00000  Uiso   1.00
C16    C     0.50955   0.27709   1.10076   0.00000  Uiso   1.00
C17    C     0.48733   0.29905   1.04899   0.00000  Uiso   1.00
C18    C     0.44505   0.27647   0.96399   0.00000  Uiso   1.00
C19    C     0.39338   0.25714   0.46543   0.00000  Uiso   1.00
N20    N     0.36625   0.24699   0.25490   0.00000  Uiso   1.00
C21    C     0.32130   0.21530   0.32232   0.00000  Uiso   1.00
C22    C     0.29383   0.23651   0.36610   0.00000  Uiso   1.00
C23    C     0.30097   0.18169   0.13147   0.00000  Uiso   1.00
C24    C     0.40254   0.29966   0.57882   0.00000  Uiso   1.00
C25    C     0.43568   0.25938   0.39911   0.00000  Uiso   1.00
O26    O     0.36921   0.28313   0.15761   0.00000  Uiso   1.00
N27    N     0.11838   0.04620   0.40973   0.00000  Uiso   1.00
C28    C     0.09096   0.05951   0.37997   0.00000  Uiso   1.00
C29    C     0.04470   0.02886   0.35372   0.00000  Uiso   1.00
N30    N     0.55435   0.30160   1.16121   0.00000  Uiso   1.00
C31    C     0.57790   0.28391   1.19741   0.00000  Uiso   1.00
C32    C     0.62458   0.31022   1.23426   0.00000  Uiso   1.00
C33    C     0.64929   0.28982   1.23270   0.00000  Uiso   1.00
C34    C     0.02065   0.04935   0.35485   0.00000  Uiso   1.00
H35    H     0.17622   0.02134   0.48899   0.00000  Uiso   1.00
H36    H     0.25449   0.07013   0.59981   0.00000  Uiso   1.00
H37    H     0.23765   0.18287   0.53568   0.00000  Uiso   1.00
H38    H     0.15952   0.13430   0.42624   0.00000  Uiso   1.00
H39    H     0.36019   0.15628   1.10356   0.00000  Uiso   1.00
H40    H     0.28585   0.11264   0.94706   0.00000  Uiso   1.00
H41    H     0.42971   0.17333   0.96442   0.00000  Uiso   1.00
H42    H     0.50640   0.21417   1.11591   0.00000  Uiso   1.00
H43    H     0.50372   0.33513   1.07622   0.00000  Uiso   1.00
H44    H     0.42713   0.29433   0.92447   0.00000  Uiso   1.00
H45    H     0.26498   0.21457   0.48270   0.00000  Uiso   1.00
H46    H     0.28246   0.24229   0.18414   0.00000  Uiso   1.00
H47    H     0.31380   0.26832   0.46374   0.00000  Uiso   1.00
H48    H     0.31009   0.15604   0.16194   0.00000  Uiso   1.00
H49    H     0.31254   0.19671  -0.05548   0.00000  Uiso   1.00
H50    H     0.41961   0.32646   0.44045   0.00000  Uiso   1.00
H51    H     0.42369   0.30658   0.74593   0.00000  Uiso   1.00
H52    H     0.37114   0.29755   0.63446   0.00000  Uiso   1.00
H53    H     0.44158   0.26518   0.19543   0.00000  Uiso   1.00
H54    H     0.43395   0.22793   0.44936   0.00000  Uiso   1.00
H55    H     0.46295   0.28668   0.50323   0.00000  Uiso   1.00
H56    H     0.10261   0.09522   0.37394   0.00000  Uiso   1.00
H57    H     0.56245   0.24761   1.20091   0.00000  Uiso   1.00
H58    H     0.63283   0.25343   1.23017   0.00000  Uiso   1.00
H59    H     0.03740   0.08575   0.35638   0.00000  Uiso   1.00
C60    C     0.92509   0.08846   0.45255   0.00000  Uiso   1.00
C61    C     0.94262   0.13249   0.49988   0.00000  Uiso   1.00
C62    C     0.91565   0.14881   0.56058   0.00000  Uiso   1.00
C63    C     0.87072   0.12128   0.57342   0.00000  Uiso   1.00
C64    C     0.85318   0.07718   0.52549   0.00000  Uiso   1.00
C65    C     0.88010   0.06081   0.46512   0.00000  Uiso   1.00
C66    C     0.84298   0.13835   0.65469   0.00000  Uiso   1.00
C67    C     0.80430   0.13008   0.54280   0.00000  Uiso   1.00
C68    C     0.77981   0.14719   0.62736   0.00000  Uiso   1.00
C69    C     0.79241   0.17298   0.83057   0.00000  Uiso   1.00
C70    C     0.83121   0.18194   0.93848   0.00000  Uiso   1.00
C71    C     0.85609   0.16487   0.85198   0.00000  Uiso   1.00
C72    C     0.76826   0.19292   0.92729   0.00000  Uiso   1.00
C73    C     0.79045   0.23692   0.98601   0.00000  Uiso   1.00
C74    C     0.76796   0.25666   1.07081   0.00000  Uiso   1.00
C75    C     0.72291   0.23246   1.10076   0.00000  Uiso   1.00
C76    C     0.70095   0.18828   1.04899   0.00000  Uiso   1.00
C77    C     0.72353   0.16858   0.96399   0.00000  Uiso   1.00
C78    C     0.74286   0.13624   0.46543   0.00000  Uiso   1.00
N79    N     0.75301   0.11926   0.25490   0.00000  Uiso   1.00
C80    C     0.78470   0.10600   0.32232   0.00000  Uiso   1.00
C81    C     0.76349   0.05732   0.36610   0.00000  Uiso   1.00
C82    C     0.81831   0.11928   0.13147   0.00000  Uiso   1.00
C83    C     0.70034   0.10288   0.57882   0.00000  Uiso   1.00
C84    C     0.74062   0.17630   0.39911   0.00000  Uiso   1.00
O85    O     0.71687   0.08608   0.15761   0.00000  Uiso   1.00
N86    N     0.95380   0.07218   0.40973   0.00000  Uiso   1.00
C87    C     0.94049   0.03145   0.37997   0.00000  Uiso   1.00
C88    C     0.97114   0.01584   0.35372   0.00000  Uiso   1.00
N89    N     0.69840   0.25275   1.16121   0.00000  Uiso   1.00
C90    C     0.71609   0.29399   1.19741   0.00000  Uiso   1.00
C91    C     0.68978   0.31436   1.23426   0.00000  Uiso   1.00
C92    C     0.71018   0.35947   1.23270   0.00000  Uiso   1.00
C93    C     0.95065   0.97130   0.35485   0.00000  Uiso   1.00
H94    H     0.97866   0.15488   0.48899   0.00000  Uiso   1.00
H95    H     0.92987   0.18436   0.59981   0.00000  Uiso   1.00
H96    H     0.81713   0.05478   0.53568   0.00000  Uiso   1.00
H97    H     0.86570   0.02522   0.42624   0.00000  Uiso   1.00
H98    H     0.84372   0.20391   1.10356   0.00000  Uiso   1.00
H99    H     0.88736   0.17321   0.94706   0.00000  Uiso   1.00
H100   H     0.82667   0.25638   0.96442   0.00000  Uiso   1.00
H101   H     0.78583   0.29223   1.11591   0.00000  Uiso   1.00
H102   H     0.66487   0.16859   1.07622   0.00000  Uiso   1.00
H103   H     0.70567   0.13280   0.92447   0.00000  Uiso   1.00
H104   H     0.78543   0.05041   0.48270   0.00000  Uiso   1.00
H105   H     0.75771   0.04017   0.18414   0.00000  Uiso   1.00
H106   H     0.73168   0.04548   0.46374   0.00000  Uiso   1.00
H107   H     0.80601   0.12532  -0.04646   0.00000  Uiso   1.00
H108   H     0.82642   0.09285   0.10379   0.00000  Uiso   1.00
H109   H     0.67354   0.09315   0.44045   0.00000  Uiso   1.00
H110   H     0.69342   0.11711   0.74593   0.00000  Uiso   1.00
H111   H     0.70245   0.07359   0.63446   0.00000  Uiso   1.00
H112   H     0.73482   0.17640   0.19543   0.00000  Uiso   1.00
H113   H     0.77207   0.20602   0.44936   0.00000  Uiso   1.00
H114   H     0.71332   0.17627   0.50323   0.00000  Uiso   1.00
H115   H     0.90478   0.00739   0.37394   0.00000  Uiso   1.00
H116   H     0.75239   0.31484   1.20091   0.00000  Uiso   1.00
H117   H     0.74657   0.37940   1.23017   0.00000  Uiso   1.00
H118   H     0.91425   0.95165   0.35638   0.00000  Uiso   1.00
C119   C     0.91154   0.83663   0.45255   0.00000  Uiso   1.00
C120   C     0.86751   0.81013   0.49988   0.00000  Uiso   1.00
C121   C     0.85119   0.76684   0.56058   0.00000  Uiso   1.00
C122   C     0.87872   0.74944   0.57342   0.00000  Uiso   1.00
C123   C     0.92282   0.77600   0.52549   0.00000  Uiso   1.00
C124   C     0.93919   0.81929   0.46512   0.00000  Uiso   1.00
C125   C     0.86165   0.70463   0.65469   0.00000  Uiso   1.00
C126   C     0.86992   0.67422   0.54280   0.00000  Uiso   1.00
C127   C     0.85281   0.63262   0.62736   0.00000  Uiso   1.00
C128   C     0.82702   0.61943   0.83057   0.00000  Uiso   1.00
C129   C     0.81806   0.64927   0.93848   0.00000  Uiso   1.00
C130   C     0.83513   0.69122   0.85198   0.00000  Uiso   1.00
C131   C     0.80708   0.57534   0.92729   0.00000  Uiso   1.00
C132   C     0.76308   0.55353   0.98601   0.00000  Uiso   1.00
C133   C     0.74334   0.51130   1.07081   0.00000  Uiso   1.00
C134   C     0.76754   0.49045   1.10076   0.00000  Uiso   1.00
C135   C     0.81172   0.51267   1.04899   0.00000  Uiso   1.00
C136   C     0.83142   0.55495   0.96399   0.00000  Uiso   1.00
C137   C     0.86376   0.60662   0.46543   0.00000  Uiso   1.00
N138   N     0.88074   0.63375   0.25490   0.00000  Uiso   1.00
C139   C     0.89400   0.67870   0.32232   0.00000  Uiso   1.00
C140   C     0.94268   0.70617   0.36610   0.00000  Uiso   1.00
C141   C     0.88183   0.69931   0.14646   0.00000  Uiso   1.00
C142   C     0.89712   0.59746   0.57882   0.00000  Uiso   1.00
C143   C     0.82370   0.56432   0.39911   0.00000  Uiso   1.00
O144   O     0.91392   0.63079   0.15761   0.00000  Uiso   1.00
N145   N     0.92782   0.88162   0.40973   0.00000  Uiso   1.00
C146   C     0.96855   0.90904   0.37997   0.00000  Uiso   1.00
C147   C     0.98416   0.95530   0.35372   0.00000  Uiso   1.00
N148   N     0.74725   0.44565   1.16121   0.00000  Uiso   1.00
C149   C     0.70601   0.42210   1.19741   0.00000  Uiso   1.00
C150   C     0.68564   0.37542   1.23426   0.00000  Uiso   1.00
C151   C     0.64053   0.35071   1.23270   0.00000  Uiso   1.00
C152   C     0.02870   0.97935   0.35485   0.00000  Uiso   1.00
H153   H     0.84512   0.82378   0.48899   0.00000  Uiso   1.00
H154   H     0.81564   0.74551   0.59981   0.00000  Uiso   1.00
H155   H     0.94522   0.76235   0.53568   0.00000  Uiso   1.00
H156   H     0.97478   0.84048   0.42624   0.00000  Uiso   1.00
H157   H     0.79609   0.63981   1.10356   0.00000  Uiso   1.00
H158   H     0.82679   0.71415   0.94706   0.00000  Uiso   1.00
H159   H     0.74362   0.57029   0.96442   0.00000  Uiso   1.00
H160   H     0.70777   0.49360   1.11591   0.00000  Uiso   1.00
H161   H     0.83141   0.49628   1.07622   0.00000  Uiso   1.00
H162   H     0.86720   0.57287   0.92447   0.00000  Uiso   1.00
H163   H     0.94959   0.73502   0.48270   0.00000  Uiso   1.00
H164   H     0.95983   0.71754   0.18414   0.00000  Uiso   1.00
H165   H     0.95452   0.68620   0.46374   0.00000  Uiso   1.00
H166   H     0.85604   0.67125   0.04766   0.00000  Uiso   1.00
H167   H     0.90896   0.71666   0.01034   0.00000  Uiso   1.00
H168   H     0.90685   0.58039   0.44045   0.00000  Uiso   1.00
H169   H     0.88289   0.57631   0.74593   0.00000  Uiso   1.00
H170   H     0.92641   0.62886   0.63446   0.00000  Uiso   1.00
H171   H     0.82360   0.55842   0.19543   0.00000  Uiso   1.00
H172   H     0.79398   0.56605   0.44936   0.00000  Uiso   1.00
H173   H     0.82373   0.53705   0.50323   0.00000  Uiso   1.00
H174   H     0.99261   0.89739   0.37394   0.00000  Uiso   1.00
H175   H     0.68516   0.43755   1.20091   0.00000  Uiso   1.00
H176   H     0.62060   0.36717   1.23017   0.00000  Uiso   1.00
H177   H     0.04835   0.96260   0.35638   0.00000  Uiso   1.00
H178   H     0.87406   0.72317   0.23488   0.00000  Uiso   1.00
H179   H     0.84820   0.14983   1.19117   0.00000  Uiso   1.00
H180   H     0.26474   0.16662   1.14204   0.00000  Uiso   1.00
loop_
_geom_bond_atom_site_label_1
_geom_bond_atom_site_label_2
_geom_bond_distance
_geom_bond_site_symmetry_2
_ccdc_geom_bond_type
C1     C2      1.411   .     D
C1     C6      1.421   .     S
C1     N27     1.444   .     S
C2     C3      1.408   .     S
C2     H35     1.140   .     S
C3     C4      1.419   .     D
C3     H36     1.140   .     S
C4     C5      1.414   .     S
C4     C7      1.484   .     S
C5     C6      1.407   .     D
C5     H37     1.140   .     S
C6     H38     1.140   .     S
C7     C8      1.415   .     D
C7     C12     1.366   .     S
C8     C9      1.388   .     S
C8     C21     1.453   .     S
C9     C10     1.378   .     D
C9     C19     1.484   .     S
C10    C11     1.403   .     S
C10    C13     1.480   .     S
C11    C12     1.403   .     D
C11    H39     1.140   .     S
C12    H40     1.140   .     S
C13    C14     1.414   .     D
C13    C18     1.415   .     S
C14    C15     1.402   .     S
C14    H41     1.140   .     S
C15    C16     1.420   .     D
C15    H42     1.140   .     S
C16    C17     1.411   .     S
C16    N30     1.442   .     S
C17    C18     1.404   .     D
C17    H43     1.140   .     S
C18    H44     1.140   .     S
C19    N20     1.441   .     S
C19    C24     1.533   .     S
C19    C25     1.533   .     S
N20    C21     1.492   .     S
N20    O26     1.365   .     D
C21    C22     1.546   .     S
C21    C23     1.491   .     S
C22    H45     1.140   .     S
C22    H46     1.140   .     S
C22    H47     1.140   .     S
C23    H48     1.140   .     S
C23    H49     1.140   .     S
C23    H180    1.140   1_554 S
C24    H50     1.140   .     S
C24    H51     1.140   .     S
C24    H52     1.140   .     S
C25    H53     1.140   .     S
C25    H54     1.140   .     S
C25    H55     1.140   .     S
N27    C28     1.309   .     D
C28    C29     1.479   .     S
C28    H56     1.140   .     S
C29    C34     1.395   .     S
C29    C152    1.581   1_545 D
N30    C31     1.309   .     D
C31    C32     1.478   .     S
C31    H57     1.140   .     S
C32    C33     1.413   .     D
C32    C151    1.276   .     S
C33    H58     1.140   .     S
C33    C91     1.276   .     S
C34    H59     1.140   .     S
C34    C88     1.581   1_455 D
C60    C61     1.411   .     D
C60    C65     1.421   .     S
C60    N86     1.444   .     S
C61    C62     1.408   .     S
C61    H94     1.140   .     S
C62    C63     1.419   .     D
C62    H95     1.140   .     S
C63    C64     1.414   .     S
C63    C66     1.484   .     S
C64    C65     1.407   .     D
C64    H96     1.140   .     S
C65    H97     1.140   .     S
C66    C67     1.415   .     D
C66    C71     1.366   .     S
C67    C68     1.388   .     S
C67    C80     1.453   .     S
C68    C69     1.378   .     D
C68    C78     1.484   .     S
C69    C70     1.403   .     S
C69    C72     1.480   .     S
C70    C71     1.403   .     D
C70    H98     1.140   .     S
C71    H99     1.140   .     S
C72    C73     1.414   .     D
C72    C77     1.415   .     S
C73    C74     1.402   .     S
C73    H100    1.140   .     S
C74    C75     1.420   .     D
C74    H101    1.140   .     S
C75    C76     1.411   .     S
C75    N89     1.442   .     S
C76    C77     1.404   .     D
C76    H102    1.140   .     S
C77    H103    1.140   .     S
C78    N79     1.441   .     S
C78    C83     1.533   .     S
C78    C84     1.533   .     S
N79    C80     1.492   .     S
N79    O85     1.365   .     D
C80    C81     1.546   .     S
C80    C82     1.491   .     S
C81    H104    1.140   .     S
C81    H105    1.140   .     S
C81    H106    1.140   .     S
C82    H107    1.140   .     S
C82    H108    1.140   .     S
C82    H179    1.140   1_554 S
C83    H109    1.140   .     S
C83    H110    1.140   .     S
C83    H111    1.140   .     S
C84    H112    1.140   .     S
C84    H113    1.140   .     S
C84    H114    1.140   .     S
N86    C87     1.309   .     D
C87    C88     1.479   .     S
C87    H115    1.140   .     S
C88    C34     1.581   1_655 D
C88    C93     1.395   1_545 S
N89    C90     1.309   .     D
C90    C91     1.478   .     S
C90    H116    1.140   .     S
C91    C92     1.413   .     D
C92    H117    1.140   .     S
C92    C150    1.276   .     S
C93    H118    1.140   .     S
C93    C147    1.581   .     D
C93    C88     1.395   1_565 S
C119   C120    1.411   .     D
C119   C124    1.421   .     S
C119   N145    1.444   .     S
C120   C121    1.408   .     S
C120   H153    1.140   .     S
C121   C122    1.419   .     D
C121   H154    1.140   .     S
C122   C123    1.414   .     S
C122   C125    1.484   .     S
C123   C124    1.407   .     D
C123   H155    1.140   .     S
C124   H156    1.140   .     S
C125   C126    1.415   .     D
C125   C130    1.366   .     S
C126   C127    1.388   .     S
C126   C139    1.453   .     S
C127   C128    1.378   .     D
C127   C137    1.484   .     S
C128   C129    1.403   .     S
C128   C131    1.480   .     S
C129   C130    1.403   .     D
C129   H157    1.140   .     S
C130   H158    1.140   .     S
C131   C132    1.414   .     D
C131   C136    1.415   .     S
C132   C133    1.402   .     S
C132   H159    1.140   .     S
C133   C134    1.420   .     D
C133   H160    1.140   .     S
C134   C135    1.411   .     S
C134   N148    1.442   .     S
C135   C136    1.404   .     D
C135   H161    1.140   .     S
C136   H162    1.140   .     S
C137   N138    1.441   .     S
C137   C142    1.533   .     S
C137   C143    1.533   .     S
N138   C139    1.492   .     S
N138   O144    1.365   .     D
C139   C140    1.546   .     S
C139   C141    1.418   .     S
C140   H163    1.140   .     S
C140   H164    1.140   .     S
C140   H165    1.140   .     S
C141   H166    1.116   .     S
C141   H167    1.140   .     S
C141   H178    1.140   .     S
C142   H168    1.140   .     S
C142   H169    1.140   .     S
C142   H170    1.140   .     S
C143   H171    1.140   .     S
C143   H172    1.140   .     S
C143   H173    1.140   .     S
N145   C146    1.309   .     D
C146   C147    1.479   .     S
C146   H174    1.140   .     S
C147   C152    1.395   1_655 S
N148   C149    1.309   .     D
C149   C150    1.478   .     S
C149   H175    1.140   .     S
C150   C151    1.413   .     D
C151   H176    1.140   .     S
C152   H177    1.140   .     S
C152   C29     1.581   1_565 D
C152   C147    1.395   1_455 S
H179   C82     1.140   1_556 S
H180   C23     1.140   1_556 S
