data_375
_audit_creation_date              2023-09-08
_audit_creation_method            'Materials Studio'
_symmetry_space_group_name_H-M    'P1'
_symmetry_Int_Tables_number       1
_symmetry_cell_setting            triclinic
loop_
_symmetry_equiv_pos_as_xyz
  x,y,z
_cell_length_a                    36.8970
_cell_length_b                    3.9001
_cell_length_c                    36.8970
_cell_angle_alpha                 90.0000
_cell_angle_beta                  120.0000
_cell_angle_gamma                 90.0000
loop_
_atom_site_label
_atom_site_type_symbol
_atom_site_fract_x
_atom_site_fract_y
_atom_site_fract_z
_atom_site_U_iso_or_equiv
_atom_site_adp_type
_atom_site_occupancy
C1     C     0.64601   0.74201   0.35680   0.00000  Uiso   1.00
C2     C     0.68967   0.71939   0.37598   0.00000  Uiso   1.00
C3     C     0.62487   0.71384   0.38226   0.00000  Uiso   1.00
C4     C     0.58591   0.54693   0.36584   0.00000  Uiso   1.00
C5     C     0.56597   0.50306   0.38961   0.00000  Uiso   1.00
C6     C     0.58701   0.62039   0.43151   0.00000  Uiso   1.00
C7     C     0.62546   0.78859   0.44793   0.00000  Uiso   1.00
C8     C     0.64404   0.83884   0.42347   0.00000  Uiso   1.00
N9     N     0.56942   0.58055   0.45587   0.00000  Uiso   1.00
C10    C     0.53203   0.42219   0.44230   0.00000  Uiso   1.00
C11    C     0.51462   0.40346   0.47105   0.00000  Uiso   1.00
C12    C     0.47123   0.42415   0.45645   0.00000  Uiso   1.00
C13    C     0.45725   0.40257   0.48563   0.00000  Uiso   1.00
O14    O     0.44358   0.48447   0.41345   0.00000  Uiso   1.00
C15    C     0.40238   0.60600   0.40049   0.00000  Uiso   1.00
H16    H     0.70798   0.70963   0.40963   0.00000  Uiso   1.00
H17    H     0.57182   0.45009   0.33456   0.00000  Uiso   1.00
C18    C     0.52572   0.35036   0.37363   0.00000  Uiso   1.00
H19    H     0.64085   0.88516   0.47971   0.00000  Uiso   1.00
H20    H     0.67327   0.97846   0.43689   0.00000  Uiso   1.00
C21    C     0.51070   0.29177   0.40140   0.00000  Uiso   1.00
H22    H     0.42410   0.39672   0.47482   0.00000  Uiso   1.00
H23    H     0.40366   0.83393   0.41905   0.00000  Uiso   1.00
H24    H     0.38307   0.40223   0.40344   0.00000  Uiso   1.00
H25    H     0.38720   0.68117   0.36706   0.00000  Uiso   1.00
C26    C     0.49546   0.29545   0.32808   0.00000  Uiso   1.00
C27    C     0.50543   0.10504   0.30186   0.00000  Uiso   1.00
C28    C     0.47639   0.06552   0.25934   0.00000  Uiso   1.00
C29    C     0.43640   0.20573   0.24259   0.00000  Uiso   1.00
C30    C     0.42545   0.38612   0.26836   0.00000  Uiso   1.00
C31    C     0.45476   0.43248   0.31071   0.00000  Uiso   1.00
H32    H     0.48183   0.15062   0.39040   0.00000  Uiso   1.00
H33    H     0.53536  -0.01573   0.31391   0.00000  Uiso   1.00
H34    H     0.48472  -0.07919   0.23953   0.00000  Uiso   1.00
H35    H     0.41382   0.17229   0.20973   0.00000  Uiso   1.00
H36    H     0.39442   0.49451   0.25543   0.00000  Uiso   1.00
H37    H     0.44582   0.58044   0.32985   0.00000  Uiso   1.00
C38    C     0.02739   0.42035   0.54301   0.00000  Uiso   1.00
H39    H     0.04887   0.41502   0.57636   0.00000  Uiso   1.00
C40    C     0.70916   0.69835   0.35160   0.00000  Uiso   1.00
N41    N     0.68495   0.71287   0.30914   0.00000  Uiso   1.00
C42    C     0.75528   0.64727   0.37112   0.00000  Uiso   1.00
C43    C     0.77872   0.49646   0.41098   0.00000  Uiso   1.00
C44    C     0.82245   0.45624   0.43050   0.00000  Uiso   1.00
C45    C     0.84263   0.56415   0.40840   0.00000  Uiso   1.00
C46    C     0.81940   0.70469   0.36826   0.00000  Uiso   1.00
C47    C     0.77613   0.74588   0.34974   0.00000  Uiso   1.00
N48    N     0.88492   0.54367   0.42657   0.00000  Uiso   1.00
C49    C     0.90961   0.41031   0.46544   0.00000  Uiso   1.00
C50    C     0.95612   0.41452   0.48402   0.00000  Uiso   1.00
C51    C     0.98393   0.44366   0.52762   0.00000  Uiso   1.00
O52    O     0.96731   0.51219   0.55403   0.00000  Uiso   1.00
C53    C     0.99463   0.63725   0.59530   0.00000  Uiso   1.00
H54    H     0.76244   0.41301   0.42650   0.00000  Uiso   1.00
C55    C     0.84743   0.32092   0.47165   0.00000  Uiso   1.00
H56    H     0.83501   0.78805   0.35155   0.00000  Uiso   1.00
H57    H     0.75908   0.86115   0.31896   0.00000  Uiso   1.00
C58    C     0.89053   0.27847   0.48717   0.00000  Uiso   1.00
H59    H     0.01258   0.86181   0.59436   0.00000  Uiso   1.00
H60    H     0.01627   0.43319   0.61541   0.00000  Uiso   1.00
H61    H     0.97553   0.71911   0.60931   0.00000  Uiso   1.00
C62    C     0.83214   0.26516   0.50193   0.00000  Uiso   1.00
C63    C     0.79635   0.06956   0.49211   0.00000  Uiso   1.00
C64    C     0.78233   0.03456   0.52078   0.00000  Uiso   1.00
C65    C     0.80487   0.18204   0.56043   0.00000  Uiso   1.00
C66    C     0.84142   0.36519   0.57140   0.00000  Uiso   1.00
C67    C     0.85484   0.40861   0.54236   0.00000  Uiso   1.00
H68    H     0.90904   0.14945   0.51683   0.00000  Uiso   1.00
H69    H     0.77909  -0.05726   0.46245   0.00000  Uiso   1.00
H70    H     0.75434  -0.11238   0.51245   0.00000  Uiso   1.00
H71    H     0.79419   0.15225   0.58275   0.00000  Uiso   1.00
H72    H     0.85895   0.47954   0.60216   0.00000  Uiso   1.00
H73    H     0.88259   0.56097   0.55121   0.00000  Uiso   1.00
C74    C     0.64249   0.74711   0.28904   0.00000  Uiso   1.00
C75    C     0.62260   0.76442   0.31300   0.00000  Uiso   1.00
C76    C     0.61778   0.73020   0.24239   0.00000  Uiso   1.00
C77    C     0.63537   0.57745   0.22013   0.00000  Uiso   1.00
C78    C     0.61174   0.52787   0.17636   0.00000  Uiso   1.00
C79    C     0.56948   0.63679   0.15524   0.00000  Uiso   1.00
C80    C     0.55248   0.80180   0.17686   0.00000  Uiso   1.00
C81    C     0.57639   0.85186   0.21987   0.00000  Uiso   1.00
N82    N     0.54517   0.59142   0.11339   0.00000  Uiso   1.00
C83    C     0.55895   0.43487   0.08968   0.00000  Uiso   1.00
C84    C     0.52963   0.40817   0.04354   0.00000  Uiso   1.00
C85    C     0.54345   0.42631   0.01412   0.00000  Uiso   1.00
O86    O     0.58634   0.48475   0.02874   0.00000  Uiso   1.00
C87    C     0.59866   0.60547   0.99997   0.00000  Uiso   1.00
H88    H     0.58902   0.78349   0.29779   0.00000  Uiso   1.00
H89    H     0.66750   0.49878   0.23771   0.00000  Uiso   1.00
C90    C     0.62804   0.37707   0.15225   0.00000  Uiso   1.00
H91    H     0.52050   0.89394   0.16019   0.00000  Uiso   1.00
H92    H     0.56218   0.98879   0.23504   0.00000  Uiso   1.00
C93    C     0.60035   0.31370   0.10942   0.00000  Uiso   1.00
H94    H     0.57996   0.83315   0.98280   0.00000  Uiso   1.00
H95    H     0.59536   0.40112   0.97764   0.00000  Uiso   1.00
H96    H     0.63211   0.68083   0.01777   0.00000  Uiso   1.00
C97    C     0.67367   0.32016   0.16803   0.00000  Uiso   1.00
C98    C     0.69961   0.13384   0.20471   0.00000  Uiso   1.00
C99    C     0.74208   0.08788   0.21832   0.00000  Uiso   1.00
C100   C     0.75912   0.21969   0.19495   0.00000  Uiso   1.00
C101   C     0.73372   0.39841   0.15798   0.00000  Uiso   1.00
C102   C     0.69138   0.44973   0.14467   0.00000  Uiso   1.00
H103   H     0.61166   0.17324   0.09178   0.00000  Uiso   1.00
H104   H     0.68744   0.02211   0.22299   0.00000  Uiso   1.00
H105   H     0.76165  -0.05451   0.24673   0.00000  Uiso   1.00
H106   H     0.79194   0.18134   0.20534   0.00000  Uiso   1.00
H107   H     0.74692   0.50081   0.13983   0.00000  Uiso   1.00
H108   H     0.67250   0.59512   0.11629   0.00000  Uiso   1.00
C109   C     0.51364   0.40509   0.97107   0.00000  Uiso   1.00
H110   H     0.52394   0.39911   0.94834   0.00000  Uiso   1.00
C111   C     0.35399   0.74201   0.64320   0.00000  Uiso   1.00
C112   C     0.31033   0.71939   0.62402   0.00000  Uiso   1.00
C113   C     0.37513   0.71384   0.61774   0.00000  Uiso   1.00
C114   C     0.41409   0.54693   0.63416   0.00000  Uiso   1.00
C115   C     0.43403   0.50306   0.61039   0.00000  Uiso   1.00
C116   C     0.41299   0.62039   0.56849   0.00000  Uiso   1.00
C117   C     0.37454   0.78859   0.55207   0.00000  Uiso   1.00
C118   C     0.35596   0.83884   0.57653   0.00000  Uiso   1.00
N119   N     0.43058   0.58055   0.54413   0.00000  Uiso   1.00
C120   C     0.46797   0.42219   0.55770   0.00000  Uiso   1.00
C121   C     0.48538   0.40346   0.52895   0.00000  Uiso   1.00
C122   C     0.52877   0.42415   0.54355   0.00000  Uiso   1.00
C123   C     0.54275   0.40257   0.51437   0.00000  Uiso   1.00
O124   O     0.55642   0.48447   0.58655   0.00000  Uiso   1.00
C125   C     0.59762   0.60600   0.59951   0.00000  Uiso   1.00
H126   H     0.29202   0.70963   0.59037   0.00000  Uiso   1.00
H127   H     0.42818   0.45009   0.66544   0.00000  Uiso   1.00
C128   C     0.47428   0.35036   0.62637   0.00000  Uiso   1.00
H129   H     0.35915   0.88516   0.52029   0.00000  Uiso   1.00
H130   H     0.32673   0.97846   0.56311   0.00000  Uiso   1.00
C131   C     0.48930   0.29177   0.59860   0.00000  Uiso   1.00
H132   H     0.57590   0.39672   0.52518   0.00000  Uiso   1.00
H133   H     0.59634   0.83393   0.58095   0.00000  Uiso   1.00
H134   H     0.61693   0.40223   0.59656   0.00000  Uiso   1.00
H135   H     0.61280   0.68117   0.63294   0.00000  Uiso   1.00
C136   C     0.50454   0.29545   0.67192   0.00000  Uiso   1.00
C137   C     0.49457   0.10504   0.69814   0.00000  Uiso   1.00
C138   C     0.52361   0.06552   0.74066   0.00000  Uiso   1.00
C139   C     0.56360   0.20573   0.75741   0.00000  Uiso   1.00
C140   C     0.57455   0.38612   0.73164   0.00000  Uiso   1.00
C141   C     0.54524   0.43248   0.68929   0.00000  Uiso   1.00
H142   H     0.51817   0.15062   0.60960   0.00000  Uiso   1.00
H143   H     0.46464  -0.01573   0.68609   0.00000  Uiso   1.00
H144   H     0.51528  -0.07919   0.76047   0.00000  Uiso   1.00
H145   H     0.58618   0.17229   0.79027   0.00000  Uiso   1.00
H146   H     0.60558   0.49451   0.74457   0.00000  Uiso   1.00
H147   H     0.55418   0.58044   0.67015   0.00000  Uiso   1.00
C148   C     0.97261   0.42035   0.45699   0.00000  Uiso   1.00
H149   H     0.95113   0.41502   0.42364   0.00000  Uiso   1.00
C150   C     0.29084   0.69835   0.64840   0.00000  Uiso   1.00
N151   N     0.31505   0.71287   0.69086   0.00000  Uiso   1.00
C152   C     0.24472   0.64727   0.62888   0.00000  Uiso   1.00
C153   C     0.22128   0.49646   0.58902   0.00000  Uiso   1.00
C154   C     0.17755   0.45624   0.56950   0.00000  Uiso   1.00
C155   C     0.15737   0.56415   0.59160   0.00000  Uiso   1.00
C156   C     0.18060   0.70469   0.63174   0.00000  Uiso   1.00
C157   C     0.22387   0.74588   0.65026   0.00000  Uiso   1.00
N158   N     0.11508   0.54367   0.57343   0.00000  Uiso   1.00
C159   C     0.09039   0.41031   0.53456   0.00000  Uiso   1.00
C160   C     0.04388   0.41452   0.51598   0.00000  Uiso   1.00
C161   C     0.01607   0.44366   0.47238   0.00000  Uiso   1.00
O162   O     0.03269   0.51219   0.44597   0.00000  Uiso   1.00
C163   C     0.00537   0.63725   0.40470   0.00000  Uiso   1.00
H164   H     0.23756   0.41301   0.57350   0.00000  Uiso   1.00
C165   C     0.15257   0.32092   0.52835   0.00000  Uiso   1.00
H166   H     0.16499   0.78805   0.64845   0.00000  Uiso   1.00
H167   H     0.24092   0.86115   0.68104   0.00000  Uiso   1.00
C168   C     0.10947   0.27847   0.51283   0.00000  Uiso   1.00
H169   H     0.98742   0.86181   0.40564   0.00000  Uiso   1.00
H170   H     0.98373   0.43319   0.38459   0.00000  Uiso   1.00
H171   H     0.02447   0.71911   0.39069   0.00000  Uiso   1.00
C172   C     0.16786   0.26516   0.49807   0.00000  Uiso   1.00
C173   C     0.20365   0.06956   0.50789   0.00000  Uiso   1.00
C174   C     0.21767   0.03456   0.47922   0.00000  Uiso   1.00
C175   C     0.19513   0.18204   0.43957   0.00000  Uiso   1.00
C176   C     0.15858   0.36519   0.42860   0.00000  Uiso   1.00
C177   C     0.14516   0.40861   0.45764   0.00000  Uiso   1.00
H178   H     0.09096   0.14945   0.48317   0.00000  Uiso   1.00
H179   H     0.22091  -0.05726   0.53755   0.00000  Uiso   1.00
H180   H     0.24566  -0.11238   0.48755   0.00000  Uiso   1.00
H181   H     0.20581   0.15225   0.41725   0.00000  Uiso   1.00
H182   H     0.14105   0.47954   0.39784   0.00000  Uiso   1.00
H183   H     0.11741   0.56097   0.44879   0.00000  Uiso   1.00
C184   C     0.35751   0.74711   0.71096   0.00000  Uiso   1.00
C185   C     0.37740   0.76442   0.68700   0.00000  Uiso   1.00
C186   C     0.38222   0.73020   0.75761   0.00000  Uiso   1.00
C187   C     0.36463   0.57745   0.77987   0.00000  Uiso   1.00
C188   C     0.38826   0.52787   0.82364   0.00000  Uiso   1.00
C189   C     0.43052   0.63679   0.84476   0.00000  Uiso   1.00
C190   C     0.44752   0.80180   0.82314   0.00000  Uiso   1.00
C191   C     0.42361   0.85186   0.78013   0.00000  Uiso   1.00
N192   N     0.45483   0.59142   0.88661   0.00000  Uiso   1.00
C193   C     0.44105   0.43487   0.91032   0.00000  Uiso   1.00
C194   C     0.47037   0.40817   0.95646   0.00000  Uiso   1.00
C195   C     0.45655   0.42631   0.98588   0.00000  Uiso   1.00
O196   O     0.41366   0.48475   0.97126   0.00000  Uiso   1.00
C197   C     0.40134   0.60547   0.00003   0.00000  Uiso   1.00
H198   H     0.41098   0.78349   0.70221   0.00000  Uiso   1.00
H199   H     0.33250   0.49878   0.76229   0.00000  Uiso   1.00
C200   C     0.37196   0.37707   0.84775   0.00000  Uiso   1.00
H201   H     0.47950   0.89394   0.83981   0.00000  Uiso   1.00
H202   H     0.43782   0.98879   0.76496   0.00000  Uiso   1.00
C203   C     0.39965   0.31370   0.89058   0.00000  Uiso   1.00
H204   H     0.42004   0.83315   0.01720   0.00000  Uiso   1.00
H205   H     0.40464   0.40112   0.02236   0.00000  Uiso   1.00
H206   H     0.36789   0.68083   0.98223   0.00000  Uiso   1.00
C207   C     0.32633   0.32016   0.83197   0.00000  Uiso   1.00
C208   C     0.30039   0.13384   0.79529   0.00000  Uiso   1.00
C209   C     0.25792   0.08788   0.78168   0.00000  Uiso   1.00
C210   C     0.24088   0.21969   0.80505   0.00000  Uiso   1.00
C211   C     0.26628   0.39841   0.84202   0.00000  Uiso   1.00
C212   C     0.30862   0.44973   0.85533   0.00000  Uiso   1.00
H213   H     0.38834   0.17324   0.90822   0.00000  Uiso   1.00
H214   H     0.31256   0.02211   0.77701   0.00000  Uiso   1.00
H215   H     0.23835  -0.05451   0.75327   0.00000  Uiso   1.00
H216   H     0.20806   0.18134   0.79466   0.00000  Uiso   1.00
H217   H     0.25308   0.50081   0.86017   0.00000  Uiso   1.00
H218   H     0.32750   0.59512   0.88371   0.00000  Uiso   1.00
C219   C     0.48636   0.40509   0.02893   0.00000  Uiso   1.00
H220   H     0.47606   0.39911   0.05166   0.00000  Uiso   1.00
loop_
_geom_bond_atom_site_label_1
_geom_bond_atom_site_label_2
_geom_bond_distance
_geom_bond_site_symmetry_2
_ccdc_geom_bond_type
C1     C2      1.401   .     S
C1     C3      1.495   .     S
C1     C75     1.403   .     D
C2     H16     1.077   .     S
C2     C40     1.407   .     D
C3     C4      1.409   .     D
C3     C8      1.405   .     S
C4     C5      1.409   .     S
C4     H17     1.070   .     S
C5     C6      1.415   .     D
C5     C18     1.426   .     S
C6     C7      1.397   .     S
C6     N9      1.355   .     S
C7     C8      1.393   .     D
C7     H19     1.083   .     S
C8     H20     1.082   .     S
N9     C10     1.358   .     D
C10    C11     1.492   .     S
C10    C21     1.403   .     S
C11    C12     1.413   .     D
C11    C123    1.405   .     S
C12    C13     1.410   .     S
C12    O14     1.412   .     S
C13    H22     1.081   .     S
C13    C121    1.405   .     D
O14    C15     1.427   .     S
C15    H23     1.109   .     S
C15    H24     1.108   .     S
C15    H25     1.109   .     S
C18    C21     1.406   .     D
C18    C26     1.497   .     S
C21    H32     1.082   .     S
C26    C27     1.407   .     D
C26    C31     1.410   .     S
C27    C28     1.397   .     S
C27    H33     1.071   .     S
C28    C29     1.395   .     D
C28    H34     1.083   .     S
C29    C30     1.395   .     S
C29    H35     1.082   .     S
C30    C31     1.398   .     D
C30    H36     1.082   .     S
C31    H37     1.083   .     S
C38    H39     1.081   .     S
C38    C51     1.411   1_455 S
C38    C160    1.404   .     D
C40    N41     1.362   .     S
C40    C42     1.493   .     S
N41    C74     1.364   .     D
C42    C43     1.409   .     D
C42    C47     1.403   .     S
C43    C44     1.409   .     S
C43    H54     1.067   .     S
C44    C45     1.415   .     D
C44    C55     1.426   .     S
C45    C46     1.400   .     S
C45    N48     1.358   .     S
C46    C47     1.397   .     D
C46    H56     1.083   .     S
C47    H57     1.083   .     S
N48    C49     1.360   .     D
C49    C50     1.496   .     S
C49    C58     1.403   .     S
C50    C51     1.415   .     D
C50    C148    1.404   .     S
C51    C38     1.411   1_655 S
C51    O52     1.412   .     S
O52    C53     1.428   .     S
C53    H59     1.109   1_655 S
C53    H60     1.109   1_655 S
C53    H61     1.109   .     S
C55    C58     1.405   .     D
C55    C62     1.498   .     S
C58    H68     1.082   .     S
H59    C53     1.109   1_455 S
H60    C53     1.109   1_455 S
C62    C63     1.407   .     D
C62    C67     1.411   .     S
C63    C64     1.397   .     S
C63    H69     1.073   .     S
C64    C65     1.395   .     D
C64    H70     1.083   .     S
C65    C66     1.395   .     S
C65    H71     1.082   .     S
C66    C67     1.397   .     D
C66    H72     1.082   .     S
C67    H73     1.083   .     S
C74    C75     1.405   .     S
C74    C76     1.493   .     S
C75    H88     1.077   .     S
C76    C77     1.408   .     D
C76    C81     1.407   .     S
C77    C78     1.413   .     S
C77    H89     1.073   .     S
C78    C79     1.416   .     D
C78    C90     1.426   .     S
C79    C80     1.394   .     S
C79    N82     1.355   .     S
C80    C81     1.391   .     D
C80    H91     1.084   .     S
C81    H92     1.080   .     S
N82    C83     1.357   .     D
C83    C84     1.496   .     S
C83    C93     1.405   .     S
C84    C85     1.413   .     S
C84    C219    1.407   .     D
C85    O86     1.412   .     S
C85    C109    1.412   1_554 D
O86    C87     1.427   1_554 S
C87    O86     1.427   1_556 S
C87    H94     1.109   .     S
C87    H95     1.108   .     S
C87    H96     1.109   1_556 S
C90    C93     1.410   .     D
C90    C97     1.498   .     S
C93    H103    1.081   .     S
H96    C87     1.109   1_554 S
C97    C98     1.407   .     D
C97    C102    1.410   .     S
C98    C99     1.397   .     S
C98    H104    1.072   .     S
C99    C100    1.395   .     D
C99    H105    1.082   .     S
C100   C101    1.395   .     S
C100   H106    1.082   .     S
C101   C102    1.398   .     D
C101   H107    1.082   .     S
C102   H108    1.083   .     S
C109   C85     1.412   1_556 D
C109   H110    1.080   .     S
C109   C194    1.407   .     S
C111   C112    1.401   .     S
C111   C113    1.495   .     S
C111   C185    1.403   .     D
C112   H126    1.077   .     S
C112   C150    1.407   .     D
C113   C114    1.409   .     D
C113   C118    1.405   .     S
C114   C115    1.409   .     S
C114   H127    1.070   .     S
C115   C116    1.415   .     D
C115   C128    1.426   .     S
C116   C117    1.397   .     S
C116   N119    1.355   .     S
C117   C118    1.393   .     D
C117   H129    1.083   .     S
C118   H130    1.082   .     S
N119   C120    1.358   .     D
C120   C121    1.492   .     S
C120   C131    1.403   .     S
C121   C122    1.413   .     S
C122   C123    1.410   .     D
C122   O124    1.412   .     S
C123   H132    1.081   .     S
O124   C125    1.427   .     S
C125   H133    1.109   .     S
C125   H134    1.108   .     S
C125   H135    1.109   .     S
C128   C131    1.406   .     D
C128   C136    1.497   .     S
C131   H142    1.082   .     S
C136   C137    1.407   .     D
C136   C141    1.410   .     S
C137   C138    1.397   .     S
C137   H143    1.071   .     S
C138   C139    1.395   .     D
C138   H144    1.083   .     S
C139   C140    1.395   .     S
C139   H145    1.082   .     S
C140   C141    1.398   .     D
C140   H146    1.082   .     S
C141   H147    1.083   .     S
C148   H149    1.081   .     S
C148   C161    1.411   1_655 D
C150   N151    1.362   .     S
C150   C152    1.493   .     S
N151   C184    1.364   .     D
C152   C153    1.409   .     D
C152   C157    1.403   .     S
C153   C154    1.409   .     S
C153   H164    1.067   .     S
C154   C155    1.415   .     D
C154   C165    1.426   .     S
C155   C156    1.400   .     S
C155   N158    1.358   .     S
C156   C157    1.397   .     D
C156   H166    1.083   .     S
C157   H167    1.083   .     S
N158   C159    1.360   .     D
C159   C160    1.496   .     S
C159   C168    1.403   .     S
C160   C161    1.415   .     S
C161   C148    1.411   1_455 D
C161   O162    1.412   .     S
O162   C163    1.428   .     S
C163   H169    1.109   1_455 S
C163   H170    1.109   1_455 S
C163   H171    1.109   .     S
C165   C168    1.405   .     D
C165   C172    1.498   .     S
C168   H178    1.082   .     S
H169   C163    1.109   1_655 S
H170   C163    1.109   1_655 S
C172   C173    1.407   .     D
C172   C177    1.411   .     S
C173   C174    1.397   .     S
C173   H179    1.073   .     S
C174   C175    1.395   .     D
C174   H180    1.083   .     S
C175   C176    1.395   .     S
C175   H181    1.082   .     S
C176   C177    1.397   .     D
C176   H182    1.082   .     S
C177   H183    1.083   .     S
C184   C185    1.405   .     S
C184   C186    1.493   .     S
C185   H198    1.077   .     S
C186   C187    1.408   .     D
C186   C191    1.407   .     S
C187   C188    1.413   .     S
C187   H199    1.073   .     S
C188   C189    1.416   .     D
C188   C200    1.426   .     S
C189   C190    1.394   .     S
C189   N192    1.355   .     S
C190   C191    1.391   .     D
C190   H201    1.084   .     S
C191   H202    1.080   .     S
N192   C193    1.357   .     D
C193   C194    1.496   .     S
C193   C203    1.405   .     S
C194   C195    1.413   .     D
C195   O196    1.412   .     S
C195   C219    1.412   1_556 S
O196   C197    1.427   1_556 S
C197   O196    1.427   1_554 S
C197   H204    1.109   .     S
C197   H205    1.108   .     S
C197   H206    1.109   1_554 S
C200   C203    1.410   .     D
C200   C207    1.498   .     S
C203   H213    1.081   .     S
H206   C197    1.109   1_556 S
C207   C208    1.407   .     D
C207   C212    1.410   .     S
C208   C209    1.397   .     S
C208   H214    1.072   .     S
C209   C210    1.395   .     D
C209   H215    1.082   .     S
C210   C211    1.395   .     S
C210   H216    1.082   .     S
C211   C212    1.398   .     D
C211   H217    1.082   .     S
C212   H218    1.083   .     S
C219   C195    1.412   1_554 S
C219   H220    1.080   .     S
