data_376
_audit_creation_date              2023-09-08
_audit_creation_method            'Materials Studio'
_symmetry_space_group_name_H-M    'P1'
_symmetry_Int_Tables_number       1
_symmetry_cell_setting            triclinic
loop_
_symmetry_equiv_pos_as_xyz
  x,y,z
_cell_length_a                    36.8970
_cell_length_b                    3.9001
_cell_length_c                    36.8970
_cell_angle_alpha                 90.0000
_cell_angle_beta                  120.0000
_cell_angle_gamma                 90.0000
loop_
_atom_site_label
_atom_site_type_symbol
_atom_site_fract_x
_atom_site_fract_y
_atom_site_fract_z
_atom_site_U_iso_or_equiv
_atom_site_adp_type
_atom_site_occupancy
C1     C     0.64841   0.73986   0.35869   0.00000  Uiso   1.00
C2     C     0.69163   0.68575   0.37745   0.00000  Uiso   1.00
C3     C     0.62710   0.71679   0.38406   0.00000  Uiso   1.00
C4     C     0.58695   0.56992   0.36674   0.00000  Uiso   1.00
C5     C     0.56700   0.52387   0.39051   0.00000  Uiso   1.00
C6     C     0.58905   0.62096   0.43318   0.00000  Uiso   1.00
C7     C     0.62861   0.77217   0.45041   0.00000  Uiso   1.00
C8     C     0.64731   0.82332   0.42605   0.00000  Uiso   1.00
N9     N     0.57158   0.57664   0.45762   0.00000  Uiso   1.00
C10    C     0.53296   0.43822   0.44310   0.00000  Uiso   1.00
C11    C     0.51571   0.41227   0.47189   0.00000  Uiso   1.00
C12    C     0.47234   0.41203   0.45688   0.00000  Uiso   1.00
C13    C     0.45692   0.41027   0.48462   0.00000  Uiso   1.00
H14    H     0.70954   0.65798   0.41092   0.00000  Uiso   1.00
H15    H     0.57194   0.49017   0.33471   0.00000  Uiso   1.00
C16    C     0.52568   0.39038   0.37370   0.00000  Uiso   1.00
H17    H     0.64487   0.85338   0.48282   0.00000  Uiso   1.00
H18    H     0.67758   0.94757   0.44020   0.00000  Uiso   1.00
C19    C     0.50991   0.33798   0.40098   0.00000  Uiso   1.00
H20    H     0.42336   0.41360   0.47187   0.00000  Uiso   1.00
C21    C     0.49588   0.33979   0.32794   0.00000  Uiso   1.00
C22    C     0.50611   0.14499   0.30222   0.00000  Uiso   1.00
C23    C     0.47777   0.10949   0.25946   0.00000  Uiso   1.00
C24    C     0.43805   0.25622   0.24201   0.00000  Uiso   1.00
C25    C     0.42672   0.43945   0.26731   0.00000  Uiso   1.00
C26    C     0.45544   0.48312   0.30988   0.00000  Uiso   1.00
H27    H     0.47938   0.22192   0.38888   0.00000  Uiso   1.00
H28    H     0.53580   0.01806   0.31495   0.00000  Uiso   1.00
H29    H     0.48635  -0.03788   0.24003   0.00000  Uiso   1.00
H30    H     0.41594   0.22537   0.20899   0.00000  Uiso   1.00
H31    H     0.39588   0.55268   0.25382   0.00000  Uiso   1.00
H32    H     0.44630   0.63443   0.32862   0.00000  Uiso   1.00
C33    C     0.02715   0.25871   0.54322   0.00000  Uiso   1.00
H34    H     0.04745   0.26217   0.57687   0.00000  Uiso   1.00
C35    C     0.71081   0.65697   0.35281   0.00000  Uiso   1.00
N36    N     0.68662   0.69416   0.31047   0.00000  Uiso   1.00
C37    C     0.75647   0.57628   0.37182   0.00000  Uiso   1.00
C38    C     0.77941   0.42771   0.41194   0.00000  Uiso   1.00
C39    C     0.82283   0.36712   0.43114   0.00000  Uiso   1.00
C40    C     0.84312   0.44563   0.40823   0.00000  Uiso   1.00
C41    C     0.82032   0.58078   0.36774   0.00000  Uiso   1.00
C42    C     0.77749   0.64697   0.34975   0.00000  Uiso   1.00
N43    N     0.88516   0.40171   0.42589   0.00000  Uiso   1.00
C44    C     0.90954   0.27846   0.46539   0.00000  Uiso   1.00
C45    C     0.95590   0.25893   0.48344   0.00000  Uiso   1.00
C46    C     0.98381   0.26093   0.52700   0.00000  Uiso   1.00
H47    H     0.76318   0.36154   0.42811   0.00000  Uiso   1.00
C48    C     0.84743   0.24181   0.47285   0.00000  Uiso   1.00
H49    H     0.83601   0.64212   0.35038   0.00000  Uiso   1.00
H50    H     0.76098   0.75904   0.31875   0.00000  Uiso   1.00
C51    C     0.89044   0.18722   0.48870   0.00000  Uiso   1.00
C52    C     0.83154   0.20028   0.50282   0.00000  Uiso   1.00
C53    C     0.79548   0.00850   0.49296   0.00000  Uiso   1.00
C54    C     0.78111  -0.02005   0.52141   0.00000  Uiso   1.00
C55    C     0.80352   0.13092   0.56087   0.00000  Uiso   1.00
C56    C     0.84024   0.31154   0.57183   0.00000  Uiso   1.00
C57    C     0.85406   0.34807   0.54300   0.00000  Uiso   1.00
H58    H     0.90881   0.07778   0.51960   0.00000  Uiso   1.00
H59    H     0.77833  -0.11996   0.46339   0.00000  Uiso   1.00
H60    H     0.75299  -0.16499   0.51312   0.00000  Uiso   1.00
H61    H     0.79262   0.10581   0.58306   0.00000  Uiso   1.00
H62    H     0.85767   0.42839   0.60245   0.00000  Uiso   1.00
H63    H     0.88203   0.49724   0.55185   0.00000  Uiso   1.00
C64    C     0.64462   0.75899   0.29075   0.00000  Uiso   1.00
C65    C     0.62524   0.78604   0.31519   0.00000  Uiso   1.00
C66    C     0.61954   0.76242   0.24382   0.00000  Uiso   1.00
C67    C     0.63721   0.63564   0.22031   0.00000  Uiso   1.00
C68    C     0.61303   0.59271   0.17636   0.00000  Uiso   1.00
C69    C     0.57023   0.68525   0.15627   0.00000  Uiso   1.00
C70    C     0.55324   0.83057   0.17899   0.00000  Uiso   1.00
C71    C     0.57758   0.87319   0.22209   0.00000  Uiso   1.00
N72    N     0.54528   0.64246   0.11442   0.00000  Uiso   1.00
C73    C     0.55920   0.50938   0.08961   0.00000  Uiso   1.00
C74    C     0.52928   0.48118   0.04368   0.00000  Uiso   1.00
C75    C     0.54292   0.47956   0.01424   0.00000  Uiso   1.00
H76    H     0.59213   0.83126   0.30078   0.00000  Uiso   1.00
H77    H     0.66986   0.57161   0.23705   0.00000  Uiso   1.00
C78    C     0.62934   0.46545   0.15110   0.00000  Uiso   1.00
H79    H     0.52083   0.91194   0.16312   0.00000  Uiso   1.00
H80    H     0.56290   0.99430   0.23775   0.00000  Uiso   1.00
C81    C     0.60151   0.41519   0.10797   0.00000  Uiso   1.00
C82    C     0.67496   0.41193   0.16664   0.00000  Uiso   1.00
C83    C     0.70074   0.21744   0.20262   0.00000  Uiso   1.00
C84    C     0.74339   0.17880   0.21666   0.00000  Uiso   1.00
C85    C     0.76067   0.32286   0.19409   0.00000  Uiso   1.00
C86    C     0.73530   0.50634   0.15750   0.00000  Uiso   1.00
C87    C     0.69284   0.55243   0.14396   0.00000  Uiso   1.00
H88    H     0.61326   0.30356   0.08901   0.00000  Uiso   1.00
H89    H     0.68818   0.09350   0.21994   0.00000  Uiso   1.00
H90    H     0.76289   0.03174   0.24468   0.00000  Uiso   1.00
H91    H     0.79362   0.28994   0.20476   0.00000  Uiso   1.00
H92    H     0.74866   0.61778   0.13994   0.00000  Uiso   1.00
H93    H     0.67406   0.70384   0.11610   0.00000  Uiso   1.00
C94    C     0.51407   0.47824   0.97128   0.00000  Uiso   1.00
H95    H     0.52587   0.48130   0.94968   0.00000  Uiso   1.00
H96    H     0.44996   0.42523   0.42379   0.00000  Uiso   1.00
H97    H     0.97266   0.27503   0.54902   0.00000  Uiso   1.00
H98    H     0.57580   0.49187   0.02395   0.00000  Uiso   1.00
C99    C     0.35159   0.73986   0.64131   0.00000  Uiso   1.00
C100   C     0.30837   0.68575   0.62255   0.00000  Uiso   1.00
C101   C     0.37290   0.71679   0.61594   0.00000  Uiso   1.00
C102   C     0.41305   0.56992   0.63326   0.00000  Uiso   1.00
C103   C     0.43300   0.52387   0.60949   0.00000  Uiso   1.00
C104   C     0.41095   0.62096   0.56682   0.00000  Uiso   1.00
C105   C     0.37139   0.77217   0.54959   0.00000  Uiso   1.00
C106   C     0.35269   0.82332   0.57395   0.00000  Uiso   1.00
N107   N     0.42842   0.57664   0.54238   0.00000  Uiso   1.00
C108   C     0.46704   0.43822   0.55690   0.00000  Uiso   1.00
C109   C     0.48429   0.41227   0.52811   0.00000  Uiso   1.00
C110   C     0.52766   0.41203   0.54312   0.00000  Uiso   1.00
C111   C     0.54308   0.41027   0.51538   0.00000  Uiso   1.00
H112   H     0.29046   0.65798   0.58908   0.00000  Uiso   1.00
H113   H     0.42806   0.49017   0.66529   0.00000  Uiso   1.00
C114   C     0.47432   0.39038   0.62630   0.00000  Uiso   1.00
H115   H     0.35513   0.85338   0.51718   0.00000  Uiso   1.00
H116   H     0.32242   0.94757   0.55980   0.00000  Uiso   1.00
C117   C     0.49009   0.33798   0.59902   0.00000  Uiso   1.00
H118   H     0.57664   0.41360   0.52813   0.00000  Uiso   1.00
C119   C     0.50412   0.33979   0.67206   0.00000  Uiso   1.00
C120   C     0.49389   0.14499   0.69778   0.00000  Uiso   1.00
C121   C     0.52223   0.10949   0.74054   0.00000  Uiso   1.00
C122   C     0.56195   0.25622   0.75799   0.00000  Uiso   1.00
C123   C     0.57328   0.43945   0.73269   0.00000  Uiso   1.00
C124   C     0.54456   0.48312   0.69012   0.00000  Uiso   1.00
H125   H     0.52062   0.22192   0.61112   0.00000  Uiso   1.00
H126   H     0.46420   0.01806   0.68505   0.00000  Uiso   1.00
H127   H     0.51365  -0.03788   0.75997   0.00000  Uiso   1.00
H128   H     0.58406   0.22537   0.79101   0.00000  Uiso   1.00
H129   H     0.60412   0.55268   0.74618   0.00000  Uiso   1.00
H130   H     0.55370   0.63443   0.67138   0.00000  Uiso   1.00
C131   C     0.97285   0.25871   0.45678   0.00000  Uiso   1.00
H132   H     0.95255   0.26217   0.42313   0.00000  Uiso   1.00
C133   C     0.28919   0.65697   0.64719   0.00000  Uiso   1.00
N134   N     0.31338   0.69416   0.68953   0.00000  Uiso   1.00
C135   C     0.24353   0.57628   0.62818   0.00000  Uiso   1.00
C136   C     0.22059   0.42771   0.58806   0.00000  Uiso   1.00
C137   C     0.17717   0.36712   0.56886   0.00000  Uiso   1.00
C138   C     0.15688   0.44563   0.59177   0.00000  Uiso   1.00
C139   C     0.17968   0.58078   0.63226   0.00000  Uiso   1.00
C140   C     0.22251   0.64697   0.65025   0.00000  Uiso   1.00
N141   N     0.11484   0.40171   0.57411   0.00000  Uiso   1.00
C142   C     0.09046   0.27846   0.53461   0.00000  Uiso   1.00
C143   C     0.04410   0.25893   0.51656   0.00000  Uiso   1.00
C144   C     0.01619   0.26093   0.47300   0.00000  Uiso   1.00
H145   H     0.23682   0.36154   0.57189   0.00000  Uiso   1.00
C146   C     0.15257   0.24181   0.52715   0.00000  Uiso   1.00
H147   H     0.16399   0.64212   0.64962   0.00000  Uiso   1.00
H148   H     0.23902   0.75904   0.68125   0.00000  Uiso   1.00
C149   C     0.10956   0.18722   0.51130   0.00000  Uiso   1.00
C150   C     0.16846   0.20028   0.49718   0.00000  Uiso   1.00
C151   C     0.20452   0.00850   0.50704   0.00000  Uiso   1.00
C152   C     0.21889  -0.02005   0.47859   0.00000  Uiso   1.00
C153   C     0.19648   0.13092   0.43913   0.00000  Uiso   1.00
C154   C     0.15976   0.31154   0.42817   0.00000  Uiso   1.00
C155   C     0.14594   0.34807   0.45700   0.00000  Uiso   1.00
H156   H     0.09119   0.07778   0.48040   0.00000  Uiso   1.00
H157   H     0.22167  -0.11996   0.53661   0.00000  Uiso   1.00
H158   H     0.24701  -0.16499   0.48688   0.00000  Uiso   1.00
H159   H     0.20738   0.10581   0.41694   0.00000  Uiso   1.00
H160   H     0.14233   0.42839   0.39755   0.00000  Uiso   1.00
H161   H     0.11797   0.49724   0.44815   0.00000  Uiso   1.00
C162   C     0.35538   0.75899   0.70925   0.00000  Uiso   1.00
C163   C     0.37476   0.78604   0.68481   0.00000  Uiso   1.00
C164   C     0.38046   0.76242   0.75618   0.00000  Uiso   1.00
C165   C     0.36279   0.63564   0.77969   0.00000  Uiso   1.00
C166   C     0.38697   0.59271   0.82364   0.00000  Uiso   1.00
C167   C     0.42977   0.68525   0.84373   0.00000  Uiso   1.00
C168   C     0.44676   0.83057   0.82101   0.00000  Uiso   1.00
C169   C     0.42242   0.87319   0.77791   0.00000  Uiso   1.00
N170   N     0.45472   0.64246   0.88558   0.00000  Uiso   1.00
C171   C     0.44080   0.50938   0.91039   0.00000  Uiso   1.00
C172   C     0.47072   0.48118   0.95632   0.00000  Uiso   1.00
C173   C     0.45708   0.47956   0.98576   0.00000  Uiso   1.00
H174   H     0.40787   0.83126   0.69922   0.00000  Uiso   1.00
H175   H     0.33014   0.57161   0.76295   0.00000  Uiso   1.00
C176   C     0.37066   0.46545   0.84890   0.00000  Uiso   1.00
H177   H     0.47917   0.91194   0.83688   0.00000  Uiso   1.00
H178   H     0.43710   0.99430   0.76225   0.00000  Uiso   1.00
C179   C     0.39849   0.41519   0.89203   0.00000  Uiso   1.00
C180   C     0.32504   0.41193   0.83336   0.00000  Uiso   1.00
C181   C     0.29926   0.21744   0.79738   0.00000  Uiso   1.00
C182   C     0.25661   0.17880   0.78334   0.00000  Uiso   1.00
C183   C     0.23933   0.32286   0.80591   0.00000  Uiso   1.00
C184   C     0.26470   0.50634   0.84250   0.00000  Uiso   1.00
C185   C     0.30716   0.55243   0.85604   0.00000  Uiso   1.00
H186   H     0.38674   0.30356   0.91099   0.00000  Uiso   1.00
H187   H     0.31182   0.09350   0.78006   0.00000  Uiso   1.00
H188   H     0.23711   0.03174   0.75532   0.00000  Uiso   1.00
H189   H     0.20638   0.28994   0.79524   0.00000  Uiso   1.00
H190   H     0.25134   0.61778   0.86006   0.00000  Uiso   1.00
H191   H     0.32594   0.70384   0.88390   0.00000  Uiso   1.00
C192   C     0.48593   0.47824   0.02872   0.00000  Uiso   1.00
H193   H     0.47413   0.48130   0.05032   0.00000  Uiso   1.00
H194   H     0.55004   0.42523   0.57621   0.00000  Uiso   1.00
H195   H     0.02734   0.27503   0.45098   0.00000  Uiso   1.00
H196   H     0.42420   0.49187   0.97605   0.00000  Uiso   1.00
loop_
_geom_bond_atom_site_label_1
_geom_bond_atom_site_label_2
_geom_bond_distance
_geom_bond_site_symmetry_2
_ccdc_geom_bond_type
C1     C2      1.401   .     D
C1     C3      1.496   .     S
C1     C65     1.403   .     S
C2     H14     1.076   .     S
C2     C35     1.408   .     S
C3     C4      1.409   .     S
C3     C8      1.405   .     D
C4     C5      1.410   .     D
C4     H15     1.070   .     S
C5     C6      1.415   .     S
C5     C16     1.426   .     S
C6     C7      1.398   .     D
C6     N9      1.356   .     S
C7     C8      1.394   .     S
C7     H17     1.083   .     S
C8     H18     1.082   .     S
N9     C10     1.359   .     D
C10    C11     1.490   .     S
C10    C19     1.403   .     S
C11    C12     1.408   .     D
C11    C111    1.405   .     S
C12    C13     1.398   .     S
C12    H96     1.080   .     S
C13    H20     1.083   .     S
C13    C109    1.405   .     D
C16    C19     1.407   .     D
C16    C21     1.497   .     S
C19    H27     1.082   .     S
C21    C22     1.407   .     D
C21    C26     1.410   .     S
C22    C23     1.397   .     S
C22    H28     1.073   .     S
C23    C24     1.395   .     D
C23    H29     1.082   .     S
C24    C25     1.395   .     S
C24    H30     1.082   .     S
C25    C26     1.398   .     D
C25    H31     1.082   .     S
C26    H32     1.083   .     S
C33    H34     1.083   .     S
C33    C46     1.399   1_455 S
C33    C143    1.405   .     D
C35    N36     1.365   .     D
C35    C37     1.499   .     S
N36    C64     1.366   .     S
C37    C38     1.411   .     D
C37    C42     1.404   .     S
C38    C39     1.410   .     S
C38    H47     1.067   .     S
C39    C40     1.415   .     D
C39    C48     1.426   .     S
C40    C41     1.400   .     S
C40    N43     1.360   .     S
C41    C42     1.398   .     D
C41    H49     1.083   .     S
C42    H50     1.083   .     S
N43    C44     1.361   .     D
C44    C45     1.495   .     S
C44    C51     1.403   .     S
C45    C46     1.410   .     D
C45    C131    1.405   .     S
C46    C33     1.399   1_655 S
C46    H97     1.080   .     S
C48    C51     1.406   .     D
C48    C52     1.497   .     S
C51    H58     1.081   .     S
C52    C53     1.406   .     D
C52    C57     1.410   .     S
C53    C54     1.397   .     S
C53    H59     1.073   .     S
C54    C55     1.395   .     D
C54    H60     1.083   .     S
C55    C56     1.396   .     S
C55    H61     1.082   .     S
C56    C57     1.398   .     D
C56    H62     1.082   .     S
C57    H63     1.083   .     S
C64    C65     1.407   .     D
C64    C66     1.501   .     S
C65    H76     1.076   .     S
C66    C67     1.410   .     D
C66    C71     1.409   .     S
C67    C68     1.417   .     S
C67    H77     1.073   .     S
C68    C69     1.415   .     D
C68    C78     1.428   .     S
C69    C70     1.394   .     S
C69    N72     1.356   .     S
C70    C71     1.391   .     D
C70    H79     1.083   .     S
C71    H80     1.079   .     S
N72    C73     1.357   .     D
C73    C74     1.494   .     S
C73    C81     1.405   .     S
C74    C75     1.407   .     D
C74    C192    1.407   .     S
C75    C94     1.399   1_554 S
C75    H98     1.081   .     S
C78    C81     1.411   .     D
C78    C82     1.497   .     S
C81    H88     1.082   .     S
C82    C83     1.407   .     D
C82    C87     1.410   .     S
C83    C84     1.397   .     S
C83    H89     1.074   .     S
C84    C85     1.395   .     D
C84    H90     1.082   .     S
C85    C86     1.395   .     S
C85    H91     1.082   .     S
C86    C87     1.398   .     D
C86    H92     1.082   .     S
C87    H93     1.083   .     S
C94    C75     1.399   1_556 S
C94    H95     1.083   .     S
C94    C172    1.407   .     D
C99    C100    1.401   .     D
C99    C101    1.496   .     S
C99    C163    1.403   .     S
C100   H112    1.076   .     S
C100   C133    1.408   .     S
C101   C102    1.409   .     D
C101   C106    1.405   .     S
C102   C103    1.410   .     S
C102   H113    1.070   .     S
C103   C104    1.415   .     D
C103   C114    1.426   .     S
C104   C105    1.398   .     S
C104   N107    1.356   .     S
C105   C106    1.394   .     D
C105   H115    1.083   .     S
C106   H116    1.082   .     S
N107   C108    1.359   .     D
C108   C109    1.490   .     S
C108   C117    1.403   .     S
C109   C110    1.408   .     S
C110   C111    1.398   .     D
C110   H194    1.080   .     S
C111   H118    1.083   .     S
C114   C117    1.407   .     D
C114   C119    1.497   .     S
C117   H125    1.082   .     S
C119   C120    1.407   .     D
C119   C124    1.410   .     S
C120   C121    1.397   .     S
C120   H126    1.073   .     S
C121   C122    1.395   .     D
C121   H127    1.082   .     S
C122   C123    1.395   .     S
C122   H128    1.082   .     S
C123   C124    1.398   .     D
C123   H129    1.082   .     S
C124   H130    1.083   .     S
C131   H132    1.083   .     S
C131   C144    1.399   1_655 D
C133   N134    1.365   .     D
C133   C135    1.499   .     S
N134   C162    1.366   .     S
C135   C136    1.411   .     S
C135   C140    1.404   .     D
C136   C137    1.410   .     D
C136   H145    1.067   .     S
C137   C138    1.415   .     S
C137   C146    1.426   .     S
C138   C139    1.400   .     D
C138   N141    1.360   .     S
C139   C140    1.398   .     S
C139   H147    1.083   .     S
C140   H148    1.083   .     S
N141   C142    1.361   .     D
C142   C143    1.495   .     S
C142   C149    1.403   .     S
C143   C144    1.410   .     S
C144   C131    1.399   1_455 D
C144   H195    1.080   .     S
C146   C149    1.406   .     D
C146   C150    1.497   .     S
C149   H156    1.081   .     S
C150   C151    1.406   .     D
C150   C155    1.410   .     S
C151   C152    1.397   .     S
C151   H157    1.073   .     S
C152   C153    1.395   .     D
C152   H158    1.083   .     S
C153   C154    1.396   .     S
C153   H159    1.082   .     S
C154   C155    1.398   .     D
C154   H160    1.082   .     S
C155   H161    1.083   .     S
C162   C163    1.407   .     D
C162   C164    1.501   .     S
C163   H174    1.076   .     S
C164   C165    1.410   .     D
C164   C169    1.409   .     S
C165   C166    1.417   .     S
C165   H175    1.073   .     S
C166   C167    1.415   .     D
C166   C176    1.428   .     S
C167   C168    1.394   .     S
C167   N170    1.356   .     S
C168   C169    1.391   .     D
C168   H177    1.083   .     S
C169   H178    1.079   .     S
N170   C171    1.357   .     D
C171   C172    1.494   .     S
C171   C179    1.405   .     S
C172   C173    1.407   .     S
C173   C192    1.399   1_556 D
C173   H196    1.081   .     S
C176   C179    1.411   .     D
C176   C180    1.497   .     S
C179   H186    1.082   .     S
C180   C181    1.407   .     D
C180   C185    1.410   .     S
C181   C182    1.397   .     S
C181   H187    1.074   .     S
C182   C183    1.395   .     D
C182   H188    1.082   .     S
C183   C184    1.395   .     S
C183   H189    1.082   .     S
C184   C185    1.398   .     D
C184   H190    1.082   .     S
C185   H191    1.083   .     S
C192   C173    1.399   1_554 D
C192   H193    1.083   .     S
