data_377
_audit_creation_date              2023-09-08
_audit_creation_method            'Materials Studio'
_symmetry_space_group_name_H-M    'P1'
_symmetry_Int_Tables_number       1
_symmetry_cell_setting            triclinic
loop_
_symmetry_equiv_pos_as_xyz
  x,y,z
_cell_length_a                    36.8970
_cell_length_b                    36.8970
_cell_length_c                    3.9001
_cell_angle_alpha                 90.0000
_cell_angle_beta                  90.0000
_cell_angle_gamma                 120.0000
loop_
_atom_site_label
_atom_site_type_symbol
_atom_site_fract_x
_atom_site_fract_y
_atom_site_fract_z
_atom_site_U_iso_or_equiv
_atom_site_adp_type
_atom_site_occupancy
C1     C     0.35743   0.64649   0.75106   0.00000  Uiso   1.00
C2     C     0.37695   0.69037   0.75574   0.00000  Uiso   1.00
C3     C     0.38296   0.62541   0.71527   0.00000  Uiso   1.00
C4     C     0.36674   0.58691   0.54091   0.00000  Uiso   1.00
C5     C     0.39030   0.56675   0.49701   0.00000  Uiso   1.00
C6     C     0.43206   0.58739   0.61735   0.00000  Uiso   1.00
C7     C     0.44843   0.62550   0.79048   0.00000  Uiso   1.00
C8     C     0.42400   0.64403   0.84432   0.00000  Uiso   1.00
N9     N     0.45628   0.56966   0.57679   0.00000  Uiso   1.00
C10    C     0.44265   0.53243   0.41570   0.00000  Uiso   1.00
C11    C     0.47122   0.51482   0.39690   0.00000  Uiso   1.00
C12    C     0.45641   0.47140   0.41775   0.00000  Uiso   1.00
C13    C     0.48542   0.45720   0.39641   0.00000  Uiso   1.00
O14    O     0.41336   0.44394   0.47790   0.00000  Uiso   1.00
C15    C     0.40024   0.40278   0.60148   0.00000  Uiso   1.00
H16    H     0.41254   0.71012   0.76350   0.00000  Uiso   1.00
H17    H     0.33370   0.57124   0.43086   0.00000  Uiso   1.00
C18    C     0.37420   0.52660   0.34205   0.00000  Uiso   1.00
H19    H     0.48201   0.64168   0.88893   0.00000  Uiso   1.00
H20    H     0.43756   0.67457   0.99456   0.00000  Uiso   1.00
C21    C     0.40181   0.51137   0.28363   0.00000  Uiso   1.00
H22    H     0.47387   0.42226   0.37819   0.00000  Uiso   1.00
H23    H     0.42540   0.40369   0.77682   0.00000  Uiso   1.00
H24    H     0.39505   0.38112   0.37541   0.00000  Uiso   1.00
H25    H     0.36979   0.39066   0.75090   0.00000  Uiso   1.00
C26    C     0.32859   0.49649   0.28753   0.00000  Uiso   1.00
C27    C     0.30244   0.50656   0.09731   0.00000  Uiso   1.00
C28    C     0.25985   0.47768   0.05910   0.00000  Uiso   1.00
C29    C     0.24297   0.43772   0.20027   0.00000  Uiso   1.00
C30    C     0.26867   0.42666   0.38040   0.00000  Uiso   1.00
C31    C     0.31108   0.45582   0.42552   0.00000  Uiso   1.00
H32    H     0.39068   0.48156   0.12701   0.00000  Uiso   1.00
H33    H     0.31592   0.53864  -0.02820   0.00000  Uiso   1.00
H34    H     0.23885   0.48676  -0.08758   0.00000  Uiso   1.00
H35    H     0.20823   0.41417   0.16833   0.00000  Uiso   1.00
H36    H     0.25509   0.39380   0.49102   0.00000  Uiso   1.00
H37    H     0.33157   0.44640   0.57594   0.00000  Uiso   1.00
C38    C     0.35351   0.71094   0.75106   0.00000  Uiso   1.00
C39    C     0.30963   0.68658   0.75574   0.00000  Uiso   1.00
C40    C     0.37459   0.75755   0.71527   0.00000  Uiso   1.00
C41    C     0.41309   0.77983   0.54091   0.00000  Uiso   1.00
C42    C     0.43325   0.82355   0.49701   0.00000  Uiso   1.00
C43    C     0.41261   0.84467   0.61735   0.00000  Uiso   1.00
C44    C     0.37450   0.82293   0.79048   0.00000  Uiso   1.00
C45    C     0.35597   0.77997   0.84432   0.00000  Uiso   1.00
N46    N     0.43034   0.88662   0.57679   0.00000  Uiso   1.00
C47    C     0.46757   0.91022   0.41570   0.00000  Uiso   1.00
C48    C     0.48518   0.95640   0.39690   0.00000  Uiso   1.00
C49    C     0.52860   0.98501   0.41775   0.00000  Uiso   1.00
C50    C     0.54280   0.02822   0.39641   0.00000  Uiso   1.00
O51    O     0.55606   0.96942   0.47790   0.00000  Uiso   1.00
C52    C     0.59722   0.99746   0.60148   0.00000  Uiso   1.00
H53    H     0.28988   0.70242   0.76350   0.00000  Uiso   1.00
H54    H     0.42876   0.76246   0.43086   0.00000  Uiso   1.00
C55    C     0.47340   0.84760   0.34205   0.00000  Uiso   1.00
H56    H     0.35832   0.84033   0.88893   0.00000  Uiso   1.00
H57    H     0.32543   0.76299   0.99456   0.00000  Uiso   1.00
C58    C     0.48863   0.89044   0.28363   0.00000  Uiso   1.00
H59    H     0.57774   0.05161   0.37819   0.00000  Uiso   1.00
H60    H     0.59631   0.02171   0.77682   0.00000  Uiso   1.00
H61    H     0.61888   0.01393   0.37541   0.00000  Uiso   1.00
H62    H     0.60934   0.97913   0.75090   0.00000  Uiso   1.00
C63    C     0.50351   0.83210   0.28753   0.00000  Uiso   1.00
C64    C     0.49344   0.79588   0.09731   0.00000  Uiso   1.00
C65    C     0.52232   0.78217   0.05910   0.00000  Uiso   1.00
C66    C     0.56228   0.80525   0.20027   0.00000  Uiso   1.00
C67    C     0.57334   0.84201   0.38040   0.00000  Uiso   1.00
C68    C     0.54418   0.85526   0.42552   0.00000  Uiso   1.00
H69    H     0.51844   0.90912   0.12701   0.00000  Uiso   1.00
H70    H     0.46136   0.77728  -0.02820   0.00000  Uiso   1.00
H71    H     0.51324   0.75209  -0.08758   0.00000  Uiso   1.00
H72    H     0.58583   0.79406   0.16833   0.00000  Uiso   1.00
H73    H     0.60620   0.86129   0.49102   0.00000  Uiso   1.00
H74    H     0.55360   0.88517   0.57594   0.00000  Uiso   1.00
C75    C     0.28906   0.64257   0.75106   0.00000  Uiso   1.00
C76    C     0.31342   0.62305   0.75574   0.00000  Uiso   1.00
C77    C     0.24245   0.61704   0.71527   0.00000  Uiso   1.00
C78    C     0.22017   0.63326   0.54091   0.00000  Uiso   1.00
C79    C     0.17645   0.60970   0.49701   0.00000  Uiso   1.00
C80    C     0.15533   0.56794   0.61735   0.00000  Uiso   1.00
C81    C     0.17707   0.55157   0.79048   0.00000  Uiso   1.00
C82    C     0.22003   0.57600   0.84432   0.00000  Uiso   1.00
N83    N     0.11338   0.54372   0.57679   0.00000  Uiso   1.00
C84    C     0.08978   0.55735   0.41570   0.00000  Uiso   1.00
C85    C     0.04360   0.52878   0.39690   0.00000  Uiso   1.00
C86    C     0.01499   0.54359   0.41775   0.00000  Uiso   1.00
C87    C     0.97178   0.51458   0.39641   0.00000  Uiso   1.00
O88    O     0.03058   0.58664   0.47790   0.00000  Uiso   1.00
C89    C     0.00254   0.59976   0.60148   0.00000  Uiso   1.00
H90    H     0.29758   0.58746   0.76350   0.00000  Uiso   1.00
H91    H     0.23754   0.66630   0.43086   0.00000  Uiso   1.00
C92    C     0.15240   0.62580   0.34205   0.00000  Uiso   1.00
H93    H     0.15967   0.51799   0.88893   0.00000  Uiso   1.00
H94    H     0.23701   0.56244   0.99456   0.00000  Uiso   1.00
C95    C     0.10956   0.59819   0.28363   0.00000  Uiso   1.00
H96    H     0.94839   0.52613   0.37819   0.00000  Uiso   1.00
H97    H     0.97829   0.57460   0.77682   0.00000  Uiso   1.00
H98    H     0.98607   0.60495   0.37541   0.00000  Uiso   1.00
H99    H     0.02087   0.63021   0.75090   0.00000  Uiso   1.00
C100   C     0.16790   0.67141   0.28753   0.00000  Uiso   1.00
C101   C     0.20412   0.69756   0.09731   0.00000  Uiso   1.00
C102   C     0.21783   0.74015   0.05910   0.00000  Uiso   1.00
C103   C     0.19475   0.75703   0.20027   0.00000  Uiso   1.00
C104   C     0.15799   0.73133   0.38040   0.00000  Uiso   1.00
C105   C     0.14474   0.68892   0.42552   0.00000  Uiso   1.00
H106   H     0.09088   0.60932   0.12701   0.00000  Uiso   1.00
H107   H     0.22272   0.68408  -0.02820   0.00000  Uiso   1.00
H108   H     0.24791   0.76115  -0.08758   0.00000  Uiso   1.00
H109   H     0.20594   0.79177   0.16833   0.00000  Uiso   1.00
H110   H     0.13871   0.74491   0.49102   0.00000  Uiso   1.00
H111   H     0.11483   0.66843   0.57594   0.00000  Uiso   1.00
C112   C     0.64257   0.35351   0.75106   0.00000  Uiso   1.00
C113   C     0.62305   0.30963   0.75574   0.00000  Uiso   1.00
C114   C     0.61704   0.37459   0.71527   0.00000  Uiso   1.00
C115   C     0.63326   0.41309   0.54091   0.00000  Uiso   1.00
C116   C     0.60970   0.43325   0.49701   0.00000  Uiso   1.00
C117   C     0.56794   0.41261   0.61735   0.00000  Uiso   1.00
C118   C     0.55157   0.37450   0.79048   0.00000  Uiso   1.00
C119   C     0.57600   0.35597   0.84432   0.00000  Uiso   1.00
N120   N     0.54372   0.43034   0.57679   0.00000  Uiso   1.00
C121   C     0.55735   0.46757   0.41570   0.00000  Uiso   1.00
C122   C     0.52878   0.48518   0.39690   0.00000  Uiso   1.00
C123   C     0.54359   0.52860   0.41775   0.00000  Uiso   1.00
C124   C     0.51458   0.54280   0.39641   0.00000  Uiso   1.00
O125   O     0.58664   0.55606   0.47790   0.00000  Uiso   1.00
C126   C     0.59976   0.59722   0.60148   0.00000  Uiso   1.00
H127   H     0.58746   0.28988   0.76350   0.00000  Uiso   1.00
H128   H     0.66630   0.42876   0.43086   0.00000  Uiso   1.00
C129   C     0.62580   0.47340   0.34205   0.00000  Uiso   1.00
H130   H     0.51799   0.35832   0.88893   0.00000  Uiso   1.00
H131   H     0.56244   0.32543   0.99456   0.00000  Uiso   1.00
C132   C     0.59819   0.48863   0.28363   0.00000  Uiso   1.00
H133   H     0.52613   0.57774   0.37819   0.00000  Uiso   1.00
H134   H     0.57460   0.59631   0.77682   0.00000  Uiso   1.00
H135   H     0.60495   0.61888   0.37541   0.00000  Uiso   1.00
H136   H     0.63021   0.60934   0.75090   0.00000  Uiso   1.00
C137   C     0.67141   0.50351   0.28753   0.00000  Uiso   1.00
C138   C     0.69756   0.49344   0.09731   0.00000  Uiso   1.00
C139   C     0.74015   0.52232   0.05910   0.00000  Uiso   1.00
C140   C     0.75703   0.56228   0.20027   0.00000  Uiso   1.00
C141   C     0.73133   0.57334   0.38040   0.00000  Uiso   1.00
C142   C     0.68892   0.54418   0.42552   0.00000  Uiso   1.00
H143   H     0.60932   0.51844   0.12701   0.00000  Uiso   1.00
H144   H     0.68408   0.46136  -0.02820   0.00000  Uiso   1.00
H145   H     0.76115   0.51324  -0.08758   0.00000  Uiso   1.00
H146   H     0.79177   0.58583   0.16833   0.00000  Uiso   1.00
H147   H     0.74491   0.60620   0.49102   0.00000  Uiso   1.00
H148   H     0.66843   0.55360   0.57594   0.00000  Uiso   1.00
C149   C     0.64649   0.28906   0.75106   0.00000  Uiso   1.00
C150   C     0.69037   0.31342   0.75574   0.00000  Uiso   1.00
C151   C     0.62541   0.24245   0.71527   0.00000  Uiso   1.00
C152   C     0.58691   0.22017   0.54091   0.00000  Uiso   1.00
C153   C     0.56675   0.17645   0.49701   0.00000  Uiso   1.00
C154   C     0.58739   0.15533   0.61735   0.00000  Uiso   1.00
C155   C     0.62550   0.17707   0.79048   0.00000  Uiso   1.00
C156   C     0.64403   0.22003   0.84432   0.00000  Uiso   1.00
N157   N     0.56966   0.11338   0.57679   0.00000  Uiso   1.00
C158   C     0.53243   0.08978   0.41570   0.00000  Uiso   1.00
C159   C     0.51482   0.04360   0.39690   0.00000  Uiso   1.00
C160   C     0.47140   0.01499   0.41775   0.00000  Uiso   1.00
C161   C     0.45720   0.97178   0.39641   0.00000  Uiso   1.00
O162   O     0.44394   0.03058   0.47790   0.00000  Uiso   1.00
C163   C     0.40278   0.00254   0.60148   0.00000  Uiso   1.00
H164   H     0.71012   0.29758   0.76350   0.00000  Uiso   1.00
H165   H     0.57124   0.23754   0.43086   0.00000  Uiso   1.00
C166   C     0.52660   0.15240   0.34205   0.00000  Uiso   1.00
H167   H     0.64168   0.15967   0.88893   0.00000  Uiso   1.00
H168   H     0.67457   0.23701   0.99456   0.00000  Uiso   1.00
C169   C     0.51137   0.10956   0.28363   0.00000  Uiso   1.00
H170   H     0.42226   0.94839   0.37819   0.00000  Uiso   1.00
H171   H     0.40369   0.97829   0.77682   0.00000  Uiso   1.00
H172   H     0.38112   0.98607   0.37541   0.00000  Uiso   1.00
H173   H     0.39066   0.02087   0.75090   0.00000  Uiso   1.00
C174   C     0.49649   0.16790   0.28753   0.00000  Uiso   1.00
C175   C     0.50656   0.20412   0.09731   0.00000  Uiso   1.00
C176   C     0.47768   0.21783   0.05910   0.00000  Uiso   1.00
C177   C     0.43772   0.19475   0.20027   0.00000  Uiso   1.00
C178   C     0.42666   0.15799   0.38040   0.00000  Uiso   1.00
C179   C     0.45582   0.14474   0.42552   0.00000  Uiso   1.00
H180   H     0.48156   0.09088   0.12701   0.00000  Uiso   1.00
H181   H     0.53864   0.22272  -0.02820   0.00000  Uiso   1.00
H182   H     0.48676   0.24791  -0.08758   0.00000  Uiso   1.00
H183   H     0.41417   0.20594   0.16833   0.00000  Uiso   1.00
H184   H     0.39380   0.13871   0.49102   0.00000  Uiso   1.00
H185   H     0.44640   0.11483   0.57594   0.00000  Uiso   1.00
C186   C     0.71094   0.35743   0.75106   0.00000  Uiso   1.00
C187   C     0.68658   0.37695   0.75574   0.00000  Uiso   1.00
C188   C     0.75755   0.38296   0.71527   0.00000  Uiso   1.00
C189   C     0.77983   0.36674   0.54091   0.00000  Uiso   1.00
C190   C     0.82355   0.39030   0.49701   0.00000  Uiso   1.00
C191   C     0.84467   0.43206   0.61735   0.00000  Uiso   1.00
C192   C     0.82293   0.44843   0.79048   0.00000  Uiso   1.00
C193   C     0.77997   0.42400   0.84432   0.00000  Uiso   1.00
N194   N     0.88662   0.45628   0.57679   0.00000  Uiso   1.00
C195   C     0.91022   0.44265   0.41570   0.00000  Uiso   1.00
C196   C     0.95640   0.47122   0.39690   0.00000  Uiso   1.00
C197   C     0.98501   0.45641   0.41775   0.00000  Uiso   1.00
C198   C     0.02822   0.48542   0.39641   0.00000  Uiso   1.00
O199   O     0.96942   0.41336   0.47790   0.00000  Uiso   1.00
C200   C     0.99746   0.40024   0.60148   0.00000  Uiso   1.00
H201   H     0.70242   0.41254   0.76350   0.00000  Uiso   1.00
H202   H     0.76246   0.33370   0.43086   0.00000  Uiso   1.00
C203   C     0.84760   0.37420   0.34205   0.00000  Uiso   1.00
H204   H     0.84033   0.48201   0.88893   0.00000  Uiso   1.00
H205   H     0.76299   0.43756   0.99456   0.00000  Uiso   1.00
C206   C     0.89044   0.40181   0.28363   0.00000  Uiso   1.00
H207   H     0.05161   0.47387   0.37819   0.00000  Uiso   1.00
H208   H     0.02171   0.42540   0.77682   0.00000  Uiso   1.00
H209   H     0.01393   0.39505   0.37541   0.00000  Uiso   1.00
H210   H     0.97913   0.36979   0.75090   0.00000  Uiso   1.00
C211   C     0.83210   0.32859   0.28753   0.00000  Uiso   1.00
C212   C     0.79588   0.30244   0.09731   0.00000  Uiso   1.00
C213   C     0.78217   0.25985   0.05910   0.00000  Uiso   1.00
C214   C     0.80525   0.24297   0.20027   0.00000  Uiso   1.00
C215   C     0.84201   0.26867   0.38040   0.00000  Uiso   1.00
C216   C     0.85526   0.31108   0.42552   0.00000  Uiso   1.00
H217   H     0.90912   0.39068   0.12701   0.00000  Uiso   1.00
H218   H     0.77728   0.31592  -0.02820   0.00000  Uiso   1.00
H219   H     0.75209   0.23885  -0.08758   0.00000  Uiso   1.00
H220   H     0.79406   0.20823   0.16833   0.00000  Uiso   1.00
H221   H     0.86129   0.25509   0.49102   0.00000  Uiso   1.00
H222   H     0.88517   0.33157   0.57594   0.00000  Uiso   1.00
loop_
_geom_bond_atom_site_label_1
_geom_bond_atom_site_label_2
_geom_bond_distance
_geom_bond_site_symmetry_2
_ccdc_geom_bond_type
C1     C2      1.405   .     S
C1     C3      1.498   .     S
C1     C76     1.407   .     D
C2     H16     1.140   .     S
C2     C38     1.407   .     D
C3     C4      1.410   .     D
C3     C8      1.406   .     S
C4     C5      1.409   .     S
C4     H17     1.140   .     S
C5     C6      1.415   .     D
C5     C18     1.426   .     S
C6     C7      1.396   .     S
C6     N9      1.355   .     S
C7     C8      1.393   .     D
C7     H19     1.140   .     S
C8     H20     1.140   .     S
N9     C10     1.358   .     D
C10    C11     1.491   .     S
C10    C21     1.403   .     S
C11    C12     1.413   .     D
C11    C124    1.405   .     S
C12    C13     1.410   .     S
C12    O14     1.413   .     S
C13    H22     1.140   .     S
C13    C122    1.405   .     D
O14    C15     1.428   .     S
C15    H23     1.140   .     S
C15    H24     1.140   .     S
C15    H25     1.140   .     S
C18    C21     1.406   .     D
C18    C26     1.497   .     S
C21    H32     1.140   .     S
C26    C27     1.406   .     D
C26    C31     1.410   .     S
C27    C28     1.397   .     S
C27    H33     1.140   .     S
C28    C29     1.395   .     D
C28    H34     1.140   .     S
C29    C30     1.395   .     S
C29    H35     1.140   .     S
C30    C31     1.398   .     D
C30    H36     1.140   .     S
C31    H37     1.140   .     S
C38    C39     1.405   .     S
C38    C40     1.498   .     S
C39    H53     1.140   .     S
C39    C75     1.407   .     D
C40    C41     1.410   .     D
C40    C45     1.406   .     S
C41    C42     1.409   .     S
C41    H54     1.140   .     S
C42    C43     1.415   .     D
C42    C55     1.426   .     S
C43    C44     1.396   .     S
C43    N46     1.355   .     S
C44    C45     1.393   .     D
C44    H56     1.140   .     S
C45    H57     1.140   .     S
N46    C47     1.358   .     D
C47    C48     1.491   .     S
C47    C58     1.403   .     S
C48    C49     1.413   .     D
C48    C161    1.405   .     S
C49    C50     1.410   1_565 S
C49    O51     1.413   .     S
C50    C49     1.410   1_545 S
C50    H59     1.140   .     S
C50    C159    1.405   .     D
O51    C52     1.428   .     S
C52    H60     1.140   1_565 S
C52    H61     1.140   1_565 S
C52    H62     1.140   .     S
C55    C58     1.406   .     D
C55    C63     1.497   .     S
C58    H69     1.140   .     S
H60    C52     1.140   1_545 S
H61    C52     1.140   1_545 S
C63    C64     1.406   .     D
C63    C68     1.410   .     S
C64    C65     1.397   .     S
C64    H70     1.140   .     S
C65    C66     1.395   .     D
C65    H71     1.140   .     S
C66    C67     1.395   .     S
C66    H72     1.140   .     S
C67    C68     1.398   .     D
C67    H73     1.140   .     S
C68    H74     1.140   .     S
C75    C76     1.405   .     S
C75    C77     1.498   .     S
C76    H90     1.140   .     S
C77    C78     1.410   .     D
C77    C82     1.406   .     S
C78    C79     1.409   .     S
C78    H91     1.140   .     S
C79    C80     1.415   .     D
C79    C92     1.426   .     S
C80    C81     1.396   .     S
C80    N83     1.355   .     S
C81    C82     1.393   .     D
C81    H93     1.140   .     S
C82    H94     1.140   .     S
N83    C84     1.358   .     D
C84    C85     1.491   .     S
C84    C95     1.403   .     S
C85    C86     1.413   .     D
C85    C198    1.405   .     S
C86    C87     1.410   1_455 S
C86    O88     1.413   .     S
C87    C86     1.410   1_655 S
C87    H96     1.140   .     S
C87    C196    1.405   .     D
O88    C89     1.428   .     S
C89    H97     1.140   1_455 S
C89    H98     1.140   1_455 S
C89    H99     1.140   .     S
C92    C95     1.406   .     D
C92    C100    1.497   .     S
C95    H106    1.140   .     S
H97    C89     1.140   1_655 S
H98    C89     1.140   1_655 S
C100   C101    1.406   .     D
C100   C105    1.410   .     S
C101   C102    1.397   .     S
C101   H107    1.140   .     S
C102   C103    1.395   .     D
C102   H108    1.140   .     S
C103   C104    1.395   .     S
C103   H109    1.140   .     S
C104   C105    1.398   .     D
C104   H110    1.140   .     S
C105   H111    1.140   .     S
C112   C113    1.405   .     S
C112   C114    1.498   .     S
C112   C187    1.407   .     D
C113   H127    1.140   .     S
C113   C149    1.407   .     D
C114   C115    1.410   .     D
C114   C119    1.406   .     S
C115   C116    1.409   .     S
C115   H128    1.140   .     S
C116   C117    1.415   .     D
C116   C129    1.426   .     S
C117   C118    1.396   .     S
C117   N120    1.355   .     S
C118   C119    1.393   .     D
C118   H130    1.140   .     S
C119   H131    1.140   .     S
N120   C121    1.358   .     D
C121   C122    1.491   .     S
C121   C132    1.403   .     S
C122   C123    1.413   .     S
C123   C124    1.410   .     D
C123   O125    1.413   .     S
C124   H133    1.140   .     S
O125   C126    1.428   .     S
C126   H134    1.140   .     S
C126   H135    1.140   .     S
C126   H136    1.140   .     S
C129   C132    1.406   .     D
C129   C137    1.497   .     S
C132   H143    1.140   .     S
C137   C138    1.406   .     D
C137   C142    1.410   .     S
C138   C139    1.397   .     S
C138   H144    1.140   .     S
C139   C140    1.395   .     D
C139   H145    1.140   .     S
C140   C141    1.395   .     S
C140   H146    1.140   .     S
C141   C142    1.398   .     D
C141   H147    1.140   .     S
C142   H148    1.140   .     S
C149   C150    1.405   .     S
C149   C151    1.498   .     S
C150   H164    1.140   .     S
C150   C186    1.407   .     D
C151   C152    1.410   .     D
C151   C156    1.406   .     S
C152   C153    1.409   .     S
C152   H165    1.140   .     S
C153   C154    1.415   .     D
C153   C166    1.426   .     S
C154   C155    1.396   .     S
C154   N157    1.355   .     S
C155   C156    1.393   .     D
C155   H167    1.140   .     S
C156   H168    1.140   .     S
N157   C158    1.358   .     D
C158   C159    1.491   .     S
C158   C169    1.403   .     S
C159   C160    1.413   .     S
C160   C161    1.410   1_545 D
C160   O162    1.413   .     S
C161   C160    1.410   1_565 D
C161   H170    1.140   .     S
O162   C163    1.428   .     S
C163   H171    1.140   1_545 S
C163   H172    1.140   1_545 S
C163   H173    1.140   .     S
C166   C169    1.406   .     D
C166   C174    1.497   .     S
C169   H180    1.140   .     S
H171   C163    1.140   1_565 S
H172   C163    1.140   1_565 S
C174   C175    1.406   .     D
C174   C179    1.410   .     S
C175   C176    1.397   .     S
C175   H181    1.140   .     S
C176   C177    1.395   .     D
C176   H182    1.140   .     S
C177   C178    1.395   .     S
C177   H183    1.140   .     S
C178   C179    1.398   .     D
C178   H184    1.140   .     S
C179   H185    1.140   .     S
C186   C187    1.405   .     S
C186   C188    1.498   .     S
C187   H201    1.140   .     S
C188   C189    1.410   .     D
C188   C193    1.406   .     S
C189   C190    1.409   .     S
C189   H202    1.140   .     S
C190   C191    1.415   .     D
C190   C203    1.426   .     S
C191   C192    1.396   .     S
C191   N194    1.355   .     S
C192   C193    1.393   .     D
C192   H204    1.140   .     S
C193   H205    1.140   .     S
N194   C195    1.358   .     D
C195   C196    1.491   .     S
C195   C206    1.403   .     S
C196   C197    1.413   .     S
C197   C198    1.410   1_655 D
C197   O199    1.413   .     S
C198   C197    1.410   1_455 D
C198   H207    1.140   .     S
O199   C200    1.428   .     S
C200   H208    1.140   1_655 S
C200   H209    1.140   1_655 S
C200   H210    1.140   .     S
C203   C206    1.406   .     D
C203   C211    1.497   .     S
C206   H217    1.140   .     S
H208   C200    1.140   1_455 S
H209   C200    1.140   1_455 S
C211   C212    1.406   .     S
C211   C216    1.410   .     D
C212   C213    1.397   .     D
C212   H218    1.140   .     S
C213   C214    1.395   .     S
C213   H219    1.140   .     S
C214   C215    1.395   .     D
C214   H220    1.140   .     S
C215   C216    1.398   .     S
C215   H221    1.140   .     S
C216   H222    1.140   .     S
