data_378
_audit_creation_date              2023-09-08
_audit_creation_method            'Materials Studio'
_symmetry_space_group_name_H-M    'P1'
_symmetry_Int_Tables_number       1
_symmetry_cell_setting            triclinic
loop_
_symmetry_equiv_pos_as_xyz
  x,y,z
_cell_length_a                    36.7868
_cell_length_b                    36.7868
_cell_length_c                    3.8660
_cell_angle_alpha                 90.0000
_cell_angle_beta                  90.0000
_cell_angle_gamma                 120.0000
loop_
_atom_site_label
_atom_site_type_symbol
_atom_site_fract_x
_atom_site_fract_y
_atom_site_fract_z
_atom_site_U_iso_or_equiv
_atom_site_adp_type
_atom_site_occupancy
C1     C     0.35747   0.64636   0.76356   0.00000  Uiso   1.00
C2     C     0.37706   0.69037   0.76918   0.00000  Uiso   1.00
C3     C     0.38305   0.62517   0.72115   0.00000  Uiso   1.00
C4     C     0.36622   0.58621   0.54975   0.00000  Uiso   1.00
C5     C     0.38992   0.56618   0.49610   0.00000  Uiso   1.00
C6     C     0.43253   0.58763   0.59851   0.00000  Uiso   1.00
C7     C     0.44945   0.62603   0.77036   0.00000  Uiso   1.00
C8     C     0.42483   0.64425   0.83830   0.00000  Uiso   1.00
N9     N     0.45719   0.57053   0.54146   0.00000  Uiso   1.00
C10    C     0.44275   0.53262   0.38671   0.00000  Uiso   1.00
C11    C     0.47164   0.51551   0.35010   0.00000  Uiso   1.00
C12    C     0.45674   0.47203   0.34736   0.00000  Uiso   1.00
C13    C     0.48479   0.45684   0.34594   0.00000  Uiso   1.00
H14    H     0.41078   0.70854   0.76663   0.00000  Uiso   1.00
H15    H     0.33481   0.57211   0.45464   0.00000  Uiso   1.00
C16    C     0.37308   0.52532   0.34978   0.00000  Uiso   1.00
H17    H     0.48165   0.64125   0.85919   0.00000  Uiso   1.00
H18    H     0.43860   0.67303   0.98651   0.00000  Uiso   1.00
C19    C     0.40051   0.50984   0.28538   0.00000  Uiso   1.00
H20    H     0.47245   0.42324   0.35079   0.00000  Uiso   1.00
C21    C     0.32713   0.49525   0.30629   0.00000  Uiso   1.00
C22    C     0.30064   0.50514   0.11618   0.00000  Uiso   1.00
C23    C     0.25772   0.47645   0.08751   0.00000  Uiso   1.00
C24    C     0.24085   0.43676   0.23737   0.00000  Uiso   1.00
C25    C     0.26689   0.42580   0.41670   0.00000  Uiso   1.00
C26    C     0.30964   0.45486   0.45291   0.00000  Uiso   1.00
H27    H     0.38847   0.47971   0.16002   0.00000  Uiso   1.00
H28    H     0.31293   0.53472  -0.01397   0.00000  Uiso   1.00
H29    H     0.23773   0.48467  -0.05841   0.00000  Uiso   1.00
H30    H     0.20768   0.41439   0.21192   0.00000  Uiso   1.00
H31    H     0.25384   0.39506   0.53388   0.00000  Uiso   1.00
H32    H     0.32903   0.44615   0.60216   0.00000  Uiso   1.00
C33    C     0.35364   0.71111   0.76356   0.00000  Uiso   1.00
C34    C     0.30963   0.68669   0.76918   0.00000  Uiso   1.00
C35    C     0.37483   0.75788   0.72115   0.00000  Uiso   1.00
C36    C     0.41379   0.78001   0.54975   0.00000  Uiso   1.00
C37    C     0.43382   0.82374   0.49610   0.00000  Uiso   1.00
C38    C     0.41237   0.84490   0.59851   0.00000  Uiso   1.00
C39    C     0.37397   0.82342   0.77036   0.00000  Uiso   1.00
C40    C     0.35575   0.78058   0.83830   0.00000  Uiso   1.00
N41    N     0.42947   0.88666   0.54146   0.00000  Uiso   1.00
C42    C     0.46738   0.91013   0.38671   0.00000  Uiso   1.00
C43    C     0.48449   0.95613   0.35010   0.00000  Uiso   1.00
C44    C     0.52797   0.98471   0.34736   0.00000  Uiso   1.00
C45    C     0.54316   0.02795   0.34594   0.00000  Uiso   1.00
H46    H     0.29146   0.70224   0.76663   0.00000  Uiso   1.00
H47    H     0.42789   0.76270   0.45464   0.00000  Uiso   1.00
C48    C     0.47468   0.84776   0.34978   0.00000  Uiso   1.00
H49    H     0.35875   0.84040   0.85919   0.00000  Uiso   1.00
H50    H     0.32697   0.76557   0.98651   0.00000  Uiso   1.00
C51    C     0.49016   0.89067   0.28538   0.00000  Uiso   1.00
H52    H     0.57676   0.04921   0.35079   0.00000  Uiso   1.00
C53    C     0.50475   0.83188   0.30629   0.00000  Uiso   1.00
C54    C     0.49486   0.79550   0.11618   0.00000  Uiso   1.00
C55    C     0.52355   0.78127   0.08751   0.00000  Uiso   1.00
C56    C     0.56324   0.80409   0.23737   0.00000  Uiso   1.00
C57    C     0.57420   0.84109   0.41670   0.00000  Uiso   1.00
C58    C     0.54514   0.85478   0.45291   0.00000  Uiso   1.00
H59    H     0.52029   0.90876   0.16002   0.00000  Uiso   1.00
H60    H     0.46528   0.77821  -0.01397   0.00000  Uiso   1.00
H61    H     0.51533   0.75306  -0.05841   0.00000  Uiso   1.00
H62    H     0.58561   0.79329   0.21192   0.00000  Uiso   1.00
H63    H     0.60494   0.85878   0.53388   0.00000  Uiso   1.00
H64    H     0.55385   0.88288   0.60216   0.00000  Uiso   1.00
C65    C     0.28889   0.64253   0.76356   0.00000  Uiso   1.00
C66    C     0.31331   0.62294   0.76918   0.00000  Uiso   1.00
C67    C     0.24212   0.61695   0.72115   0.00000  Uiso   1.00
C68    C     0.21999   0.63378   0.54975   0.00000  Uiso   1.00
C69    C     0.17626   0.61008   0.49610   0.00000  Uiso   1.00
C70    C     0.15510   0.56747   0.59851   0.00000  Uiso   1.00
C71    C     0.17658   0.55055   0.77036   0.00000  Uiso   1.00
C72    C     0.21942   0.57517   0.83830   0.00000  Uiso   1.00
N73    N     0.11334   0.54281   0.54146   0.00000  Uiso   1.00
C74    C     0.08987   0.55725   0.38671   0.00000  Uiso   1.00
C75    C     0.04387   0.52836   0.35010   0.00000  Uiso   1.00
C76    C     0.01529   0.54326   0.34736   0.00000  Uiso   1.00
C77    C     0.97205   0.51521   0.34594   0.00000  Uiso   1.00
H78    H     0.29776   0.58922   0.76663   0.00000  Uiso   1.00
H79    H     0.23730   0.66519   0.45464   0.00000  Uiso   1.00
C80    C     0.15224   0.62692   0.34978   0.00000  Uiso   1.00
H81    H     0.15960   0.51835   0.85919   0.00000  Uiso   1.00
H82    H     0.23443   0.56140   0.98651   0.00000  Uiso   1.00
C83    C     0.10933   0.59949   0.28538   0.00000  Uiso   1.00
H84    H     0.95079   0.52755   0.35079   0.00000  Uiso   1.00
C85    C     0.16812   0.67287   0.30629   0.00000  Uiso   1.00
C86    C     0.20450   0.69936   0.11618   0.00000  Uiso   1.00
C87    C     0.21873   0.74228   0.08751   0.00000  Uiso   1.00
C88    C     0.19591   0.75915   0.23737   0.00000  Uiso   1.00
C89    C     0.15891   0.73311   0.41670   0.00000  Uiso   1.00
C90    C     0.14522   0.69036   0.45291   0.00000  Uiso   1.00
H91    H     0.09124   0.61153   0.16002   0.00000  Uiso   1.00
H92    H     0.22179   0.68707  -0.01397   0.00000  Uiso   1.00
H93    H     0.24694   0.76227  -0.05841   0.00000  Uiso   1.00
H94    H     0.20671   0.79232   0.21192   0.00000  Uiso   1.00
H95    H     0.14122   0.74616   0.53388   0.00000  Uiso   1.00
H96    H     0.11712   0.67097   0.60216   0.00000  Uiso   1.00
C97    C     0.64253   0.35364   0.76356   0.00000  Uiso   1.00
C98    C     0.62294   0.30963   0.76918   0.00000  Uiso   1.00
C99    C     0.61695   0.37483   0.72115   0.00000  Uiso   1.00
C100   C     0.63378   0.41379   0.54975   0.00000  Uiso   1.00
C101   C     0.61008   0.43382   0.49610   0.00000  Uiso   1.00
C102   C     0.56747   0.41237   0.59851   0.00000  Uiso   1.00
C103   C     0.55055   0.37397   0.77036   0.00000  Uiso   1.00
C104   C     0.57517   0.35575   0.83830   0.00000  Uiso   1.00
N105   N     0.54281   0.42947   0.54146   0.00000  Uiso   1.00
C106   C     0.55725   0.46738   0.38671   0.00000  Uiso   1.00
C107   C     0.52836   0.48449   0.35010   0.00000  Uiso   1.00
C108   C     0.54326   0.52797   0.34736   0.00000  Uiso   1.00
C109   C     0.51521   0.54316   0.34594   0.00000  Uiso   1.00
H110   H     0.58922   0.29146   0.76663   0.00000  Uiso   1.00
H111   H     0.66519   0.42789   0.45464   0.00000  Uiso   1.00
C112   C     0.62692   0.47468   0.34978   0.00000  Uiso   1.00
H113   H     0.51835   0.35875   0.85919   0.00000  Uiso   1.00
H114   H     0.56140   0.32697   0.98651   0.00000  Uiso   1.00
C115   C     0.59949   0.49016   0.28538   0.00000  Uiso   1.00
H116   H     0.52755   0.57676   0.35079   0.00000  Uiso   1.00
C117   C     0.67287   0.50475   0.30629   0.00000  Uiso   1.00
C118   C     0.69936   0.49486   0.11618   0.00000  Uiso   1.00
C119   C     0.74228   0.52355   0.08751   0.00000  Uiso   1.00
C120   C     0.75915   0.56324   0.23737   0.00000  Uiso   1.00
C121   C     0.73311   0.57420   0.41670   0.00000  Uiso   1.00
C122   C     0.69036   0.54514   0.45291   0.00000  Uiso   1.00
H123   H     0.61153   0.52029   0.16002   0.00000  Uiso   1.00
H124   H     0.68707   0.46528  -0.01397   0.00000  Uiso   1.00
H125   H     0.76227   0.51533  -0.05841   0.00000  Uiso   1.00
H126   H     0.79232   0.58561   0.21192   0.00000  Uiso   1.00
H127   H     0.74616   0.60494   0.53388   0.00000  Uiso   1.00
H128   H     0.67097   0.55385   0.60216   0.00000  Uiso   1.00
C129   C     0.64636   0.28889   0.76356   0.00000  Uiso   1.00
C130   C     0.69037   0.31331   0.76918   0.00000  Uiso   1.00
C131   C     0.62517   0.24212   0.72115   0.00000  Uiso   1.00
C132   C     0.58621   0.21999   0.54975   0.00000  Uiso   1.00
C133   C     0.56618   0.17626   0.49610   0.00000  Uiso   1.00
C134   C     0.58763   0.15510   0.59851   0.00000  Uiso   1.00
C135   C     0.62603   0.17658   0.77036   0.00000  Uiso   1.00
C136   C     0.64425   0.21942   0.83830   0.00000  Uiso   1.00
N137   N     0.57053   0.11334   0.54146   0.00000  Uiso   1.00
C138   C     0.53262   0.08987   0.38671   0.00000  Uiso   1.00
C139   C     0.51551   0.04387   0.35010   0.00000  Uiso   1.00
C140   C     0.47203   0.01529   0.34736   0.00000  Uiso   1.00
C141   C     0.45684   0.97205   0.34594   0.00000  Uiso   1.00
H142   H     0.70854   0.29776   0.76663   0.00000  Uiso   1.00
H143   H     0.57211   0.23730   0.45464   0.00000  Uiso   1.00
C144   C     0.52532   0.15224   0.34978   0.00000  Uiso   1.00
H145   H     0.64125   0.15960   0.85919   0.00000  Uiso   1.00
H146   H     0.67303   0.23443   0.98651   0.00000  Uiso   1.00
C147   C     0.50984   0.10933   0.28538   0.00000  Uiso   1.00
H148   H     0.42324   0.95079   0.35079   0.00000  Uiso   1.00
C149   C     0.49525   0.16812   0.30629   0.00000  Uiso   1.00
C150   C     0.50514   0.20450   0.11618   0.00000  Uiso   1.00
C151   C     0.47645   0.21873   0.08751   0.00000  Uiso   1.00
C152   C     0.43676   0.19591   0.23737   0.00000  Uiso   1.00
C153   C     0.42580   0.15891   0.41670   0.00000  Uiso   1.00
C154   C     0.45486   0.14522   0.45291   0.00000  Uiso   1.00
H155   H     0.47971   0.09124   0.16002   0.00000  Uiso   1.00
H156   H     0.53472   0.22179  -0.01397   0.00000  Uiso   1.00
H157   H     0.48467   0.24694  -0.05841   0.00000  Uiso   1.00
H158   H     0.41439   0.20671   0.21192   0.00000  Uiso   1.00
H159   H     0.39506   0.14122   0.53388   0.00000  Uiso   1.00
H160   H     0.44615   0.11712   0.60216   0.00000  Uiso   1.00
C161   C     0.71111   0.35747   0.76356   0.00000  Uiso   1.00
C162   C     0.68669   0.37706   0.76918   0.00000  Uiso   1.00
C163   C     0.75788   0.38305   0.72115   0.00000  Uiso   1.00
C164   C     0.78001   0.36622   0.54975   0.00000  Uiso   1.00
C165   C     0.82374   0.38992   0.49610   0.00000  Uiso   1.00
C166   C     0.84490   0.43253   0.59851   0.00000  Uiso   1.00
C167   C     0.82342   0.44945   0.77036   0.00000  Uiso   1.00
C168   C     0.78058   0.42483   0.83830   0.00000  Uiso   1.00
N169   N     0.88666   0.45719   0.54146   0.00000  Uiso   1.00
C170   C     0.91013   0.44275   0.38671   0.00000  Uiso   1.00
C171   C     0.95613   0.47164   0.35010   0.00000  Uiso   1.00
C172   C     0.98471   0.45674   0.34736   0.00000  Uiso   1.00
C173   C     0.02795   0.48479   0.34594   0.00000  Uiso   1.00
H174   H     0.70224   0.41078   0.76663   0.00000  Uiso   1.00
H175   H     0.76270   0.33481   0.45464   0.00000  Uiso   1.00
C176   C     0.84776   0.37308   0.34978   0.00000  Uiso   1.00
H177   H     0.84040   0.48165   0.85919   0.00000  Uiso   1.00
H178   H     0.76557   0.43860   0.98651   0.00000  Uiso   1.00
C179   C     0.89067   0.40051   0.28538   0.00000  Uiso   1.00
H180   H     0.04921   0.47245   0.35079   0.00000  Uiso   1.00
C181   C     0.83188   0.32713   0.30629   0.00000  Uiso   1.00
C182   C     0.79550   0.30064   0.11618   0.00000  Uiso   1.00
C183   C     0.78127   0.25772   0.08751   0.00000  Uiso   1.00
C184   C     0.80409   0.24085   0.23737   0.00000  Uiso   1.00
C185   C     0.84109   0.26689   0.41670   0.00000  Uiso   1.00
C186   C     0.85478   0.30964   0.45291   0.00000  Uiso   1.00
H187   H     0.90876   0.38847   0.16002   0.00000  Uiso   1.00
H188   H     0.77821   0.31293  -0.01397   0.00000  Uiso   1.00
H189   H     0.75306   0.23773  -0.05841   0.00000  Uiso   1.00
H190   H     0.79329   0.20768   0.21192   0.00000  Uiso   1.00
H191   H     0.85878   0.25384   0.53388   0.00000  Uiso   1.00
H192   H     0.88288   0.32903   0.60216   0.00000  Uiso   1.00
loop_
_geom_bond_atom_site_label_1
_geom_bond_atom_site_label_2
_geom_bond_distance
_geom_bond_site_symmetry_2
_ccdc_geom_bond_type
C1     C2      1.405   .     S
C1     C3      1.501   .     S
C1     C66     1.408   .     D
C2     H14     1.075   .     S
C2     C33     1.408   .     D
C3     C4      1.410   .     D
C3     C8      1.408   .     S
C4     C5      1.410   .     S
C4     H15     1.068   .     S
C5     C6      1.414   .     D
C5     C16     1.425   .     S
C6     C7      1.395   .     S
C6     N9      1.356   .     S
C7     C8      1.395   .     D
C7     H17     1.082   .     S
C8     H18     1.081   .     S
N9     C10     1.358   .     D
C10    C11     1.488   .     S
C10    C19     1.403   .     S
C11    C12     1.408   .     D
C11    C109    1.405   .     S
C12    C13     1.398   .     D
C13    H20     1.083   .     S
C13    C107    1.405   .     S
C16    C19     1.407   .     D
C16    C21     1.496   .     S
C19    H27     1.081   .     S
C21    C22     1.406   .     D
C21    C26     1.410   .     S
C22    C23     1.397   .     S
C22    H28     1.072   .     S
C23    C24     1.395   .     D
C23    H29     1.083   .     S
C24    C25     1.395   .     S
C24    H30     1.082   .     S
C25    C26     1.398   .     D
C25    H31     1.082   .     S
C26    H32     1.083   .     S
C33    C34     1.405   .     S
C33    C35     1.501   .     S
C34    H46     1.075   .     S
C34    C65     1.408   .     D
C35    C36     1.410   .     D
C35    C40     1.408   .     S
C36    C37     1.410   .     S
C36    H47     1.068   .     S
C37    C38     1.414   .     D
C37    C48     1.425   .     S
C38    C39     1.395   .     S
C38    N41     1.356   .     S
C39    C40     1.395   .     D
C39    H49     1.082   .     S
C40    H50     1.081   .     S
N41    C42     1.358   .     D
C42    C43     1.488   .     S
C42    C51     1.403   .     S
C43    C44     1.408   .     D
C43    C141    1.405   .     S
C44    C45     1.398   1_565 D
C45    C44     1.398   1_545 D
C45    H52     1.083   .     S
C45    C139    1.405   .     S
C48    C51     1.407   .     D
C48    C53     1.496   .     S
C51    H59     1.081   .     S
C53    C54     1.406   .     D
C53    C58     1.410   .     S
C54    C55     1.397   .     S
C54    H60     1.072   .     S
C55    C56     1.395   .     D
C55    H61     1.083   .     S
C56    C57     1.395   .     S
C56    H62     1.082   .     S
C57    C58     1.398   .     D
C57    H63     1.082   .     S
C58    H64     1.083   .     S
C65    C66     1.405   .     S
C65    C67     1.501   .     S
C66    H78     1.075   .     S
C67    C68     1.410   .     D
C67    C72     1.408   .     S
C68    C69     1.410   .     S
C68    H79     1.068   .     S
C69    C70     1.414   .     D
C69    C80     1.425   .     S
C70    C71     1.395   .     S
C70    N73     1.356   .     S
C71    C72     1.395   .     D
C71    H81     1.082   .     S
C72    H82     1.081   .     S
N73    C74     1.358   .     D
C74    C75     1.488   .     S
C74    C83     1.403   .     S
C75    C76     1.408   .     D
C75    C173    1.405   .     S
C76    C77     1.398   1_455 D
C77    C76     1.398   1_655 D
C77    H84     1.083   .     S
C77    C171    1.405   .     S
C80    C83     1.407   .     D
C80    C85     1.496   .     S
C83    H91     1.081   .     S
C85    C86     1.406   .     D
C85    C90     1.410   .     S
C86    C87     1.397   .     S
C86    H92     1.072   .     S
C87    C88     1.395   .     D
C87    H93     1.083   .     S
C88    C89     1.395   .     S
C88    H94     1.082   .     S
C89    C90     1.398   .     D
C89    H95     1.082   .     S
C90    H96     1.083   .     S
C97    C98     1.405   .     S
C97    C99     1.501   .     S
C97    C162    1.408   .     D
C98    H110    1.075   .     S
C98    C129    1.408   .     D
C99    C100    1.410   .     D
C99    C104    1.408   .     S
C100   C101    1.410   .     S
C100   H111    1.068   .     S
C101   C102    1.414   .     D
C101   C112    1.425   .     S
C102   C103    1.395   .     S
C102   N105    1.356   .     S
C103   C104    1.395   .     D
C103   H113    1.082   .     S
C104   H114    1.081   .     S
N105   C106    1.358   .     D
C106   C107    1.488   .     S
C106   C115    1.403   .     S
C107   C108    1.408   .     D
C108   C109    1.398   .     D
C109   H116    1.083   .     S
C112   C115    1.407   .     D
C112   C117    1.496   .     S
C115   H123    1.081   .     S
C117   C118    1.406   .     D
C117   C122    1.410   .     S
C118   C119    1.397   .     S
C118   H124    1.072   .     S
C119   C120    1.395   .     D
C119   H125    1.083   .     S
C120   C121    1.395   .     S
C120   H126    1.082   .     S
C121   C122    1.398   .     D
C121   H127    1.082   .     S
C122   H128    1.083   .     S
C129   C130    1.405   .     S
C129   C131    1.501   .     S
C130   H142    1.075   .     S
C130   C161    1.408   .     D
C131   C132    1.410   .     D
C131   C136    1.408   .     S
C132   C133    1.410   .     S
C132   H143    1.068   .     S
C133   C134    1.414   .     D
C133   C144    1.425   .     S
C134   C135    1.395   .     S
C134   N137    1.356   .     S
C135   C136    1.395   .     D
C135   H145    1.082   .     S
C136   H146    1.081   .     S
N137   C138    1.358   .     D
C138   C139    1.488   .     S
C138   C147    1.403   .     S
C139   C140    1.408   .     D
C140   C141    1.398   1_545 D
C141   C140    1.398   1_565 D
C141   H148    1.083   .     S
C144   C147    1.407   .     D
C144   C149    1.496   .     S
C147   H155    1.081   .     S
C149   C150    1.406   .     D
C149   C154    1.410   .     S
C150   C151    1.397   .     S
C150   H156    1.072   .     S
C151   C152    1.395   .     D
C151   H157    1.083   .     S
C152   C153    1.395   .     S
C152   H158    1.082   .     S
C153   C154    1.398   .     D
C153   H159    1.082   .     S
C154   H160    1.083   .     S
C161   C162    1.405   .     S
C161   C163    1.501   .     S
C162   H174    1.075   .     S
C163   C164    1.410   .     D
C163   C168    1.408   .     S
C164   C165    1.410   .     S
C164   H175    1.068   .     S
C165   C166    1.414   .     D
C165   C176    1.425   .     S
C166   C167    1.395   .     S
C166   N169    1.356   .     S
C167   C168    1.395   .     D
C167   H177    1.082   .     S
C168   H178    1.081   .     S
N169   C170    1.358   .     D
C170   C171    1.488   .     S
C170   C179    1.403   .     S
C171   C172    1.408   .     D
C172   C173    1.398   1_655 D
C173   C172    1.398   1_455 D
C173   H180    1.083   .     S
C176   C179    1.407   .     D
C176   C181    1.496   .     S
C179   H187    1.081   .     S
C181   C182    1.406   .     S
C181   C186    1.410   .     D
C182   C183    1.397   .     D
C182   H188    1.072   .     S
C183   C184    1.395   .     S
C183   H189    1.083   .     S
C184   C185    1.395   .     D
C184   H190    1.082   .     S
C185   C186    1.398   .     S
C185   H191    1.082   .     S
C186   H192    1.083   .     S
