data_379
_audit_creation_date              2023-09-08
_audit_creation_method            'Materials Studio'
_symmetry_space_group_name_H-M    'P1'
_symmetry_Int_Tables_number       1
_symmetry_cell_setting            triclinic
loop_
_symmetry_equiv_pos_as_xyz
  x,y,z
_cell_length_a                    36.7274
_cell_length_b                    36.7274
_cell_length_c                    3.8437
_cell_angle_alpha                 90.0000
_cell_angle_beta                  90.0000
_cell_angle_gamma                 120.0000
loop_
_atom_site_label
_atom_site_type_symbol
_atom_site_fract_x
_atom_site_fract_y
_atom_site_fract_z
_atom_site_U_iso_or_equiv
_atom_site_adp_type
_atom_site_occupancy
C1     C     0.35712   0.64782   0.70295   0.00000  Uiso   1.00
C2     C     0.37570   0.69028   0.70223   0.00000  Uiso   1.00
C3     C     0.38297   0.62736   0.67121   0.00000  Uiso   1.00
C4     C     0.36483   0.58595   0.54586   0.00000  Uiso   1.00
C5     C     0.38919   0.56658   0.49046   0.00000  Uiso   1.00
C6     C     0.43248   0.58958   0.57648   0.00000  Uiso   1.00
C7     C     0.45038   0.63043   0.70747   0.00000  Uiso   1.00
C8     C     0.42598   0.64944   0.75152   0.00000  Uiso   1.00
N9     N     0.45696   0.57183   0.54162   0.00000  Uiso   1.00
C10    C     0.44228   0.53257   0.41077   0.00000  Uiso   1.00
C11    C     0.47109   0.51491   0.40097   0.00000  Uiso   1.00
C12    C     0.45624   0.47130   0.42540   0.00000  Uiso   1.00
C13    C     0.48525   0.45701   0.40472   0.00000  Uiso   1.00
O14    O     0.41295   0.44332   0.48174   0.00000  Uiso   1.00
C15    C     0.40038   0.40379   0.64546   0.00000  Uiso   1.00
H16    H     0.33175   0.56978   0.49078   0.00000  Uiso   1.00
C17    C     0.37256   0.52508   0.35679   0.00000  Uiso   1.00
H18    H     0.48339   0.64734   0.77546   0.00000  Uiso   1.00
H19    H     0.44047   0.68126   0.85153   0.00000  Uiso   1.00
C20    C     0.40046   0.51001   0.29639   0.00000  Uiso   1.00
H21    H     0.47396   0.42368   0.40037   0.00000  Uiso   1.00
H22    H     0.41916   0.40811   0.88388   0.00000  Uiso   1.00
H23    H     0.40310   0.38176   0.46423   0.00000  Uiso   1.00
H24    H     0.36692   0.38935   0.72478   0.00000  Uiso   1.00
C25    C     0.32669   0.49452   0.31047   0.00000  Uiso   1.00
C26    C     0.29978   0.50442   0.12471   0.00000  Uiso   1.00
C27    C     0.25701   0.47507   0.09035   0.00000  Uiso   1.00
C28    C     0.24069   0.43492   0.23193   0.00000  Uiso   1.00
C29    C     0.26714   0.42409   0.40833   0.00000  Uiso   1.00
C30    C     0.30976   0.45368   0.44901   0.00000  Uiso   1.00
H31    H     0.38903   0.48022   0.16537   0.00000  Uiso   1.00
H32    H     0.31164   0.53461   0.00366   0.00000  Uiso   1.00
H33    H     0.23670   0.48323  -0.05278   0.00000  Uiso   1.00
H34    H     0.20765   0.41209   0.20239   0.00000  Uiso   1.00
H35    H     0.25451   0.39298   0.51907   0.00000  Uiso   1.00
H36    H     0.32952   0.44495   0.59463   0.00000  Uiso   1.00
C37    C     0.35218   0.70930   0.70295   0.00000  Uiso   1.00
C38    C     0.30972   0.68542   0.70223   0.00000  Uiso   1.00
C39    C     0.37264   0.75561   0.67121   0.00000  Uiso   1.00
C40    C     0.41405   0.77888   0.54586   0.00000  Uiso   1.00
C41    C     0.43342   0.82261   0.49046   0.00000  Uiso   1.00
C42    C     0.41042   0.84290   0.57648   0.00000  Uiso   1.00
C43    C     0.36957   0.81995   0.70747   0.00000  Uiso   1.00
C44    C     0.35056   0.77654   0.75152   0.00000  Uiso   1.00
N45    N     0.42817   0.88513   0.54162   0.00000  Uiso   1.00
C46    C     0.46743   0.90971   0.41077   0.00000  Uiso   1.00
C47    C     0.48509   0.95618   0.40097   0.00000  Uiso   1.00
C48    C     0.52870   0.98494   0.42540   0.00000  Uiso   1.00
C49    C     0.54299   0.02824   0.40472   0.00000  Uiso   1.00
O50    O     0.55668   0.96963   0.48174   0.00000  Uiso   1.00
C51    C     0.59621   0.99659   0.64546   0.00000  Uiso   1.00
H52    H     0.43022   0.76197   0.49078   0.00000  Uiso   1.00
C53    C     0.47492   0.84748   0.35679   0.00000  Uiso   1.00
H54    H     0.35266   0.83605   0.77546   0.00000  Uiso   1.00
H55    H     0.31874   0.75921   0.85153   0.00000  Uiso   1.00
C56    C     0.48999   0.89045   0.29639   0.00000  Uiso   1.00
H57    H     0.57632   0.05028   0.40037   0.00000  Uiso   1.00
H58    H     0.59189   0.01105   0.88388   0.00000  Uiso   1.00
H59    H     0.61824   0.02134   0.46423   0.00000  Uiso   1.00
H60    H     0.61065   0.97757   0.72478   0.00000  Uiso   1.00
C61    C     0.50548   0.83217   0.31047   0.00000  Uiso   1.00
C62    C     0.49558   0.79536   0.12471   0.00000  Uiso   1.00
C63    C     0.52493   0.78194   0.09035   0.00000  Uiso   1.00
C64    C     0.56508   0.80577   0.23193   0.00000  Uiso   1.00
C65    C     0.57591   0.84305   0.40833   0.00000  Uiso   1.00
C66    C     0.54632   0.85608   0.44901   0.00000  Uiso   1.00
H67    H     0.51978   0.90881   0.16537   0.00000  Uiso   1.00
H68    H     0.46539   0.77703   0.00366   0.00000  Uiso   1.00
H69    H     0.51677   0.75347  -0.05278   0.00000  Uiso   1.00
H70    H     0.58791   0.79556   0.20239   0.00000  Uiso   1.00
H71    H     0.60702   0.86153   0.51907   0.00000  Uiso   1.00
H72    H     0.55505   0.88457   0.59463   0.00000  Uiso   1.00
C73    C     0.29070   0.64288   0.70295   0.00000  Uiso   1.00
C74    C     0.31458   0.62430   0.70223   0.00000  Uiso   1.00
C75    C     0.24439   0.61703   0.67121   0.00000  Uiso   1.00
C76    C     0.22112   0.63517   0.54586   0.00000  Uiso   1.00
C77    C     0.17739   0.61081   0.49046   0.00000  Uiso   1.00
C78    C     0.15710   0.56752   0.57648   0.00000  Uiso   1.00
C79    C     0.18005   0.54962   0.70747   0.00000  Uiso   1.00
C80    C     0.22346   0.57402   0.75152   0.00000  Uiso   1.00
N81    N     0.11487   0.54304   0.54162   0.00000  Uiso   1.00
C82    C     0.09029   0.55772   0.41077   0.00000  Uiso   1.00
C83    C     0.04382   0.52891   0.40097   0.00000  Uiso   1.00
C84    C     0.01506   0.54376   0.42540   0.00000  Uiso   1.00
C85    C     0.97176   0.51475   0.40472   0.00000  Uiso   1.00
O86    O     0.03037   0.58705   0.48174   0.00000  Uiso   1.00
C87    C     0.00341   0.59962   0.64546   0.00000  Uiso   1.00
H88    H     0.23803   0.66825   0.49078   0.00000  Uiso   1.00
C89    C     0.15252   0.62744   0.35679   0.00000  Uiso   1.00
H90    H     0.16395   0.51661   0.77546   0.00000  Uiso   1.00
H91    H     0.24079   0.55953   0.85153   0.00000  Uiso   1.00
C92    C     0.10955   0.59954   0.29639   0.00000  Uiso   1.00
H93    H     0.94972   0.52604   0.40037   0.00000  Uiso   1.00
H94    H     0.98895   0.58084   0.88388   0.00000  Uiso   1.00
H95    H     0.97866   0.59690   0.46423   0.00000  Uiso   1.00
H96    H     0.02243   0.63308   0.72478   0.00000  Uiso   1.00
C97    C     0.16783   0.67331   0.31047   0.00000  Uiso   1.00
C98    C     0.20464   0.70022   0.12471   0.00000  Uiso   1.00
C99    C     0.21806   0.74299   0.09035   0.00000  Uiso   1.00
C100   C     0.19423   0.75931   0.23193   0.00000  Uiso   1.00
C101   C     0.15695   0.73286   0.40833   0.00000  Uiso   1.00
C102   C     0.14392   0.69024   0.44901   0.00000  Uiso   1.00
H103   H     0.09119   0.61097   0.16537   0.00000  Uiso   1.00
H104   H     0.22297   0.68836   0.00366   0.00000  Uiso   1.00
H105   H     0.24653   0.76330  -0.05278   0.00000  Uiso   1.00
H106   H     0.20444   0.79235   0.20239   0.00000  Uiso   1.00
H107   H     0.13847   0.74549   0.51907   0.00000  Uiso   1.00
H108   H     0.11543   0.67048   0.59463   0.00000  Uiso   1.00
C109   C     0.64288   0.35218   0.70295   0.00000  Uiso   1.00
C110   C     0.62430   0.30972   0.70223   0.00000  Uiso   1.00
C111   C     0.61703   0.37264   0.67121   0.00000  Uiso   1.00
C112   C     0.63517   0.41405   0.54586   0.00000  Uiso   1.00
C113   C     0.61081   0.43342   0.49046   0.00000  Uiso   1.00
C114   C     0.56752   0.41042   0.57648   0.00000  Uiso   1.00
C115   C     0.54962   0.36957   0.70747   0.00000  Uiso   1.00
C116   C     0.57402   0.35056   0.75152   0.00000  Uiso   1.00
N117   N     0.54304   0.42817   0.54162   0.00000  Uiso   1.00
C118   C     0.55772   0.46743   0.41077   0.00000  Uiso   1.00
C119   C     0.52891   0.48509   0.40097   0.00000  Uiso   1.00
C120   C     0.54376   0.52870   0.42540   0.00000  Uiso   1.00
C121   C     0.51475   0.54299   0.40472   0.00000  Uiso   1.00
O122   O     0.58705   0.55668   0.48174   0.00000  Uiso   1.00
C123   C     0.59962   0.59621   0.64546   0.00000  Uiso   1.00
H124   H     0.66825   0.43022   0.49078   0.00000  Uiso   1.00
C125   C     0.62744   0.47492   0.35679   0.00000  Uiso   1.00
H126   H     0.51661   0.35266   0.77546   0.00000  Uiso   1.00
H127   H     0.55953   0.31874   0.85153   0.00000  Uiso   1.00
C128   C     0.59954   0.48999   0.29639   0.00000  Uiso   1.00
H129   H     0.52604   0.57632   0.40037   0.00000  Uiso   1.00
H130   H     0.58084   0.59189   0.88388   0.00000  Uiso   1.00
H131   H     0.59690   0.61824   0.46423   0.00000  Uiso   1.00
H132   H     0.63308   0.61065   0.72478   0.00000  Uiso   1.00
C133   C     0.67331   0.50548   0.31047   0.00000  Uiso   1.00
C134   C     0.70022   0.49558   0.12471   0.00000  Uiso   1.00
C135   C     0.74299   0.52493   0.09035   0.00000  Uiso   1.00
C136   C     0.75931   0.56508   0.23193   0.00000  Uiso   1.00
C137   C     0.73286   0.57591   0.40833   0.00000  Uiso   1.00
C138   C     0.69024   0.54632   0.44901   0.00000  Uiso   1.00
H139   H     0.61097   0.51978   0.16537   0.00000  Uiso   1.00
H140   H     0.68836   0.46539   0.00366   0.00000  Uiso   1.00
H141   H     0.76330   0.51677  -0.05278   0.00000  Uiso   1.00
H142   H     0.79235   0.58791   0.20239   0.00000  Uiso   1.00
H143   H     0.74549   0.60702   0.51907   0.00000  Uiso   1.00
H144   H     0.67048   0.55505   0.59463   0.00000  Uiso   1.00
C145   C     0.64782   0.29070   0.70295   0.00000  Uiso   1.00
C146   C     0.69028   0.31458   0.70223   0.00000  Uiso   1.00
C147   C     0.62736   0.24439   0.67121   0.00000  Uiso   1.00
C148   C     0.58595   0.22112   0.54586   0.00000  Uiso   1.00
C149   C     0.56658   0.17739   0.49046   0.00000  Uiso   1.00
C150   C     0.58958   0.15710   0.57648   0.00000  Uiso   1.00
C151   C     0.63043   0.18005   0.70747   0.00000  Uiso   1.00
C152   C     0.64944   0.22346   0.75152   0.00000  Uiso   1.00
N153   N     0.57183   0.11487   0.54162   0.00000  Uiso   1.00
C154   C     0.53257   0.09029   0.41077   0.00000  Uiso   1.00
C155   C     0.51491   0.04382   0.40097   0.00000  Uiso   1.00
C156   C     0.47130   0.01506   0.42540   0.00000  Uiso   1.00
C157   C     0.45701   0.97176   0.40472   0.00000  Uiso   1.00
O158   O     0.44332   0.03037   0.48174   0.00000  Uiso   1.00
C159   C     0.40379   0.00341   0.64546   0.00000  Uiso   1.00
H160   H     0.56978   0.23803   0.49078   0.00000  Uiso   1.00
C161   C     0.52508   0.15252   0.35679   0.00000  Uiso   1.00
H162   H     0.64734   0.16395   0.77546   0.00000  Uiso   1.00
H163   H     0.68126   0.24079   0.85153   0.00000  Uiso   1.00
C164   C     0.51001   0.10955   0.29639   0.00000  Uiso   1.00
H165   H     0.42368   0.94972   0.40037   0.00000  Uiso   1.00
H166   H     0.40811   0.98895   0.88388   0.00000  Uiso   1.00
H167   H     0.38176   0.97866   0.46423   0.00000  Uiso   1.00
H168   H     0.38935   0.02243   0.72478   0.00000  Uiso   1.00
C169   C     0.49452   0.16783   0.31047   0.00000  Uiso   1.00
C170   C     0.50442   0.20464   0.12471   0.00000  Uiso   1.00
C171   C     0.47507   0.21806   0.09035   0.00000  Uiso   1.00
C172   C     0.43492   0.19423   0.23193   0.00000  Uiso   1.00
C173   C     0.42409   0.15695   0.40833   0.00000  Uiso   1.00
C174   C     0.45368   0.14392   0.44901   0.00000  Uiso   1.00
H175   H     0.48022   0.09119   0.16537   0.00000  Uiso   1.00
H176   H     0.53461   0.22297   0.00366   0.00000  Uiso   1.00
H177   H     0.48323   0.24653  -0.05278   0.00000  Uiso   1.00
H178   H     0.41209   0.20444   0.20239   0.00000  Uiso   1.00
H179   H     0.39298   0.13847   0.51907   0.00000  Uiso   1.00
H180   H     0.44495   0.11543   0.59463   0.00000  Uiso   1.00
C181   C     0.70930   0.35712   0.70295   0.00000  Uiso   1.00
C182   C     0.68542   0.37570   0.70223   0.00000  Uiso   1.00
C183   C     0.75561   0.38297   0.67121   0.00000  Uiso   1.00
C184   C     0.77888   0.36483   0.54586   0.00000  Uiso   1.00
C185   C     0.82261   0.38919   0.49046   0.00000  Uiso   1.00
C186   C     0.84290   0.43248   0.57648   0.00000  Uiso   1.00
C187   C     0.81995   0.45038   0.70747   0.00000  Uiso   1.00
C188   C     0.77654   0.42598   0.75152   0.00000  Uiso   1.00
N189   N     0.88513   0.45696   0.54162   0.00000  Uiso   1.00
C190   C     0.90971   0.44228   0.41077   0.00000  Uiso   1.00
C191   C     0.95618   0.47109   0.40097   0.00000  Uiso   1.00
C192   C     0.98494   0.45624   0.42540   0.00000  Uiso   1.00
C193   C     0.02824   0.48525   0.40472   0.00000  Uiso   1.00
O194   O     0.96963   0.41295   0.48174   0.00000  Uiso   1.00
C195   C     0.99659   0.40038   0.64546   0.00000  Uiso   1.00
H196   H     0.76197   0.33175   0.49078   0.00000  Uiso   1.00
C197   C     0.84748   0.37256   0.35679   0.00000  Uiso   1.00
H198   H     0.83605   0.48339   0.77546   0.00000  Uiso   1.00
H199   H     0.75921   0.44047   0.85153   0.00000  Uiso   1.00
C200   C     0.89045   0.40046   0.29639   0.00000  Uiso   1.00
H201   H     0.05028   0.47396   0.40037   0.00000  Uiso   1.00
H202   H     0.01105   0.41916   0.88388   0.00000  Uiso   1.00
H203   H     0.02134   0.40310   0.46423   0.00000  Uiso   1.00
H204   H     0.97757   0.36692   0.72478   0.00000  Uiso   1.00
C205   C     0.83217   0.32669   0.31047   0.00000  Uiso   1.00
C206   C     0.79536   0.29978   0.12471   0.00000  Uiso   1.00
C207   C     0.78194   0.25701   0.09035   0.00000  Uiso   1.00
C208   C     0.80577   0.24069   0.23193   0.00000  Uiso   1.00
C209   C     0.84305   0.26714   0.40833   0.00000  Uiso   1.00
C210   C     0.85608   0.30976   0.44901   0.00000  Uiso   1.00
H211   H     0.90881   0.38903   0.16537   0.00000  Uiso   1.00
H212   H     0.77703   0.31164   0.00366   0.00000  Uiso   1.00
H213   H     0.75347   0.23670  -0.05278   0.00000  Uiso   1.00
H214   H     0.79556   0.20765   0.20239   0.00000  Uiso   1.00
H215   H     0.86153   0.25451   0.51907   0.00000  Uiso   1.00
H216   H     0.88457   0.32952   0.59463   0.00000  Uiso   1.00
loop_
_geom_bond_atom_site_label_1
_geom_bond_atom_site_label_2
_geom_bond_distance
_geom_bond_site_symmetry_2
_ccdc_geom_bond_type
C1     C2      1.354   .     S
C1     C3      1.481   .     S
C1     C74     1.356   .     D
C2     C37     1.356   .     S
C3     C4      1.406   .     D
C3     C8      1.403   .     S
C4     C5      1.410   .     S
C4     H16     1.073   .     S
C5     C6      1.417   .     D
C5     C17     1.425   .     S
C6     C7      1.397   .     S
C6     N9      1.356   .     S
C7     C8      1.395   .     D
C7     H18     1.082   .     S
C8     H19     1.084   .     S
N9     C10     1.358   .     D
C10    C11     1.493   .     S
C10    C20     1.402   .     S
C11    C12     1.414   .     D
C11    C121    1.408   .     S
C12    C13     1.406   .     S
C12    O14     1.413   .     S
C13    H21     1.078   .     S
C13    C119    1.408   .     D
O14    C15     1.431   .     S
C15    H22     1.110   .     S
C15    H23     1.109   .     S
C15    H24     1.110   .     S
C17    C20     1.406   .     D
C17    C25     1.496   .     S
C20    H31     1.081   .     S
C25    C26     1.406   .     D
C25    C30     1.410   .     S
C26    C27     1.398   .     S
C26    H32     1.074   .     S
C27    C28     1.395   .     D
C27    H33     1.083   .     S
C28    C29     1.396   .     S
C28    H34     1.082   .     S
C29    C30     1.398   .     D
C29    H35     1.083   .     S
C30    H36     1.084   .     S
C37    C38     1.354   .     D
C37    C39     1.481   .     S
C38    C73     1.356   .     D
C39    C40     1.406   .     D
C39    C44     1.403   .     S
C40    C41     1.410   .     S
C40    H52     1.073   .     S
C41    C42     1.417   .     D
C41    C53     1.425   .     S
C42    C43     1.397   .     S
C42    N45     1.356   .     S
C43    C44     1.395   .     D
C43    H54     1.082   .     S
C44    H55     1.084   .     S
N45    C46     1.358   .     D
C46    C47     1.493   .     S
C46    C56     1.402   .     S
C47    C48     1.414   .     D
C47    C157    1.408   .     S
C48    C49     1.406   1_565 S
C48    O50     1.413   .     S
C49    C48     1.406   1_545 S
C49    H57     1.078   .     S
C49    C155    1.408   .     D
O50    C51     1.431   .     S
C51    H58     1.110   1_565 S
C51    H59     1.109   1_565 S
C51    H60     1.110   .     S
C53    C56     1.406   .     D
C53    C61     1.496   .     S
C56    H67     1.081   .     S
H58    C51     1.110   1_545 S
H59    C51     1.109   1_545 S
C61    C62     1.406   .     D
C61    C66     1.410   .     S
C62    C63     1.398   .     S
C62    H68     1.074   .     S
C63    C64     1.395   .     D
C63    H69     1.083   .     S
C64    C65     1.396   .     S
C64    H70     1.082   .     S
C65    C66     1.398   .     D
C65    H71     1.083   .     S
C66    H72     1.084   .     S
C73    C74     1.354   .     S
C73    C75     1.481   .     S
C75    C76     1.406   .     D
C75    C80     1.403   .     S
C76    C77     1.410   .     S
C76    H88     1.073   .     S
C77    C78     1.417   .     D
C77    C89     1.425   .     S
C78    C79     1.397   .     S
C78    N81     1.356   .     S
C79    C80     1.395   .     D
C79    H90     1.082   .     S
C80    H91     1.084   .     S
N81    C82     1.358   .     D
C82    C83     1.493   .     S
C82    C92     1.402   .     S
C83    C84     1.414   .     D
C83    C193    1.408   .     S
C84    C85     1.406   1_455 S
C84    O86     1.413   .     S
C85    C84     1.406   1_655 S
C85    H93     1.078   .     S
C85    C191    1.408   .     D
O86    C87     1.431   .     S
C87    H94     1.110   1_455 S
C87    H95     1.109   1_455 S
C87    H96     1.110   .     S
C89    C92     1.406   .     D
C89    C97     1.496   .     S
C92    H103    1.081   .     S
H94    C87     1.110   1_655 S
H95    C87     1.109   1_655 S
C97    C98     1.406   .     D
C97    C102    1.410   .     S
C98    C99     1.398   .     S
C98    H104    1.074   .     S
C99    C100    1.395   .     D
C99    H105    1.083   .     S
C100   C101    1.396   .     S
C100   H106    1.082   .     S
C101   C102    1.398   .     D
C101   H107    1.083   .     S
C102   H108    1.084   .     S
C109   C110    1.354   .     S
C109   C111    1.481   .     S
C109   C182    1.356   .     D
C110   C145    1.356   .     S
C111   C112    1.406   .     D
C111   C116    1.403   .     S
C112   C113    1.410   .     S
C112   H124    1.073   .     S
C113   C114    1.417   .     D
C113   C125    1.425   .     S
C114   C115    1.397   .     S
C114   N117    1.356   .     S
C115   C116    1.395   .     D
C115   H126    1.082   .     S
C116   H127    1.084   .     S
N117   C118    1.358   .     D
C118   C119    1.493   .     S
C118   C128    1.402   .     S
C119   C120    1.414   .     S
C120   C121    1.406   .     D
C120   O122    1.413   .     S
C121   H129    1.078   .     S
O122   C123    1.431   .     S
C123   H130    1.110   .     S
C123   H131    1.109   .     S
C123   H132    1.110   .     S
C125   C128    1.406   .     D
C125   C133    1.496   .     S
C128   H139    1.081   .     S
C133   C134    1.406   .     D
C133   C138    1.410   .     S
C134   C135    1.398   .     S
C134   H140    1.074   .     S
C135   C136    1.395   .     D
C135   H141    1.083   .     S
C136   C137    1.396   .     S
C136   H142    1.082   .     S
C137   C138    1.398   .     D
C137   H143    1.083   .     S
C138   H144    1.084   .     S
C145   C146    1.354   .     D
C145   C147    1.481   .     S
C146   C181    1.356   .     D
C147   C148    1.406   .     D
C147   C152    1.403   .     S
C148   C149    1.410   .     S
C148   H160    1.073   .     S
C149   C150    1.417   .     D
C149   C161    1.425   .     S
C150   C151    1.397   .     S
C150   N153    1.356   .     S
C151   C152    1.395   .     D
C151   H162    1.082   .     S
C152   H163    1.084   .     S
N153   C154    1.358   .     D
C154   C155    1.493   .     S
C154   C164    1.402   .     S
C155   C156    1.414   .     S
C156   C157    1.406   1_545 D
C156   O158    1.413   .     S
C157   C156    1.406   1_565 D
C157   H165    1.078   .     S
O158   C159    1.431   .     S
C159   H166    1.110   1_545 S
C159   H167    1.109   1_545 S
C159   H168    1.110   .     S
C161   C164    1.406   .     D
C161   C169    1.496   .     S
C164   H175    1.081   .     S
H166   C159    1.110   1_565 S
H167   C159    1.109   1_565 S
C169   C170    1.406   .     D
C169   C174    1.410   .     S
C170   C171    1.398   .     S
C170   H176    1.074   .     S
C171   C172    1.395   .     D
C171   H177    1.083   .     S
C172   C173    1.396   .     S
C172   H178    1.082   .     S
C173   C174    1.398   .     D
C173   H179    1.083   .     S
C174   H180    1.084   .     S
C181   C182    1.354   .     S
C181   C183    1.481   .     S
C183   C184    1.406   .     D
C183   C188    1.403   .     S
C184   C185    1.410   .     S
C184   H196    1.073   .     S
C185   C186    1.417   .     D
C185   C197    1.425   .     S
C186   C187    1.397   .     S
C186   N189    1.356   .     S
C187   C188    1.395   .     D
C187   H198    1.082   .     S
C188   H199    1.084   .     S
N189   C190    1.358   .     D
C190   C191    1.493   .     S
C190   C200    1.402   .     S
C191   C192    1.414   .     S
C192   C193    1.406   1_655 D
C192   O194    1.413   .     S
C193   C192    1.406   1_455 D
C193   H201    1.078   .     S
O194   C195    1.431   .     S
C195   H202    1.110   1_655 S
C195   H203    1.109   1_655 S
C195   H204    1.110   .     S
C197   C200    1.406   .     D
C197   C205    1.496   .     S
C200   H211    1.081   .     S
H202   C195    1.110   1_455 S
H203   C195    1.109   1_455 S
C205   C206    1.406   .     S
C205   C210    1.410   .     D
C206   C207    1.398   .     D
C206   H212    1.074   .     S
C207   C208    1.395   .     S
C207   H213    1.083   .     S
C208   C209    1.396   .     D
C208   H214    1.082   .     S
C209   C210    1.398   .     S
C209   H215    1.083   .     S
C210   H216    1.084   .     S
