data_38
_audit_creation_date              2023-09-08
_audit_creation_method            'Materials Studio'
_symmetry_space_group_name_H-M    'P1'
_symmetry_Int_Tables_number       1
_symmetry_cell_setting            triclinic
loop_
_symmetry_equiv_pos_as_xyz
  x,y,z
_cell_length_a                    19.8210
_cell_length_b                    19.8210
_cell_length_c                    3.4000
_cell_angle_alpha                 90.0000
_cell_angle_beta                  90.0000
_cell_angle_gamma                 120.0000
loop_
_atom_site_label
_atom_site_type_symbol
_atom_site_fract_x
_atom_site_fract_y
_atom_site_fract_z
_atom_site_U_iso_or_equiv
_atom_site_adp_type
_atom_site_occupancy
C1     C     0.41491   0.70865   0.00000   0.00000  Uiso   1.00
C2     C     0.29135   0.70626   0.00000   0.00000  Uiso   1.00
C3     C     0.29374   0.58509   0.00000   0.00000  Uiso   1.00
C4     C     0.58509   0.29135   0.00000   0.00000  Uiso   1.00
C5     C     0.70865   0.29374   0.00000   0.00000  Uiso   1.00
C6     C     0.70626   0.41491   0.00000   0.00000  Uiso   1.00
H7     H     0.47483   0.73949   0.00000   0.00000  Uiso   1.00
H8     H     0.26051   0.73534   0.00000   0.00000  Uiso   1.00
H9     H     0.26466   0.52517   0.00000   0.00000  Uiso   1.00
H10    H     0.52517   0.26051   0.00000   0.00000  Uiso   1.00
H11    H     0.73949   0.26466   0.00000   0.00000  Uiso   1.00
H12    H     0.73534   0.47483   0.00000   0.00000  Uiso   1.00
C13    C     0.37428   0.62811   0.00000   0.00000  Uiso   1.00
C14    C     0.37189   0.74617   0.00000   0.00000  Uiso   1.00
C15    C     0.25383   0.62572   0.00000   0.00000  Uiso   1.00
C16    C     0.62572   0.37189   0.00000   0.00000  Uiso   1.00
C17    C     0.62811   0.25383   0.00000   0.00000  Uiso   1.00
C18    C     0.74617   0.37428   0.00000   0.00000  Uiso   1.00
C19    C     0.41405   0.58929   0.00000   0.00000  Uiso   1.00
C20    C     0.41071   0.82475   0.00000   0.00000  Uiso   1.00
C21    C     0.17525   0.58596   0.00000   0.00000  Uiso   1.00
C22    C     0.58596   0.41071   0.00000   0.00000  Uiso   1.00
C23    C     0.58929   0.17525   0.00000   0.00000  Uiso   1.00
C24    C     0.82475   0.41405   0.00000   0.00000  Uiso   1.00
N25    N     0.49171   0.62733   0.00000   0.00000  Uiso   1.00
N26    N     0.37267   0.86438   0.00000   0.00000  Uiso   1.00
N27    N     0.13562   0.50828   0.00000   0.00000  Uiso   1.00
N28    N     0.50828   0.37267   0.00000   0.00000  Uiso   1.00
N29    N     0.62733   0.13562   0.00000   0.00000  Uiso   1.00
N30    N     0.86438   0.49172   0.00000   0.00000  Uiso   1.00
C31    C     0.50335   0.56884   0.00000   0.00000  Uiso   1.00
C32    C     0.43116   0.93451   0.00000   0.00000  Uiso   1.00
C33    C     0.06549   0.49665   0.00000   0.00000  Uiso   1.00
C34    C     0.49665   0.43116   0.00000   0.00000  Uiso   1.00
C35    C     0.56884   0.06549   0.00000   0.00000  Uiso   1.00
C36    C     0.93451   0.50335   0.00000   0.00000  Uiso   1.00
C37    C     0.57532   0.57436   0.00000   0.00000  Uiso   1.00
C38    C     0.42564   0.00096   0.00000   0.00000  Uiso   1.00
C39    C     0.99904   0.42468   0.00000   0.00000  Uiso   1.00
C40    C     0.42468   0.42564   0.00000   0.00000  Uiso   1.00
C41    C     0.57436   0.99904   0.00000   0.00000  Uiso   1.00
C42    C     0.00096   0.57532   0.00000   0.00000  Uiso   1.00
H43    H     0.62737   0.62518   0.00000   0.00000  Uiso   1.00
H44    H     0.37483   0.00219   0.00000   0.00000  Uiso   1.00
H45    H     0.99781   0.37263   0.00000   0.00000  Uiso   1.00
H46    H     0.37263   0.37483   0.00000   0.00000  Uiso   1.00
H47    H     0.62518   0.99781   0.00000   0.00000  Uiso   1.00
H48    H     0.00219   0.62737   0.00000   0.00000  Uiso   1.00
C49    C     0.56787   0.50169   0.00000   0.00000  Uiso   1.00
C50    C     0.49831   0.06618   0.00000   0.00000  Uiso   1.00
C51    C     0.93382   0.43213   0.00000   0.00000  Uiso   1.00
C52    C     0.43213   0.49831   0.00000   0.00000  Uiso   1.00
C53    C     0.50169   0.93382   0.00000   0.00000  Uiso   1.00
C54    C     0.06618   0.56787   0.00000   0.00000  Uiso   1.00
O55    O     0.62587   0.48888   0.00000   0.00000  Uiso   1.00
O56    O     0.51112   0.13699   0.00000   0.00000  Uiso   1.00
O57    O     0.86301   0.37413   0.00000   0.00000  Uiso   1.00
O58    O     0.37413   0.51112   0.00000   0.00000  Uiso   1.00
O59    O     0.48888   0.86301   0.00000   0.00000  Uiso   1.00
O60    O     0.13699   0.62587   0.00000   0.00000  Uiso   1.00
loop_
_geom_bond_atom_site_label_1
_geom_bond_atom_site_label_2
_geom_bond_distance
_geom_bond_site_symmetry_2
_ccdc_geom_bond_type
C1     H7      1.029   .     S
C1     C13     1.382   .     D
C1     C14     1.384   .     S
C2     H8      1.029   .     S
C2     C14     1.382   .     D
C2     C15     1.384   .     S
C3     H9      1.029   .     S
C3     C13     1.384   .     S
C3     C15     1.382   .     D
C4     H10     1.029   .     S
C4     C16     1.382   .     D
C4     C17     1.384   .     S
C5     H11     1.029   .     S
C5     C17     1.382   .     D
C5     C18     1.384   .     S
C6     H12     1.029   .     S
C6     C16     1.384   .     S
C6     C18     1.382   .     D
C13    C19     1.349   .     S
C14    C20     1.349   .     S
C15    C21     1.349   .     S
C16    C22     1.349   .     S
C17    C23     1.349   .     S
C18    C24     1.349   .     S
C19    N25     1.333   .     D
C19    O58     1.342   .     S
C20    N26     1.333   .     D
C20    O59     1.342   .     S
C21    N27     1.333   .     D
C21    O60     1.342   .     S
C22    N28     1.333   .     D
C22    O55     1.342   .     S
C23    N29     1.333   .     D
C23    O56     1.342   .     S
C24    N30     1.333   .     D
C24    O57     1.342   .     S
N25    C31     1.290   .     S
N26    C32     1.290   .     S
N27    C33     1.290   .     S
N28    C34     1.290   .     S
N29    C35     1.290   .     S
N30    C36     1.290   .     S
C31    C37     1.375   .     D
C31    C52     1.405   .     S
C32    C38     1.375   1_565 D
C32    C53     1.405   .     S
C33    C39     1.375   1_455 S
C33    C54     1.405   .     D
C34    C40     1.375   .     S
C34    C49     1.405   .     D
C35    C41     1.375   1_545 S
C35    C50     1.405   .     D
C36    C42     1.375   1_655 D
C36    C51     1.405   .     S
C37    H43     1.020   .     S
C37    C49     1.373   .     S
C38    C32     1.375   1_545 D
C38    H44     1.020   .     S
C38    C50     1.373   .     S
C39    C33     1.375   1_655 S
C39    H45     1.020   .     S
C39    C51     1.373   .     D
C40    H46     1.020   .     S
C40    C52     1.373   .     D
C41    C35     1.375   1_565 S
C41    H47     1.020   .     S
C41    C53     1.373   .     D
C42    C36     1.375   1_455 D
C42    H48     1.020   .     S
C42    C54     1.373   .     S
C49    O55     1.295   .     S
C50    O56     1.295   .     S
C51    O57     1.295   .     S
C52    O58     1.295   .     S
C53    O59     1.295   .     S
C54    O60     1.295   .     S
