data_380
_audit_creation_date              2023-09-08
_audit_creation_method            'Materials Studio'
_symmetry_space_group_name_H-M    'P1'
_symmetry_Int_Tables_number       1
_symmetry_cell_setting            triclinic
loop_
_symmetry_equiv_pos_as_xyz
  x,y,z
_cell_length_a                    25.2500
_cell_length_b                    25.2500
_cell_length_c                    4.0279
_cell_angle_alpha                 90.0000
_cell_angle_beta                  90.0000
_cell_angle_gamma                 90.0000
loop_
_atom_site_label
_atom_site_type_symbol
_atom_site_fract_x
_atom_site_fract_y
_atom_site_fract_z
_atom_site_U_iso_or_equiv
_atom_site_adp_type
_atom_site_occupancy
N1     N     0.05548   0.05625  -0.00673   0.00000  Uiso   1.00
C2     C     0.04693   0.10834  -0.06539   0.00000  Uiso   1.00
C3     C     0.09321   0.13269  -0.16779   0.00000  Uiso   1.00
C4     C     0.22237   0.03993   0.17926   0.00000  Uiso   1.00
C5     C     0.27740   0.04070   0.17699   0.00000  Uiso   1.00
C6     C     0.38875   0.04461  -0.10182   0.00000  Uiso   1.00
C7     C     0.44374   0.04483  -0.10168   0.00000  Uiso   1.00
H8     H     0.17252   0.10274  -0.21976   0.00000  Uiso   1.00
H9     H     0.20174   0.06991   0.31708   0.00000  Uiso   1.00
H10    H     0.29831   0.07094   0.31529   0.00000  Uiso   1.00
H11    H     0.36775   0.07890  -0.19604   0.00000  Uiso   1.00
H12    H     0.46477   0.07899  -0.19694   0.00000  Uiso   1.00
C13    C     0.13511   0.00094   0.00019   0.00000  Uiso   1.00
C14    C     0.19427   0.00135   0.00048   0.00000  Uiso   1.00
C15    C     0.30534   0.00158   0.00516   0.00000  Uiso   1.00
N16    N     0.36176   0.00135   0.01020   0.00000  Uiso   1.00
C17    C     0.47102   0.00038   0.01569   0.00000  Uiso   1.00
C18    C     0.44267   0.95655   0.13160   0.00000  Uiso   1.00
C19    C     0.38772   0.95774   0.12619   0.00000  Uiso   1.00
C20    C     0.27791   0.96245  -0.16987   0.00000  Uiso   1.00
C21    C     0.22291   0.96303  -0.17707   0.00000  Uiso   1.00
C22    C     0.89231   0.95157  -0.06507   0.00000  Uiso   1.00
C23    C     0.86859   0.90497  -0.16741   0.00000  Uiso   1.00
H24    H     0.10036   0.17388  -0.22067   0.00000  Uiso   1.00
H25    H     0.46286   0.92196   0.22793   0.00000  Uiso   1.00
H26    H     0.36590   0.92376   0.21707   0.00000  Uiso   1.00
H27    H     0.29922   0.93215  -0.30515   0.00000  Uiso   1.00
H28    H     0.20270   0.93291  -0.31626   0.00000  Uiso   1.00
Cl29   Cl    0.59185   0.16645   0.68279   0.00000  Uiso   1.00
N30    N     0.94452   0.94375  -0.00673   0.00000  Uiso   1.00
C31    C     0.95307   0.89166  -0.06539   0.00000  Uiso   1.00
C32    C     0.90679   0.86731  -0.16779   0.00000  Uiso   1.00
C33    C     0.77763   0.96007   0.17926   0.00000  Uiso   1.00
C34    C     0.72260   0.95930   0.17699   0.00000  Uiso   1.00
C35    C     0.61125   0.95539  -0.10182   0.00000  Uiso   1.00
C36    C     0.55626   0.95517  -0.10168   0.00000  Uiso   1.00
H37    H     0.82748   0.89726  -0.21976   0.00000  Uiso   1.00
H38    H     0.79826   0.93009   0.31708   0.00000  Uiso   1.00
H39    H     0.70169   0.92906   0.31529   0.00000  Uiso   1.00
H40    H     0.63225   0.92110  -0.19604   0.00000  Uiso   1.00
H41    H     0.53523   0.92101  -0.19694   0.00000  Uiso   1.00
C42    C     0.86489   0.99906   0.00019   0.00000  Uiso   1.00
C43    C     0.80573   0.99865   0.00048   0.00000  Uiso   1.00
C44    C     0.69466   0.99842   0.00516   0.00000  Uiso   1.00
N45    N     0.63824   0.99865   0.01020   0.00000  Uiso   1.00
C46    C     0.52898   0.99962   0.01569   0.00000  Uiso   1.00
C47    C     0.55733   0.04345   0.13160   0.00000  Uiso   1.00
C48    C     0.61228   0.04226   0.12619   0.00000  Uiso   1.00
C49    C     0.72209   0.03755  -0.16987   0.00000  Uiso   1.00
C50    C     0.77709   0.03697  -0.17707   0.00000  Uiso   1.00
C51    C     0.10769   0.04843  -0.06507   0.00000  Uiso   1.00
C52    C     0.13141   0.09503  -0.16741   0.00000  Uiso   1.00
H53    H     0.89964   0.82612  -0.22067   0.00000  Uiso   1.00
H54    H     0.53714   0.07804   0.22793   0.00000  Uiso   1.00
H55    H     0.63410   0.07624   0.21707   0.00000  Uiso   1.00
H56    H     0.70078   0.06785  -0.30515   0.00000  Uiso   1.00
H57    H     0.79730   0.06709  -0.31626   0.00000  Uiso   1.00
Cl58   Cl    0.40815   0.83355   0.68279   0.00000  Uiso   1.00
N59    N     0.05625   0.94452   0.00673   0.00000  Uiso   1.00
C60    C     0.10834   0.95307   0.06539   0.00000  Uiso   1.00
C61    C     0.13269   0.90679   0.16779   0.00000  Uiso   1.00
C62    C     0.03993   0.77763  -0.17926   0.00000  Uiso   1.00
C63    C     0.04070   0.72260  -0.17699   0.00000  Uiso   1.00
C64    C     0.04461   0.61125   0.10182   0.00000  Uiso   1.00
C65    C     0.04483   0.55626   0.10168   0.00000  Uiso   1.00
H66    H     0.10274   0.82748   0.21976   0.00000  Uiso   1.00
H67    H     0.06991   0.79826  -0.31708   0.00000  Uiso   1.00
H68    H     0.07094   0.70169  -0.31529   0.00000  Uiso   1.00
H69    H     0.07890   0.63225   0.19604   0.00000  Uiso   1.00
H70    H     0.07899   0.53523   0.19694   0.00000  Uiso   1.00
C71    C     0.00094   0.86489  -0.00019   0.00000  Uiso   1.00
C72    C     0.00135   0.80573  -0.00048   0.00000  Uiso   1.00
C73    C     0.00158   0.69466  -0.00516   0.00000  Uiso   1.00
N74    N     0.00135   0.63824  -0.01020   0.00000  Uiso   1.00
C75    C     0.00038   0.52898  -0.01569   0.00000  Uiso   1.00
C76    C     0.95655   0.55733  -0.13160   0.00000  Uiso   1.00
C77    C     0.95774   0.61228  -0.12619   0.00000  Uiso   1.00
C78    C     0.96245   0.72209   0.16987   0.00000  Uiso   1.00
C79    C     0.96303   0.77709   0.17707   0.00000  Uiso   1.00
C80    C     0.95157   0.10769   0.06507   0.00000  Uiso   1.00
C81    C     0.90497   0.13141   0.16741   0.00000  Uiso   1.00
H82    H     0.17388   0.89964   0.22067   0.00000  Uiso   1.00
H83    H     0.92196   0.53714  -0.22793   0.00000  Uiso   1.00
H84    H     0.92376   0.63410  -0.21707   0.00000  Uiso   1.00
H85    H     0.93215   0.70078   0.30515   0.00000  Uiso   1.00
H86    H     0.93291   0.79730   0.31626   0.00000  Uiso   1.00
Cl87   Cl    0.16645   0.40815   0.31721   0.00000  Uiso   1.00
N88    N     0.94375   0.05548   0.00673   0.00000  Uiso   1.00
C89    C     0.89166   0.04693   0.06539   0.00000  Uiso   1.00
C90    C     0.86731   0.09321   0.16779   0.00000  Uiso   1.00
C91    C     0.96007   0.22237  -0.17926   0.00000  Uiso   1.00
C92    C     0.95930   0.27740  -0.17699   0.00000  Uiso   1.00
C93    C     0.95539   0.38875   0.10182   0.00000  Uiso   1.00
C94    C     0.95517   0.44374   0.10168   0.00000  Uiso   1.00
H95    H     0.89726   0.17252   0.21976   0.00000  Uiso   1.00
H96    H     0.93009   0.20174  -0.31708   0.00000  Uiso   1.00
H97    H     0.92906   0.29831  -0.31529   0.00000  Uiso   1.00
H98    H     0.92110   0.36775   0.19604   0.00000  Uiso   1.00
H99    H     0.92101   0.46477   0.19694   0.00000  Uiso   1.00
C100   C     0.99906   0.13511  -0.00019   0.00000  Uiso   1.00
C101   C     0.99865   0.19427  -0.00048   0.00000  Uiso   1.00
C102   C     0.99842   0.30534  -0.00516   0.00000  Uiso   1.00
N103   N     0.99865   0.36176  -0.01020   0.00000  Uiso   1.00
C104   C     0.99962   0.47102  -0.01569   0.00000  Uiso   1.00
C105   C     0.04345   0.44267  -0.13160   0.00000  Uiso   1.00
C106   C     0.04226   0.38772  -0.12619   0.00000  Uiso   1.00
C107   C     0.03755   0.27791   0.16987   0.00000  Uiso   1.00
C108   C     0.03697   0.22291   0.17707   0.00000  Uiso   1.00
C109   C     0.04843   0.89231   0.06507   0.00000  Uiso   1.00
C110   C     0.09503   0.86859   0.16741   0.00000  Uiso   1.00
H111   H     0.82612   0.10036   0.22067   0.00000  Uiso   1.00
H112   H     0.07804   0.46286  -0.22793   0.00000  Uiso   1.00
H113   H     0.07624   0.36590  -0.21707   0.00000  Uiso   1.00
H114   H     0.06785   0.29922   0.30515   0.00000  Uiso   1.00
H115   H     0.06709   0.20270   0.31626   0.00000  Uiso   1.00
Cl116  Cl    0.83355   0.59185   0.31721   0.00000  Uiso   1.00
loop_
_geom_bond_atom_site_label_1
_geom_bond_atom_site_label_2
_geom_bond_distance
_geom_bond_site_symmetry_2
_ccdc_geom_bond_type
N1     C2      1.354   .     D
N1     C51     1.354   .     S
C2     C3      1.383   .     S
C2     C100    1.410   1_455 S
C3     H24     1.077   .     S
C3     C52     1.354   .     D
C4     C5      1.390   .     S
C4     H9      1.074   .     S
C4     C14     1.404   .     D
C5     H10     1.083   .     S
C5     C15     1.397   .     D
C6     C7      1.389   .     D
C6     H11     1.084   .     S
C6     N16     1.364   .     S
C7     H12     1.083   .     S
C7     C17     1.399   .     S
H8     C52     1.077   .     S
C13    C14     1.494   .     S
C13    C51     1.409   .     D
C13    C60     1.410   1_545 S
C14    C21     1.404   1_545 S
C15    N16     1.425   .     S
C15    C20     1.397   1_545 S
N16    C19     1.364   1_545 S
C17    C18     1.398   1_545 S
C17    C46     1.464   1_545 D
C18    C17     1.398   1_565 S
C18    C19     1.388   .     D
C18    H25     1.083   .     S
C19    N16     1.364   1_565 S
C19    H26     1.083   .     S
C20    C15     1.397   1_565 S
C20    C21     1.389   .     D
C20    H27     1.082   .     S
C21    C14     1.404   1_565 S
C21    H28     1.074   .     S
C22    C23     1.383   .     S
C22    N30     1.354   .     S
C22    C42     1.409   .     D
C23    C32     1.354   .     D
C23    H37     1.077   .     S
N30    C31     1.354   .     D
C31    C32     1.383   .     S
C31    C71     1.410   1_655 S
C32    H53     1.077   .     S
C33    C34     1.390   .     D
C33    H38     1.074   .     S
C33    C43     1.404   .     S
C34    H39     1.083   .     S
C34    C44     1.397   .     S
C35    C36     1.389   .     D
C35    H40     1.084   .     S
C35    N45     1.364   .     S
C36    H41     1.083   .     S
C36    C46     1.399   .     S
C42    C43     1.494   .     S
C42    C89     1.410   1_565 S
C43    C50     1.404   1_565 D
C44    N45     1.425   .     S
C44    C49     1.397   1_565 D
N45    C48     1.364   1_565 S
C46    C17     1.464   1_565 D
C46    C47     1.398   1_565 S
C47    C46     1.398   1_545 S
C47    C48     1.388   .     D
C47    H54     1.083   .     S
C48    N45     1.364   1_545 S
C48    H55     1.083   .     S
C49    C44     1.397   1_545 D
C49    C50     1.389   .     S
C49    H56     1.082   .     S
C50    C43     1.404   1_545 D
C50    H57     1.074   .     S
C51    C52     1.383   .     S
N59    C60     1.354   .     D
N59    C109    1.354   .     S
C60    C13     1.410   1_565 S
C60    C61     1.383   .     S
C61    H82     1.077   .     S
C61    C110    1.354   .     D
C62    C63     1.390   .     D
C62    H67     1.074   .     S
C62    C72     1.404   .     S
C63    H68     1.083   .     S
C63    C73     1.397   .     S
C64    C65     1.389   .     D
C64    H69     1.084   .     S
C64    N74     1.364   .     S
C65    H70     1.083   .     S
C65    C75     1.399   .     S
H66    C110    1.077   .     S
C71    C31     1.410   1_455 S
C71    C72     1.494   .     S
C71    C109    1.409   .     D
C72    C79     1.404   1_455 D
C73    N74     1.425   .     S
C73    C78     1.397   1_455 D
N74    C77     1.364   1_455 S
C75    C76     1.398   1_455 S
C75    C104    1.464   1_455 D
C76    C75     1.398   1_655 S
C76    C77     1.388   .     D
C76    H83     1.083   .     S
C77    N74     1.364   1_655 S
C77    H84     1.083   .     S
C78    C73     1.397   1_655 D
C78    C79     1.389   .     S
C78    H85     1.082   .     S
C79    C72     1.404   1_655 D
C79    H86     1.074   .     S
C80    C81     1.383   .     S
C80    N88     1.354   .     S
C80    C100    1.409   .     D
C81    C90     1.354   .     D
C81    H95     1.077   .     S
N88    C89     1.354   .     D
C89    C42     1.410   1_545 S
C89    C90     1.383   .     S
C90    H111    1.077   .     S
C91    C92     1.390   .     S
C91    H96     1.074   .     S
C91    C101    1.404   .     D
C92    H97     1.083   .     S
C92    C102    1.397   .     D
C93    C94     1.389   .     D
C93    H98     1.084   .     S
C93    N103    1.364   .     S
C94    H99     1.083   .     S
C94    C104    1.399   .     S
C100   C2      1.410   1_655 S
C100   C101    1.494   .     S
C101   C108    1.404   1_655 S
C102   N103    1.425   .     S
C102   C107    1.397   1_655 S
N103   C106    1.364   1_655 S
C104   C75     1.464   1_655 D
C104   C105    1.398   1_655 S
C105   C104    1.398   1_455 S
C105   C106    1.388   .     D
C105   H112    1.083   .     S
C106   N103    1.364   1_455 S
C106   H113    1.083   .     S
C107   C102    1.397   1_455 S
C107   C108    1.389   .     D
C107   H114    1.082   .     S
C108   C101    1.404   1_455 S
C108   H115    1.074   .     S
C109   C110    1.383   .     S
