data_382
_audit_creation_date              2023-09-08
_audit_creation_method            'Materials Studio'
_symmetry_space_group_name_H-M    'P1'
_symmetry_Int_Tables_number       1
_symmetry_cell_setting            triclinic
loop_
_symmetry_equiv_pos_as_xyz
  x,y,z
_cell_length_a                    33.3000
_cell_length_b                    34.3000
_cell_length_c                    3.8800
_cell_angle_alpha                 90.0000
_cell_angle_beta                  76.0000
_cell_angle_gamma                 90.0000
loop_
_atom_site_label
_atom_site_type_symbol
_atom_site_fract_x
_atom_site_fract_y
_atom_site_fract_z
_atom_site_U_iso_or_equiv
_atom_site_adp_type
_atom_site_occupancy
C1     C     0.54039   0.53588   0.07124   0.00000  Uiso   1.00
C2     C     0.48064   0.57071  -0.03692   0.00000  Uiso   1.00
C3     C     0.41906   0.53578  -0.12927   0.00000  Uiso   1.00
C4     C     0.39312   0.56868  -0.10938   0.00000  Uiso   1.00
C5     C     0.35311   0.56798   0.12439   0.00000  Uiso   1.00
C6     C     0.32632   0.59991   0.14858   0.00000  Uiso   1.00
C7     C     0.33974   0.63332  -0.05732   0.00000  Uiso   1.00
C8     C     0.37918   0.63467  -0.28847   0.00000  Uiso   1.00
C9     C     0.40534   0.60242  -0.31562   0.00000  Uiso   1.00
H10    H     0.46840   0.59735  -0.06131   0.00000  Uiso   1.00
H11    H     0.34320   0.54425   0.28211   0.00000  Uiso   1.00
H12    H     0.29765   0.59876   0.31769   0.00000  Uiso   1.00
H13    H     0.38883   0.65893  -0.43960   0.00000  Uiso   1.00
H14    H     0.43347   0.60413  -0.48677   0.00000  Uiso   1.00
C15    C     0.23486   0.78713  -0.06401   0.00000  Uiso   1.00
C16    C     0.20884   0.75963   0.15622   0.00000  Uiso   1.00
C17    C     0.22377   0.72289   0.22037   0.00000  Uiso   1.00
H18    H     0.17864   0.76610   0.27394   0.00000  Uiso   1.00
H19    H     0.20424   0.70375   0.38181   0.00000  Uiso   1.00
C20    C     0.22044   0.82404  -0.12894   0.00000  Uiso   1.00
N21    N     0.18250   0.83433   0.05540   0.00000  Uiso   1.00
H22    H     0.76164   0.15751   0.30986   0.00000  Uiso   1.00
C23    C     0.04039   0.03588   0.07124   0.00000  Uiso   1.00
C24    C     0.98064   0.07071  -0.03692   0.00000  Uiso   1.00
C25    C     0.91906   0.03578  -0.12927   0.00000  Uiso   1.00
C26    C     0.89312   0.06868  -0.10938   0.00000  Uiso   1.00
C27    C     0.85311   0.06798   0.12439   0.00000  Uiso   1.00
C28    C     0.82632   0.09991   0.14858   0.00000  Uiso   1.00
C29    C     0.83974   0.13332  -0.05732   0.00000  Uiso   1.00
C30    C     0.87918   0.13467  -0.28847   0.00000  Uiso   1.00
C31    C     0.90534   0.10242  -0.31562   0.00000  Uiso   1.00
H32    H     0.96840   0.09735  -0.06131   0.00000  Uiso   1.00
H33    H     0.84320   0.04425   0.28211   0.00000  Uiso   1.00
H34    H     0.79765   0.09876   0.31769   0.00000  Uiso   1.00
H35    H     0.88883   0.15893  -0.43960   0.00000  Uiso   1.00
H36    H     0.93346   0.10413  -0.48677   0.00000  Uiso   1.00
C37    C     0.73486   0.28713  -0.06401   0.00000  Uiso   1.00
C38    C     0.70884   0.25963   0.15622   0.00000  Uiso   1.00
C39    C     0.72377   0.22289   0.22037   0.00000  Uiso   1.00
H40    H     0.67864   0.26610   0.27394   0.00000  Uiso   1.00
H41    H     0.70424   0.20375   0.38181   0.00000  Uiso   1.00
C42    C     0.72044   0.32404  -0.12894   0.00000  Uiso   1.00
N43    N     0.68250   0.33433   0.05540   0.00000  Uiso   1.00
H44    H     0.26164   0.65751   0.30986   0.00000  Uiso   1.00
C45    C     0.45961   0.53588  -0.07124   0.00000  Uiso   1.00
C46    C     0.51936   0.57071   0.03692   0.00000  Uiso   1.00
C47    C     0.58094   0.53578   0.12927   0.00000  Uiso   1.00
C48    C     0.60688   0.56868   0.10939   0.00000  Uiso   1.00
C49    C     0.64689   0.56798  -0.12439   0.00000  Uiso   1.00
C50    C     0.67368   0.59991  -0.14858   0.00000  Uiso   1.00
C51    C     0.66026   0.63332   0.05732   0.00000  Uiso   1.00
C52    C     0.62082   0.63467   0.28847   0.00000  Uiso   1.00
C53    C     0.59466   0.60242   0.31563   0.00000  Uiso   1.00
H54    H     0.53160   0.59735   0.06132   0.00000  Uiso   1.00
H55    H     0.65680   0.54425  -0.28211   0.00000  Uiso   1.00
H56    H     0.70235   0.59876  -0.31768   0.00000  Uiso   1.00
H57    H     0.61117   0.65893   0.43960   0.00000  Uiso   1.00
H58    H     0.56654   0.60413   0.48677   0.00000  Uiso   1.00
C59    C     0.76515   0.78713   0.06401   0.00000  Uiso   1.00
C60    C     0.79116   0.75963  -0.15621   0.00000  Uiso   1.00
C61    C     0.77623   0.72289  -0.22037   0.00000  Uiso   1.00
H62    H     0.82136   0.76610  -0.27394   0.00000  Uiso   1.00
H63    H     0.79576   0.70375  -0.38181   0.00000  Uiso   1.00
C64    C     0.77956   0.82404   0.12894   0.00000  Uiso   1.00
N65    N     0.81750   0.83433  -0.05540   0.00000  Uiso   1.00
H66    H     0.23836   0.15751  -0.30986   0.00000  Uiso   1.00
C67    C     0.95961   0.03588  -0.07124   0.00000  Uiso   1.00
C68    C     0.01936   0.07071   0.03692   0.00000  Uiso   1.00
C69    C     0.08094   0.03578   0.12927   0.00000  Uiso   1.00
C70    C     0.10688   0.06868   0.10939   0.00000  Uiso   1.00
C71    C     0.14689   0.06798  -0.12439   0.00000  Uiso   1.00
C72    C     0.17368   0.09991  -0.14858   0.00000  Uiso   1.00
C73    C     0.16026   0.13332   0.05732   0.00000  Uiso   1.00
C74    C     0.12082   0.13467   0.28847   0.00000  Uiso   1.00
C75    C     0.09466   0.10242   0.31563   0.00000  Uiso   1.00
H76    H     0.03160   0.09735   0.06132   0.00000  Uiso   1.00
H77    H     0.15680   0.04425  -0.28211   0.00000  Uiso   1.00
H78    H     0.20235   0.09876  -0.31768   0.00000  Uiso   1.00
H79    H     0.11117   0.15893   0.43960   0.00000  Uiso   1.00
H80    H     0.06654   0.10413   0.48677   0.00000  Uiso   1.00
C81    C     0.26514   0.28713   0.06401   0.00000  Uiso   1.00
C82    C     0.29116   0.25963  -0.15621   0.00000  Uiso   1.00
C83    C     0.27623   0.22289  -0.22037   0.00000  Uiso   1.00
H84    H     0.32136   0.26610  -0.27394   0.00000  Uiso   1.00
H85    H     0.29576   0.20375  -0.38181   0.00000  Uiso   1.00
C86    C     0.27956   0.32404   0.12894   0.00000  Uiso   1.00
N87    N     0.31750   0.33433  -0.05540   0.00000  Uiso   1.00
H88    H     0.73836   0.65751  -0.30986   0.00000  Uiso   1.00
C89    C     0.45961   0.46412  -0.07124   0.00000  Uiso   1.00
C90    C     0.51936   0.42929   0.03692   0.00000  Uiso   1.00
C91    C     0.58094   0.46422   0.12927   0.00000  Uiso   1.00
C92    C     0.60688   0.43132   0.10939   0.00000  Uiso   1.00
C93    C     0.64689   0.43202  -0.12439   0.00000  Uiso   1.00
C94    C     0.67368   0.40009  -0.14858   0.00000  Uiso   1.00
C95    C     0.66026   0.36668   0.05732   0.00000  Uiso   1.00
C96    C     0.62082   0.36533   0.28847   0.00000  Uiso   1.00
C97    C     0.59466   0.39758   0.31563   0.00000  Uiso   1.00
H98    H     0.53160   0.40265   0.06132   0.00000  Uiso   1.00
H99    H     0.65680   0.45575  -0.28211   0.00000  Uiso   1.00
H100   H     0.70235   0.40124  -0.31768   0.00000  Uiso   1.00
H101   H     0.61117   0.34107   0.43960   0.00000  Uiso   1.00
H102   H     0.56654   0.39587   0.48677   0.00000  Uiso   1.00
C103   C     0.76515   0.21287   0.06401   0.00000  Uiso   1.00
C104   C     0.79116   0.24037  -0.15621   0.00000  Uiso   1.00
C105   C     0.77623   0.27711  -0.22037   0.00000  Uiso   1.00
H106   H     0.82136   0.23390  -0.27394   0.00000  Uiso   1.00
H107   H     0.79576   0.29625  -0.38181   0.00000  Uiso   1.00
C108   C     0.77956   0.17597   0.12894   0.00000  Uiso   1.00
N109   N     0.81750   0.16567  -0.05540   0.00000  Uiso   1.00
H110   H     0.23836   0.84249  -0.30986   0.00000  Uiso   1.00
C111   C     0.95961   0.96412  -0.07124   0.00000  Uiso   1.00
C112   C     0.01936   0.92929   0.03692   0.00000  Uiso   1.00
C113   C     0.08094   0.96422   0.12927   0.00000  Uiso   1.00
C114   C     0.10688   0.93132   0.10939   0.00000  Uiso   1.00
C115   C     0.14689   0.93202  -0.12439   0.00000  Uiso   1.00
C116   C     0.17368   0.90009  -0.14858   0.00000  Uiso   1.00
C117   C     0.16026   0.86668   0.05732   0.00000  Uiso   1.00
C118   C     0.12082   0.86533   0.28847   0.00000  Uiso   1.00
C119   C     0.09466   0.89758   0.31563   0.00000  Uiso   1.00
H120   H     0.03160   0.90265   0.06132   0.00000  Uiso   1.00
H121   H     0.15680   0.95575  -0.28211   0.00000  Uiso   1.00
H122   H     0.20235   0.90124  -0.31768   0.00000  Uiso   1.00
H123   H     0.11117   0.84107   0.43960   0.00000  Uiso   1.00
H124   H     0.06654   0.89587   0.48677   0.00000  Uiso   1.00
C125   C     0.26514   0.71287   0.06401   0.00000  Uiso   1.00
C126   C     0.29116   0.74037  -0.15621   0.00000  Uiso   1.00
C127   C     0.27623   0.77711  -0.22037   0.00000  Uiso   1.00
H128   H     0.32136   0.73390  -0.27394   0.00000  Uiso   1.00
H129   H     0.29576   0.79625  -0.38181   0.00000  Uiso   1.00
C130   C     0.27956   0.67597   0.12894   0.00000  Uiso   1.00
N131   N     0.31750   0.66567  -0.05540   0.00000  Uiso   1.00
H132   H     0.73836   0.34249  -0.30986   0.00000  Uiso   1.00
C133   C     0.54039   0.46412   0.07124   0.00000  Uiso   1.00
C134   C     0.48064   0.42929  -0.03692   0.00000  Uiso   1.00
C135   C     0.41906   0.46422  -0.12927   0.00000  Uiso   1.00
C136   C     0.39312   0.43132  -0.10938   0.00000  Uiso   1.00
C137   C     0.35311   0.43202   0.12439   0.00000  Uiso   1.00
C138   C     0.32632   0.40009   0.14858   0.00000  Uiso   1.00
C139   C     0.33974   0.36668  -0.05732   0.00000  Uiso   1.00
C140   C     0.37918   0.36533  -0.28847   0.00000  Uiso   1.00
C141   C     0.40534   0.39758  -0.31562   0.00000  Uiso   1.00
H142   H     0.46840   0.40265  -0.06131   0.00000  Uiso   1.00
H143   H     0.34320   0.45575   0.28211   0.00000  Uiso   1.00
H144   H     0.29765   0.40124   0.31769   0.00000  Uiso   1.00
H145   H     0.38883   0.34107  -0.43960   0.00000  Uiso   1.00
H146   H     0.43347   0.39587  -0.48677   0.00000  Uiso   1.00
C147   C     0.23486   0.21287  -0.06401   0.00000  Uiso   1.00
C148   C     0.20884   0.24037   0.15622   0.00000  Uiso   1.00
C149   C     0.22377   0.27711   0.22037   0.00000  Uiso   1.00
H150   H     0.17864   0.23390   0.27394   0.00000  Uiso   1.00
H151   H     0.20424   0.29625   0.38181   0.00000  Uiso   1.00
C152   C     0.22044   0.17597  -0.12894   0.00000  Uiso   1.00
N153   N     0.18250   0.16567   0.05540   0.00000  Uiso   1.00
H154   H     0.76164   0.84249   0.30986   0.00000  Uiso   1.00
C155   C     0.04039   0.96412   0.07124   0.00000  Uiso   1.00
C156   C     0.98064   0.92929  -0.03692   0.00000  Uiso   1.00
C157   C     0.91906   0.96422  -0.12927   0.00000  Uiso   1.00
C158   C     0.89312   0.93132  -0.10938   0.00000  Uiso   1.00
C159   C     0.85311   0.93202   0.12439   0.00000  Uiso   1.00
C160   C     0.82632   0.90009   0.14858   0.00000  Uiso   1.00
C161   C     0.83974   0.86668  -0.05732   0.00000  Uiso   1.00
C162   C     0.87918   0.86533  -0.28847   0.00000  Uiso   1.00
C163   C     0.90534   0.89758  -0.31562   0.00000  Uiso   1.00
H164   H     0.96840   0.90265  -0.06131   0.00000  Uiso   1.00
H165   H     0.84320   0.95575   0.28211   0.00000  Uiso   1.00
H166   H     0.79765   0.90124   0.31769   0.00000  Uiso   1.00
H167   H     0.88883   0.84107  -0.43960   0.00000  Uiso   1.00
H168   H     0.93346   0.89587  -0.48677   0.00000  Uiso   1.00
C169   C     0.73486   0.71287  -0.06401   0.00000  Uiso   1.00
C170   C     0.70884   0.74037   0.15622   0.00000  Uiso   1.00
C171   C     0.72377   0.77711   0.22037   0.00000  Uiso   1.00
H172   H     0.67864   0.73390   0.27394   0.00000  Uiso   1.00
H173   H     0.70424   0.79625   0.38181   0.00000  Uiso   1.00
C174   C     0.72044   0.67597  -0.12894   0.00000  Uiso   1.00
N175   N     0.68250   0.66567   0.05540   0.00000  Uiso   1.00
H176   H     0.26164   0.34249   0.30986   0.00000  Uiso   1.00
C177   C     0.40119   0.50000  -0.18499   0.00000  Uiso   1.00
C178   C     0.52007   0.50000   0.03727   0.00000  Uiso   1.00
H179   H     0.37328   0.50000  -0.25407   0.00000  Uiso   1.00
C180   C     0.90119   0.00000  -0.18499   0.00000  Uiso   1.00
C181   C     0.02007   0.00000   0.03727   0.00000  Uiso   1.00
H182   H     0.87328   0.00000  -0.25407   0.00000  Uiso   1.00
C183   C     0.59881   0.50000   0.18499   0.00000  Uiso   1.00
C184   C     0.47993   0.50000  -0.03727   0.00000  Uiso   1.00
H185   H     0.62672   0.50000   0.25407   0.00000  Uiso   1.00
C186   C     0.09881   0.00000   0.18499   0.00000  Uiso   1.00
C187   C     0.97993   0.00000  -0.03727   0.00000  Uiso   1.00
H188   H     0.12672   0.00000   0.25407   0.00000  Uiso   1.00
loop_
_geom_bond_atom_site_label_1
_geom_bond_atom_site_label_2
_geom_bond_distance
_geom_bond_site_symmetry_2
_ccdc_geom_bond_type
C1     C46     1.407   .     S
C1     C47     1.422   .     S
C1     C178    1.426   .     D
C2     H10     1.014   .     S
C2     C45     1.407   .     S
C2     C46     1.387   .     D
C3     C4      1.412   .     S
C3     C45     1.422   .     S
C3     C177    1.403   .     D
C4     C5      1.419   .     D
C4     C9      1.410   .     S
C5     C6      1.401   .     S
C5     H11     1.024   .     S
C6     C7      1.406   .     D
C6     H12     1.020   .     S
C7     C8      1.400   .     S
C7     N131    1.333   .     S
C8     C9      1.396   .     D
C8     H13     1.024   .     S
C9     H14     1.010   .     S
C15    C16     1.418   .     D
C15    C20     1.398   .     S
C15    C127    1.407   .     S
C16    C17     1.399   .     S
C16    H18     1.023   .     S
C17    H19     1.024   .     S
C17    C125    1.407   .     D
C20    N21     1.340   .     D
C20    H110    1.023   .     S
N21    C117    1.333   .     S
H22    C108    1.023   .     S
C23    C68     1.407   .     D
C23    C69     1.422   .     S
C23    C181    1.426   .     S
C24    H32     1.014   .     S
C24    C67     1.407   .     D
C24    C68     1.387   1_655 S
C25    C26     1.412   .     D
C25    C67     1.422   .     S
C25    C180    1.403   .     S
C26    C27     1.419   .     S
C26    C31     1.410   .     S
C27    C28     1.401   .     D
C27    H33     1.024   .     S
C28    C29     1.406   .     S
C28    H34     1.020   .     S
C29    C30     1.400   .     S
C29    N109    1.333   .     D
C30    C31     1.396   .     D
C30    H35     1.024   .     S
C31    H36     1.010   .     S
C37    C38     1.418   .     S
C37    C42     1.398   .     D
C37    C105    1.407   .     S
C38    C39     1.399   .     D
C38    H40     1.023   .     S
C39    H41     1.024   .     S
C39    C103    1.407   .     S
C42    N43     1.340   .     S
C42    H132    1.023   .     S
N43    C95     1.333   .     D
H44    C130    1.023   .     S
C45    C184    1.426   .     D
C46    H54     1.014   .     S
C47    C48     1.412   .     S
C47    C183    1.403   .     D
C48    C49     1.419   .     D
C48    C53     1.410   .     S
C49    C50     1.401   .     S
C49    H55     1.024   .     S
C50    C51     1.406   .     D
C50    H56     1.020   .     S
C51    C52     1.400   .     S
C51    N175    1.333   .     S
C52    C53     1.396   .     D
C52    H57     1.024   .     S
C53    H58     1.010   .     S
C59    C60     1.418   .     D
C59    C64     1.398   .     S
C59    C171    1.407   .     S
C60    C61     1.399   .     S
C60    H62     1.023   .     S
C61    H63     1.024   .     S
C61    C169    1.407   .     D
C64    N65     1.340   .     D
C64    H154    1.023   .     S
N65    C161    1.333   .     S
H66    C152    1.023   .     S
C67    C187    1.426   .     S
C68    C24     1.387   1_455 S
C68    H76     1.014   .     S
C69    C70     1.412   .     D
C69    C186    1.403   .     S
C70    C71     1.419   .     S
C70    C75     1.410   .     S
C71    C72     1.401   .     D
C71    H77     1.024   .     S
C72    C73     1.406   .     S
C72    H78     1.020   .     S
C73    C74     1.400   .     S
C73    N153    1.333   .     D
C74    C75     1.396   .     D
C74    H79     1.024   .     S
C75    H80     1.010   .     S
C81    C82     1.418   .     S
C81    C86     1.398   .     D
C81    C149    1.407   .     S
C82    C83     1.399   .     D
C82    H84     1.023   .     S
C83    H85     1.024   .     S
C83    C147    1.407   .     S
C86    N87     1.340   .     S
C86    H176    1.023   .     S
N87    C139    1.333   .     D
H88    C174    1.023   .     S
C89    C134    1.407   .     D
C89    C135    1.422   .     S
C89    C184    1.426   .     S
C90    H98     1.014   .     S
C90    C133    1.407   .     D
C90    C134    1.387   .     S
C91    C92     1.412   .     D
C91    C133    1.422   .     S
C91    C183    1.403   .     S
C92    C93     1.419   .     S
C92    C97     1.410   .     S
C93    C94     1.401   .     D
C93    H99     1.024   .     S
C94    C95     1.406   .     S
C94    H100    1.020   .     S
C95    C96     1.400   .     S
C96    C97     1.396   .     D
C96    H101    1.024   .     S
C97    H102    1.010   .     S
C103   C104    1.418   .     S
C103   C108    1.398   .     D
C104   C105    1.399   .     D
C104   H106    1.023   .     S
C105   H107    1.024   .     S
C108   N109    1.340   .     S
C111   C156    1.407   .     D
C111   C157    1.422   .     S
C111   C187    1.426   1_565 S
C112   H120    1.014   .     S
C112   C155    1.407   .     D
C112   C156    1.387   1_455 S
C113   C114    1.412   .     S
C113   C155    1.422   .     S
C113   C186    1.403   1_565 D
C114   C115    1.419   .     D
C114   C119    1.410   .     S
C115   C116    1.401   .     S
C115   H121    1.024   .     S
C116   C117    1.406   .     D
C116   H122    1.020   .     S
C117   C118    1.400   .     S
C118   C119    1.396   .     D
C118   H123    1.024   .     S
C119   H124    1.010   .     S
C125   C126    1.418   .     S
C125   C130    1.398   .     S
C126   C127    1.399   .     D
C126   H128    1.023   .     S
C127   H129    1.024   .     S
C130   N131    1.340   .     D
C133   C178    1.426   .     S
C134   H142    1.014   .     S
C135   C136    1.412   .     D
C135   C177    1.403   .     S
C136   C137    1.419   .     S
C136   C141    1.410   .     S
C137   C138    1.401   .     D
C137   H143    1.024   .     S
C138   C139    1.406   .     S
C138   H144    1.020   .     S
C139   C140    1.400   .     S
C140   C141    1.396   .     D
C140   H145    1.024   .     S
C141   H146    1.010   .     S
C147   C148    1.418   .     S
C147   C152    1.398   .     D
C148   C149    1.399   .     D
C148   H150    1.023   .     S
C149   H151    1.024   .     S
C152   N153    1.340   .     S
C155   C181    1.426   1_565 S
C156   C112    1.387   1_655 S
C156   H164    1.014   .     S
C157   C158    1.412   .     S
C157   C180    1.403   1_565 D
C158   C159    1.419   .     D
C158   C163    1.410   .     S
C159   C160    1.401   .     S
C159   H165    1.024   .     S
C160   C161    1.406   .     D
C160   H166    1.020   .     S
C161   C162    1.400   .     S
C162   C163    1.396   .     D
C162   H167    1.024   .     S
C163   H168    1.010   .     S
C169   C170    1.418   .     S
C169   C174    1.398   .     S
C170   C171    1.399   .     D
C170   H172    1.023   .     S
C171   H173    1.024   .     S
C174   N175    1.340   .     D
C177   H179    1.028   .     S
C178   C184    1.434   .     S
C180   C157    1.403   1_545 D
C180   H182    1.028   .     S
C181   C155    1.426   1_545 S
C181   C187    1.434   1_455 D
C183   H185    1.028   .     S
C186   C113    1.403   1_545 D
C186   H188    1.028   .     S
C187   C181    1.434   1_655 D
C187   C111    1.426   1_545 S
