data_383
_audit_creation_date              2023-09-08
_audit_creation_method            'Materials Studio'
_symmetry_space_group_name_H-M    'P1'
_symmetry_Int_Tables_number       1
_symmetry_cell_setting            triclinic
loop_
_symmetry_equiv_pos_as_xyz
  x,y,z
_cell_length_a                    35.4000
_cell_length_b                    33.9000
_cell_length_c                    8.7400
_cell_angle_alpha                 90.0000
_cell_angle_beta                  75.2000
_cell_angle_gamma                 90.0000
loop_
_atom_site_label
_atom_site_type_symbol
_atom_site_fract_x
_atom_site_fract_y
_atom_site_fract_z
_atom_site_U_iso_or_equiv
_atom_site_adp_type
_atom_site_occupancy
C1     C    -0.20164   0.33753   0.68138   0.00000  Uiso   1.00
C2     C    -0.23740   0.33569   0.62352   0.00000  Uiso   1.00
C3     C    -0.24975   0.37020   0.56267   0.00000  Uiso   1.00
C4     C    -0.22846   0.40515   0.55576   0.00000  Uiso   1.00
C5     C    -0.25872   0.29804   0.62852   0.00000  Uiso   1.00
H6     H    -0.19134   0.31163   0.73091   0.00000  Uiso   1.00
H7     H    -0.27572   0.37022   0.51877   0.00000  Uiso   1.00
C8     C    -0.27382   0.92566   0.45959   0.00000  Uiso   1.00
C9     C    -0.24048   0.89919   0.45917   0.00000  Uiso   1.00
H10    H    -0.19641   0.94509   0.42199   0.00000  Uiso   1.00
H11    H    -0.27618   0.84655   0.49922   0.00000  Uiso   1.00
C12    C     0.06214   0.69409   0.33901   0.00000  Uiso   1.00
C13    C     0.02167   0.69259   0.37037   0.00000  Uiso   1.00
C14    C     0.00105   0.65821   0.43039   0.00000  Uiso   1.00
C15    C     0.02250   0.62328   0.44213   0.00000  Uiso   1.00
C16    C     0.06419   0.62468   0.40678   0.00000  Uiso   1.00
C17    C     0.08389   0.66103   0.36256   0.00000  Uiso   1.00
C18    C     0.08595   0.58997   0.41850   0.00000  Uiso   1.00
C19    C     0.06541   0.55448   0.45950   0.00000  Uiso   1.00
C20    C     0.02510   0.55256   0.48151   0.00000  Uiso   1.00
C21    C     0.00253   0.58679   0.48361   0.00000  Uiso   1.00
C22    C    -0.04035   0.65738   0.47485   0.00000  Uiso   1.00
C23    C    -0.05922   0.62183   0.52752   0.00000  Uiso   1.00
C24    C    -0.03916   0.58599   0.52338   0.00000  Uiso   1.00
C25    C     0.12493   0.66320   0.33926   0.00000  Uiso   1.00
C26    C     0.14579   0.62871   0.34946   0.00000  Uiso   1.00
C27    C     0.12742   0.59206   0.38914   0.00000  Uiso   1.00
C28    C     0.14693   0.70123   0.32051   0.00000  Uiso   1.00
C29    C     0.15327   0.55793   0.40485   0.00000  Uiso   1.00
C30    C    -0.06585   0.69188   0.46253   0.00000  Uiso   1.00
C31    C    -0.06399   0.54931   0.55041   0.00000  Uiso   1.00
C32    C     0.15172   0.52144   0.32947   0.00000  Uiso   1.00
C33    C     0.17803   0.49102   0.33845   0.00000  Uiso   1.00
C34    C     0.20747   0.49709   0.41819   0.00000  Uiso   1.00
C35    C     0.20996   0.53380   0.48762   0.00000  Uiso   1.00
C36    C     0.18289   0.56350   0.48396   0.00000  Uiso   1.00
C37    C     0.18248   0.70543   0.20461   0.00000  Uiso   1.00
C38    C     0.20567   0.73911   0.20090   0.00000  Uiso   1.00
C39    C     0.19361   0.76928   0.31386   0.00000  Uiso   1.00
C40    C     0.15763   0.76555   0.42574   0.00000  Uiso   1.00
C41    C     0.13475   0.73180   0.43040   0.00000  Uiso   1.00
C42    C    -0.09628   0.54725   0.48415   0.00000  Uiso   1.00
C43    C    -0.12124   0.51478   0.50942   0.00000  Uiso   1.00
C44    C    -0.11430   0.48252   0.59957   0.00000  Uiso   1.00
C45    C    -0.08214   0.48413   0.66549   0.00000  Uiso   1.00
C46    C    -0.05806   0.51766   0.64599   0.00000  Uiso   1.00
C47    C    -0.09672   0.68664   0.39020   0.00000  Uiso   1.00
C48    C    -0.12342   0.71688   0.38957   0.00000  Uiso   1.00
C49    C    -0.11952   0.75352   0.45710   0.00000  Uiso   1.00
C50    C    -0.08859   0.75930   0.52918   0.00000  Uiso   1.00
C51    C    -0.06230   0.72851   0.53356   0.00000  Uiso   1.00
N52    N     0.23614   0.46765   0.42774   0.00000  Uiso   1.00
C53    C     0.23391   0.42987   0.40525   0.00000  Uiso   1.00
C54    C     0.26579   0.40312   0.42202   0.00000  Uiso   1.00
C55    C     0.30157   0.41791   0.43984   0.00000  Uiso   1.00
C56    C     0.33133   0.39215   0.45514   0.00000  Uiso   1.00
C57    C     0.32581   0.35114   0.45529   0.00000  Uiso   1.00
C58    C     0.28998   0.33631   0.43835   0.00000  Uiso   1.00
C59    C     0.26040   0.36208   0.42089   0.00000  Uiso   1.00
N60    N     0.21711   0.80335   0.32451   0.00000  Uiso   1.00
N61    N    -0.14874   0.78301   0.45679   0.00000  Uiso   1.00
N62    N    -0.13824   0.44747   0.62157   0.00000  Uiso   1.00
C63    C    -0.17250   0.44463   0.59289   0.00000  Uiso   1.00
C64    C    -0.19410   0.40687   0.60823   0.00000  Uiso   1.00
C65    C    -0.18092   0.37294   0.67133   0.00000  Uiso   1.00
C66    C     0.31444   0.85330   0.19037   0.00000  Uiso   1.00
C67    C     0.27329   0.84632   0.27681   0.00000  Uiso   1.00
C68    C     0.25516   0.87382   0.39202   0.00000  Uiso   1.00
C69    C     0.27570   0.90668   0.42427   0.00000  Uiso   1.00
C70    C     0.25275   0.81055   0.24412   0.00000  Uiso   1.00
C71    C    -0.20236   0.91385   0.43937   0.00000  Uiso   1.00
C72    C    -0.17155   0.88831   0.44441   0.00000  Uiso   1.00
C73    C    -0.17811   0.84761   0.46679   0.00000  Uiso   1.00
C74    C    -0.21621   0.83298   0.48570   0.00000  Uiso   1.00
C75    C    -0.24707   0.85857   0.48307   0.00000  Uiso   1.00
C76    C    -0.14513   0.82093   0.47007   0.00000  Uiso   1.00
H77    H     0.07622   0.72159   0.29513   0.00000  Uiso   1.00
H78    H     0.00688   0.71886   0.34656   0.00000  Uiso   1.00
H79    H     0.07998   0.52742   0.47491   0.00000  Uiso   1.00
H80    H     0.01239   0.52357   0.49710   0.00000  Uiso   1.00
H81    H    -0.09084   0.62191   0.56762   0.00000  Uiso   1.00
H82    H     0.17723   0.63070   0.32967   0.00000  Uiso   1.00
H83    H     0.13107   0.51684   0.25868   0.00000  Uiso   1.00
H84    H     0.17619   0.46365   0.27733   0.00000  Uiso   1.00
H85    H     0.23257   0.53914   0.54844   0.00000  Uiso   1.00
H86    H     0.18535   0.59116   0.54259   0.00000  Uiso   1.00
H87    H     0.19254   0.68233   0.11816   0.00000  Uiso   1.00
H88    H     0.23284   0.74098   0.11041   0.00000  Uiso   1.00
H89    H     0.14797   0.78832   0.51398   0.00000  Uiso   1.00
H90    H     0.10805   0.72903   0.52319   0.00000  Uiso   1.00
H91    H    -0.10190   0.57062   0.40829   0.00000  Uiso   1.00
H92    H    -0.14470   0.51474   0.45119   0.00000  Uiso   1.00
H93    H    -0.07653   0.45985   0.73712   0.00000  Uiso   1.00
H94    H    -0.03568   0.51911   0.71006   0.00000  Uiso   1.00
H95    H    -0.10054   0.65876   0.33567   0.00000  Uiso   1.00
H96    H    -0.14718   0.71183   0.33471   0.00000  Uiso   1.00
H97    H    -0.08560   0.78679   0.58773   0.00000  Uiso   1.00
H98    H    -0.03993   0.73291   0.59636   0.00000  Uiso   1.00
H99    H     0.20804   0.41717   0.38056   0.00000  Uiso   1.00
H100   H     0.30671   0.44939   0.44091   0.00000  Uiso   1.00
H101   H     0.35869   0.40430   0.46757   0.00000  Uiso   1.00
H102   H     0.28501   0.30481   0.43635   0.00000  Uiso   1.00
H103   H     0.23317   0.34991   0.40701   0.00000  Uiso   1.00
H104   H    -0.18611   0.47000   0.55451   0.00000  Uiso   1.00
H105   H    -0.15471   0.37384   0.71349   0.00000  Uiso   1.00
H106   H     0.32942   0.83299   0.09942   0.00000  Uiso   1.00
H107   H     0.22512   0.86983   0.45878   0.00000  Uiso   1.00
H108   H    -0.23871   0.43114   0.50640   0.00000  Uiso   1.00
H109   H     0.26857   0.79004   0.15624   0.00000  Uiso   1.00
H110   H    -0.14250   0.90033   0.42978   0.00000  Uiso   1.00
H111   H    -0.22228   0.80179   0.50401   0.00000  Uiso   1.00
H112   H    -0.11748   0.83358   0.47629   0.00000  Uiso   1.00
C113   C     0.31496   0.91318   0.34359   0.00000  Uiso   1.00
C114   C     0.33409   0.88639   0.22636   0.00000  Uiso   1.00
H115   H     0.36422   0.89109   0.16209   0.00000  Uiso   1.00
H116   H     0.26080   0.92712   0.51506   0.00000  Uiso   1.00
C117   C     0.35803   0.32448   0.46846   0.00000  Uiso   1.00
N118   N     0.35152   0.28746   0.50473   0.00000  Uiso   1.00
C119   C     0.38071   0.25847   0.51270   0.00000  Uiso   1.00
C120   C     0.41956   0.26124   0.42047   0.00000  Uiso   1.00
C121   C     0.44582   0.23013   0.41779   0.00000  Uiso   1.00
C122   C     0.43388   0.19568   0.50643   0.00000  Uiso   1.00
C123   C     0.39548   0.19378   0.60303   0.00000  Uiso   1.00
C124   C     0.36919   0.22471   0.60500   0.00000  Uiso   1.00
C125   C     0.45918   0.15970   0.48311   0.00000  Uiso   1.00
C126   C     0.33514   0.94831   0.38503   0.00000  Uiso   1.00
N127   N     0.37208   0.95469   0.32120   0.00000  Uiso   1.00
C128   C     0.39463   0.98776   0.35260   0.00000  Uiso   1.00
C129   C     0.38067   1.01425   0.47852   0.00000  Uiso   1.00
C130   C     0.40338   1.04644   0.50067   0.00000  Uiso   1.00
C131   C     0.44062   1.05302   0.39890   0.00000  Uiso   1.00
C132   C     0.45430   1.02663   0.27316   0.00000  Uiso   1.00
C133   C     0.43194   0.99394   0.25254   0.00000  Uiso   1.00
C134   C     0.49817   0.15914   0.49795   0.00000  Uiso   1.00
C135   C     0.52041   0.12377   0.46699   0.00000  Uiso   1.00
C136   C     0.50290   1.08844   0.42988   0.00000  Uiso   1.00
C137   C     0.46324   1.08892   0.42172   0.00000  Uiso   1.00
C138   C     0.44288   0.12477   0.44335   0.00000  Uiso   1.00
C139   C     0.56007   0.12355   0.47680   0.00000  Uiso   1.00
C140   C     0.57725   0.15860   0.51835   0.00000  Uiso   1.00
C141   C     0.55322   0.19179   0.56402   0.00000  Uiso   1.00
C142   C     0.51499   0.19243   0.54947   0.00000  Uiso   1.00
C143   C     0.52523   1.05360   0.40783   0.00000  Uiso   1.00
C144   C     0.56410   1.05362   0.41362   0.00000  Uiso   1.00
C145   C     0.58224   1.08816   0.44720   0.00000  Uiso   1.00
C146   C    -0.38240   0.15896   0.51662   0.00000  Uiso   1.00
C147   C    -0.36106   0.12375   0.48202   0.00000  Uiso   1.00
C148   C    -0.37801   1.08836   0.45143   0.00000  Uiso   1.00
N149   N    -0.26818   0.96172   0.40791   0.00000  Uiso   1.00
C150   C    -0.29822   0.99050   0.40955   0.00000  Uiso   1.00
C151   C    -0.33498   0.98917   0.52002   0.00000  Uiso   1.00
C152   C    -0.36174   1.02005   0.52845   0.00000  Uiso   1.00
C153   C    -0.35255   1.05262   0.42633   0.00000  Uiso   1.00
C154   C    -0.31626   1.05331   0.31356   0.00000  Uiso   1.00
C155   C    -0.28935   1.02269   0.30618   0.00000  Uiso   1.00
N156   N    -0.28867   0.29540   0.56826   0.00000  Uiso   1.00
C157   C    -0.31215   0.26101   0.56203   0.00000  Uiso   1.00
C158   C    -0.30668   0.22471   0.63141   0.00000  Uiso   1.00
C159   C    -0.33086   0.19258   0.62328   0.00000  Uiso   1.00
C160   C    -0.36028   0.19524   0.54138   0.00000  Uiso   1.00
C161   C    -0.36499   0.23144   0.46958   0.00000  Uiso   1.00
C162   C    -0.34176   0.26402   0.48281   0.00000  Uiso   1.00
H163   H    -0.24827   0.27280   0.68102   0.00000  Uiso   1.00
H164   H    -0.30317   0.91407   0.50070   0.00000  Uiso   1.00
H165   H     0.38713   0.33664   0.45072   0.00000  Uiso   1.00
H166   H     0.42925   0.28644   0.34478   0.00000  Uiso   1.00
H167   H     0.47512   0.23248   0.34273   0.00000  Uiso   1.00
H168   H     0.38545   0.16766   0.67308   0.00000  Uiso   1.00
H169   H     0.33940   0.22199   0.67626   0.00000  Uiso   1.00
H170   H     0.35267   1.01029   0.56213   0.00000  Uiso   1.00
H171   H     0.39198   1.06608   0.59945   0.00000  Uiso   1.00
H172   H     0.48220   1.03139   0.19020   0.00000  Uiso   1.00
H173   H     0.44320   0.97404   0.15458   0.00000  Uiso   1.00
H174   H     0.41327   0.12543   0.42975   0.00000  Uiso   1.00
H175   H     0.56347   0.21772   0.61293   0.00000  Uiso   1.00
H176   H     0.49860   0.21934   0.58109   0.00000  Uiso   1.00
H177   H     0.51296   1.02544   0.38951   0.00000  Uiso   1.00
H178   H     0.57965   1.02593   0.39241   0.00000  Uiso   1.00
H179   H    -0.33022   0.12369   0.47813   0.00000  Uiso   1.00
H180   H    -0.34240   0.96548   0.60527   0.00000  Uiso   1.00
H181   H    -0.38907   1.01924   0.61862   0.00000  Uiso   1.00
H182   H    -0.30832   1.07820   0.23408   0.00000  Uiso   1.00
H183   H    -0.26117   1.02434   0.22113   0.00000  Uiso   1.00
H184   H    -0.28456   0.22086   0.69525   0.00000  Uiso   1.00
H185   H    -0.32630   0.16540   0.68102   0.00000  Uiso   1.00
H186   H    -0.38554   0.23429   0.39736   0.00000  Uiso   1.00
H187   H    -0.34600   0.29151   0.42629   0.00000  Uiso   1.00
H188   H     0.31798   0.96887   0.46917   0.00000  Uiso   1.00
C189   C     0.19639   0.22572   1.12218   0.00000  Uiso   1.00
C190   C     0.16063   0.22388   1.06433   0.00000  Uiso   1.00
C191   C     0.14828   0.25839   1.00347   0.00000  Uiso   1.00
C192   C     0.16957   0.29334   0.99656   0.00000  Uiso   1.00
C193   C     0.13931   0.18623   1.06933   0.00000  Uiso   1.00
H194   H     0.20669   0.19982   1.17172   0.00000  Uiso   1.00
H195   H     0.12231   0.25841   0.95957   0.00000  Uiso   1.00
C196   C     0.12421   0.81385   0.90039   0.00000  Uiso   1.00
C197   C     0.15755   0.78738   0.89998   0.00000  Uiso   1.00
H198   H     0.20162   0.83328   0.86280   0.00000  Uiso   1.00
H199   H     0.12185   0.73474   0.94002   0.00000  Uiso   1.00
C200   C     0.46017   0.58228   0.77982   0.00000  Uiso   1.00
C201   C     0.41970   0.58078   0.81117   0.00000  Uiso   1.00
C202   C     0.39908   0.54640   0.87120   0.00000  Uiso   1.00
C203   C     0.42053   0.51147   0.88293   0.00000  Uiso   1.00
C204   C     0.46222   0.51287   0.84759   0.00000  Uiso   1.00
C205   C     0.48192   0.54922   0.80336   0.00000  Uiso   1.00
C206   C     0.48398   0.47816   0.85930   0.00000  Uiso   1.00
C207   C     0.46344   0.44267   0.90030   0.00000  Uiso   1.00
C208   C     0.42313   0.44075   0.92231   0.00000  Uiso   1.00
C209   C     0.40056   0.47498   0.92441   0.00000  Uiso   1.00
C210   C     0.35768   0.54557   0.91566   0.00000  Uiso   1.00
C211   C     0.33881   0.51002   0.96833   0.00000  Uiso   1.00
C212   C     0.35887   0.47418   0.96418   0.00000  Uiso   1.00
C213   C     0.52296   0.55139   0.78006   0.00000  Uiso   1.00
C214   C     0.54382   0.51690   0.79026   0.00000  Uiso   1.00
C215   C     0.52545   0.48025   0.82994   0.00000  Uiso   1.00
C216   C     0.54496   0.58942   0.76132   0.00000  Uiso   1.00
C217   C     0.55130   0.44612   0.84566   0.00000  Uiso   1.00
C218   C     0.33218   0.58007   0.90333   0.00000  Uiso   1.00
C219   C     0.33404   0.43750   0.99122   0.00000  Uiso   1.00
C220   C     0.54975   0.40963   0.77028   0.00000  Uiso   1.00
C221   C     0.57606   0.37921   0.77926   0.00000  Uiso   1.00
C222   C     0.60550   0.38528   0.85900   0.00000  Uiso   1.00
C223   C     0.60799   0.42199   0.92843   0.00000  Uiso   1.00
C224   C     0.58092   0.45169   0.92476   0.00000  Uiso   1.00
C225   C     0.58051   0.59362   0.64541   0.00000  Uiso   1.00
C226   C     0.60370   0.62730   0.64170   0.00000  Uiso   1.00
C227   C     0.59164   0.65747   0.75466   0.00000  Uiso   1.00
C228   C     0.55566   0.65374   0.86654   0.00000  Uiso   1.00
C229   C     0.53278   0.61999   0.87120   0.00000  Uiso   1.00
C230   C     0.30175   0.43544   0.92495   0.00000  Uiso   1.00
C231   C     0.27679   0.40297   0.95022   0.00000  Uiso   1.00
C232   C     0.28373   0.37071   1.04038   0.00000  Uiso   1.00
C233   C     0.31589   0.37232   1.10630   0.00000  Uiso   1.00
C234   C     0.33997   0.40585   1.08679   0.00000  Uiso   1.00
C235   C     0.30131   0.57483   0.83101   0.00000  Uiso   1.00
C236   C     0.27461   0.60507   0.83038   0.00000  Uiso   1.00
C237   C     0.27851   0.64171   0.89790   0.00000  Uiso   1.00
C238   C     0.30944   0.64749   0.96999   0.00000  Uiso   1.00
C239   C     0.33573   0.61670   0.97436   0.00000  Uiso   1.00
N240   N     0.63417   0.35584   0.86855   0.00000  Uiso   1.00
C241   C     0.63194   0.31806   0.84605   0.00000  Uiso   1.00
C242   C     0.66382   0.29131   0.86283   0.00000  Uiso   1.00
C243   C     0.69960   0.30610   0.88064   0.00000  Uiso   1.00
C244   C     0.72936   0.28034   0.89594   0.00000  Uiso   1.00
C245   C     0.72384   0.23933   0.89610   0.00000  Uiso   1.00
C246   C     0.68801   0.22450   0.87915   0.00000  Uiso   1.00
C247   C     0.65843   0.25027   0.86170   0.00000  Uiso   1.00
N248   N     0.61514   0.69154   0.76532   0.00000  Uiso   1.00
N249   N     0.24929   0.67120   0.89759   0.00000  Uiso   1.00
N250   N     0.25979   0.33566   1.06238   0.00000  Uiso   1.00
C251   C     0.22553   0.33282   1.03369   0.00000  Uiso   1.00
C252   C     0.20393   0.29506   1.04903   0.00000  Uiso   1.00
C253   C     0.21711   0.26113   1.11213   0.00000  Uiso   1.00
C254   C     0.71247   0.74149   0.63117   0.00000  Uiso   1.00
C255   C     0.67132   0.73451   0.71762   0.00000  Uiso   1.00
C256   C     0.65319   0.76201   0.83282   0.00000  Uiso   1.00
C257   C     0.67373   0.79487   0.86507   0.00000  Uiso   1.00
C258   C     0.65078   0.69874   0.68492   0.00000  Uiso   1.00
C259   C     0.19567   0.80204   0.88018   0.00000  Uiso   1.00
C260   C     0.22648   0.77650   0.88522   0.00000  Uiso   1.00
C261   C     0.21992   0.73580   0.90760   0.00000  Uiso   1.00
C262   C     0.18182   0.72117   0.92650   0.00000  Uiso   1.00
C263   C     0.15096   0.74676   0.92388   0.00000  Uiso   1.00
C264   C     0.25290   0.70912   0.91087   0.00000  Uiso   1.00
H265   H     0.47425   0.60978   0.73593   0.00000  Uiso   1.00
H266   H     0.40491   0.60705   0.78737   0.00000  Uiso   1.00
H267   H     0.47801   0.41561   0.91571   0.00000  Uiso   1.00
H268   H     0.41042   0.41176   0.93791   0.00000  Uiso   1.00
H269   H     0.30719   0.51010   1.00842   0.00000  Uiso   1.00
H270   H     0.57526   0.51889   0.77047   0.00000  Uiso   1.00
H271   H     0.52910   0.40503   0.69948   0.00000  Uiso   1.00
H272   H     0.57422   0.35184   0.71814   0.00000  Uiso   1.00
H273   H     0.63060   0.42733   0.98924   0.00000  Uiso   1.00
H274   H     0.58338   0.47935   0.98339   0.00000  Uiso   1.00
H275   H     0.59057   0.57052   0.55897   0.00000  Uiso   1.00
H276   H     0.63087   0.62917   0.55122   0.00000  Uiso   1.00
H277   H     0.54600   0.67651   0.95479   0.00000  Uiso   1.00
H278   H     0.50608   0.61722   0.96400   0.00000  Uiso   1.00
H279   H     0.29613   0.45881   0.84910   0.00000  Uiso   1.00
H280   H     0.25333   0.40293   0.89199   0.00000  Uiso   1.00
H281   H     0.32150   0.34804   1.17793   0.00000  Uiso   1.00
H282   H     0.36235   0.40730   1.15086   0.00000  Uiso   1.00
H283   H     0.29749   0.54695   0.77648   0.00000  Uiso   1.00
H284   H     0.25085   0.60002   0.77552   0.00000  Uiso   1.00
H285   H     0.31243   0.67498   1.02853   0.00000  Uiso   1.00
H286   H     0.35810   0.62110   1.03717   0.00000  Uiso   1.00
H287   H     0.60607   0.30536   0.82136   0.00000  Uiso   1.00
H288   H     0.70474   0.33758   0.88171   0.00000  Uiso   1.00
H289   H     0.75672   0.29249   0.90837   0.00000  Uiso   1.00
H290   H     0.68304   0.19300   0.87716   0.00000  Uiso   1.00
H291   H     0.63120   0.23810   0.84781   0.00000  Uiso   1.00
H292   H     0.21192   0.35819   0.99532   0.00000  Uiso   1.00
H293   H     0.24332   0.26203   1.15430   0.00000  Uiso   1.00
H294   H     0.72745   0.72118   0.54022   0.00000  Uiso   1.00
H295   H     0.62315   0.75802   0.89959   0.00000  Uiso   1.00
H296   H     0.15932   0.31933   0.94720   0.00000  Uiso   1.00
H297   H     0.66660   0.67823   0.59704   0.00000  Uiso   1.00
H298   H     0.25553   0.78852   0.87059   0.00000  Uiso   1.00
H299   H     0.17575   0.68998   0.94481   0.00000  Uiso   1.00
H300   H     0.28055   0.72177   0.91709   0.00000  Uiso   1.00
C301   C     0.71299   0.80137   0.78440   0.00000  Uiso   1.00
C302   C     0.73212   0.77458   0.66716   0.00000  Uiso   1.00
H303   H     0.76225   0.77928   0.60290   0.00000  Uiso   1.00
H304   H     0.65883   0.81531   0.95587   0.00000  Uiso   1.00
C305   C     0.75606   0.21267   0.90926   0.00000  Uiso   1.00
N306   N     0.74955   0.17565   0.94554   0.00000  Uiso   1.00
C307   C     0.77874   0.14666   0.95351   0.00000  Uiso   1.00
C308   C     0.81759   0.14943   0.86127   0.00000  Uiso   1.00
C309   C     0.84385   0.11832   0.85860   0.00000  Uiso   1.00
C310   C     0.83191   0.08387   0.94723   0.00000  Uiso   1.00
C311   C     0.79351   0.08197   1.04384   0.00000  Uiso   1.00
C312   C     0.76722   0.11290   1.04581   0.00000  Uiso   1.00
C313   C     0.85721   0.04789   0.92392   0.00000  Uiso   1.00
C314   C     0.73317   0.83650   0.82583   0.00000  Uiso   1.00
N315   N     0.77011   0.84288   0.76200   0.00000  Uiso   1.00
C316   C     0.79266   0.87595   0.79340   0.00000  Uiso   1.00
C317   C     0.77870   0.90244   0.91933   0.00000  Uiso   1.00
C318   C     0.80141   0.93463   0.94148   0.00000  Uiso   1.00
C319   C     0.83865   0.94121   0.83971   0.00000  Uiso   1.00
C320   C     0.85233   0.91482   0.71396   0.00000  Uiso   1.00
C321   C     0.82997   0.88213   0.69335   0.00000  Uiso   1.00
C322   C     0.89620   0.04733   0.93876   0.00000  Uiso   1.00
C323   C     0.91844   0.01196   0.90779   0.00000  Uiso   1.00
C324   C     0.90093   0.97663   0.87068   0.00000  Uiso   1.00
C325   C     0.86127   0.97711   0.86252   0.00000  Uiso   1.00
C326   C     0.84091   0.01296   0.88416   0.00000  Uiso   1.00
C327   C     0.95810   0.01174   0.91761   0.00000  Uiso   1.00
C328   C     0.97528   0.04679   0.95915   0.00000  Uiso   1.00
C329   C     0.95125   0.07998   1.00482   0.00000  Uiso   1.00
C330   C     0.91302   0.08062   0.99027   0.00000  Uiso   1.00
C331   C     0.92326   0.94179   0.84864   0.00000  Uiso   1.00
C332   C     0.96213   0.94181   0.85443   0.00000  Uiso   1.00
C333   C     0.98027   0.97635   0.88801   0.00000  Uiso   1.00
C334   C     0.01563   0.04715   0.95742   0.00000  Uiso   1.00
C335   C     0.03697   0.01194   0.92283   0.00000  Uiso   1.00
C336   C     0.02002   0.97655   0.89224   0.00000  Uiso   1.00
N337   N     0.12985   0.84991   0.84871   0.00000  Uiso   1.00
C338   C     0.09981   0.87869   0.85036   0.00000  Uiso   1.00
C339   C     0.06305   0.87736   0.96082   0.00000  Uiso   1.00
C340   C     0.03629   0.90824   0.96926   0.00000  Uiso   1.00
C341   C     0.04548   0.94081   0.86713   0.00000  Uiso   1.00
C342   C     0.08177   0.94150   0.75436   0.00000  Uiso   1.00
C343   C     0.10868   0.91088   0.74698   0.00000  Uiso   1.00
N344   N     0.10936   0.18359   1.00906   0.00000  Uiso   1.00
C345   C     0.08588   0.14920   1.00284   0.00000  Uiso   1.00
C346   C     0.09135   0.11290   1.07222   0.00000  Uiso   1.00
C347   C     0.06717   0.08077   1.06409   0.00000  Uiso   1.00
C348   C     0.03775   0.08343   0.98219   0.00000  Uiso   1.00
C349   C     0.03304   0.11963   0.91038   0.00000  Uiso   1.00
C350   C     0.05627   0.15221   0.92361   0.00000  Uiso   1.00
H351   H     0.14976   0.16099   1.12183   0.00000  Uiso   1.00
H352   H     0.09486   0.80226   0.94151   0.00000  Uiso   1.00
H353   H     0.78516   0.22483   0.89152   0.00000  Uiso   1.00
H354   H     0.82728   0.17463   0.78559   0.00000  Uiso   1.00
H355   H     0.87315   0.12067   0.78354   0.00000  Uiso   1.00
H356   H     0.78348   0.05585   1.11388   0.00000  Uiso   1.00
H357   H     0.73743   0.11018   1.11706   0.00000  Uiso   1.00
H358   H     0.75070   0.89848   1.00293   0.00000  Uiso   1.00
H359   H     0.79001   0.95427   1.04026   0.00000  Uiso   1.00
H360   H     0.88023   0.91958   0.63100   0.00000  Uiso   1.00
H361   H     0.84123   0.86223   0.59538   0.00000  Uiso   1.00
H362   H     0.81130   0.01362   0.87056   0.00000  Uiso   1.00
H363   H     0.96150   0.10591   1.05374   0.00000  Uiso   1.00
H364   H     0.89663   0.10753   1.02189   0.00000  Uiso   1.00
H365   H     0.91099   0.91363   0.83032   0.00000  Uiso   1.00
H366   H     0.97768   0.91412   0.83322   0.00000  Uiso   1.00
H367   H     0.06781   0.01188   0.91894   0.00000  Uiso   1.00
H368   H     0.05563   0.85367   1.04607   0.00000  Uiso   1.00
H369   H     0.00896   0.90743   1.05943   0.00000  Uiso   1.00
H370   H     0.08971   0.96639   0.67488   0.00000  Uiso   1.00
H371   H     0.13686   0.91253   0.66193   0.00000  Uiso   1.00
H372   H     0.11347   0.10905   1.13606   0.00000  Uiso   1.00
H373   H     0.07173   0.05359   1.12182   0.00000  Uiso   1.00
H374   H     0.01249   0.12248   0.83816   0.00000  Uiso   1.00
H375   H     0.05203   0.17970   0.86710   0.00000  Uiso   1.00
H376   H     0.71601   0.85706   0.90990   0.00000  Uiso   1.00
loop_
_geom_bond_atom_site_label_1
_geom_bond_atom_site_label_2
_geom_bond_distance
_geom_bond_site_symmetry_2
_ccdc_geom_bond_type
C1     C2      1.480   .     D
C1     H6      1.083   .     S
C1     C65     1.398   .     S
C2     C3      1.401   .     S
C2     C5      1.478   .     S
C3     C4      1.397   .     D
C3     H7      1.083   .     S
C4     C64     1.406   .     S
C4     H108    1.084   .     S
C5     N156    1.302   .     D
C5     H163    1.080   .     S
C8     C9      1.482   .     S
C8     N149    1.301   .     D
C8     H164    1.083   .     S
C9     C71     1.407   .     D
C9     C75     1.403   .     S
H10    C71     1.083   .     S
H11    C75     1.083   .     S
C12    C13     1.389   .     D
C12    C17     1.404   .     S
C12    H77     1.080   .     S
C13    C14     1.404   .     S
C13    H78     1.080   .     S
C14    C15     1.424   .     S
C14    C22     1.417   .     D
C15    C16     1.429   .     D
C15    C21     1.425   .     S
C16    C17     1.420   .     S
C16    C18     1.424   .     S
C17    C25     1.416   .     D
C18    C19     1.404   .     D
C18    C27     1.426   .     S
C19    C20     1.392   .     S
C19    H79     1.078   .     S
C20    C21     1.406   .     D
C20    H80     1.075   .     S
C21    C24     1.427   .     S
C22    C23     1.398   .     S
C22    C30     1.498   .     S
C23    C24     1.403   .     D
C23    H81     1.084   .     S
C24    C31     1.506   .     S
C25    C26     1.398   .     S
C25    C28     1.493   .     S
C26    C27     1.404   .     D
C26    H82     1.084   .     S
C27    C29     1.503   .     S
C28    C37     1.407   .     D
C28    C41     1.404   .     S
C29    C32     1.409   .     D
C29    C36     1.408   .     S
C30    C47     1.407   .     D
C30    C51     1.408   .     S
C31    C42     1.409   .     D
C31    C46     1.408   .     S
C32    C33     1.405   .     S
C32    H83     1.083   .     S
C33    C34     1.409   .     D
C33    H84     1.081   .     S
C34    C35     1.397   .     S
C34    N52     1.441   .     S
C35    C36     1.396   .     D
C35    H85     1.083   .     S
C36    H86     1.083   .     S
C37    C38     1.402   .     S
C37    H87     1.083   .     S
C38    C39     1.410   .     D
C38    H88     1.080   .     S
C39    C40     1.399   .     S
C39    N60     1.440   .     S
C40    C41     1.396   .     D
C40    H89     1.083   .     S
C41    H90     1.081   .     S
C42    C43     1.393   .     S
C42    H91     1.084   .     S
C43    C44     1.406   .     D
C43    H92     1.079   .     S
C44    C45     1.402   .     S
C44    N62     1.444   .     S
C45    C46     1.405   .     D
C45    H93     1.083   .     S
C46    H94     1.082   .     S
C47    C48     1.395   .     S
C47    H95     1.082   .     S
C48    C49     1.397   .     D
C48    H96     1.083   .     S
C49    C50     1.409   .     S
C49    N61     1.439   .     S
C50    C51     1.405   .     D
C50    H97     1.081   .     S
C51    H98     1.083   .     S
N52    C53     1.301   .     D
C53    C54     1.484   .     S
C53    H99     1.082   .     S
C54    C55     1.407   .     D
C54    C59     1.405   .     S
C55    C56     1.401   .     S
C55    H100    1.083   .     S
C56    C57     1.404   .     D
C56    H101    1.083   .     S
C57    C58     1.407   .     S
C57    C117    1.483   .     S
C58    C59     1.402   .     D
C58    H102    1.083   .     S
C59    H103    1.083   .     S
N60    C70     1.301   .     D
N61    C76     1.300   .     D
N62    C63     1.303   .     D
C63    C64     1.479   .     S
C63    H104    1.080   .     S
C64    C65     1.406   .     D
C65    H105    1.083   .     S
C66    C67     1.479   .     S
C66    H106    1.082   .     S
C66    C114    1.397   .     D
C67    C68     1.402   .     D
C67    C70     1.479   .     S
C68    C69     1.398   .     S
C68    H107    1.083   .     S
C69    C113    1.406   .     D
C69    H116    1.084   .     S
C70    H109    1.080   .     S
C71    C72     1.402   .     S
C72    C73     1.405   .     D
C72    H110    1.083   .     S
C73    C74     1.407   .     S
C73    C76     1.483   .     S
C74    C75     1.400   .     D
C74    H111    1.083   .     S
C76    H112    1.083   .     S
C113   C114    1.407   .     S
C113   C126    1.481   .     S
C114   H115    1.083   .     S
C117   N118    1.300   .     D
C117   H165    1.083   .     S
N118   C119    1.441   .     S
C119   C120    1.408   .     D
C119   C124    1.400   .     S
C120   C121    1.402   .     S
C120   H166    1.081   .     S
C121   C122    1.405   .     D
C121   H167    1.079   .     S
C122   C123    1.407   .     S
C122   C125    1.496   .     S
C123   C124    1.399   .     D
C123   H168    1.083   .     S
C124   H169    1.083   .     S
C125   C134    1.419   .     S
C125   C138    1.399   .     D
C126   N127    1.302   .     D
C126   H188    1.080   .     S
N127   C128    1.443   .     S
C128   C129    1.409   .     D
C128   C133    1.401   .     S
C129   C130    1.398   .     S
C129   H170    1.079   .     S
C130   C131    1.407   .     D
C130   H171    1.083   .     S
C131   C132    1.404   .     S
C131   C137    1.498   .     S
C132   C133    1.400   .     D
C132   H172    1.078   .     S
C133   H173    1.083   .     S
C134   C135    1.422   .     D
C134   C142    1.403   .     S
C135   C136    1.424   1_545 S
C135   C139    1.428   .     S
C136   C135    1.424   1_565 S
C136   C137    1.424   .     D
C136   C143    1.407   .     S
C137   C138    1.401   1_565 S
C138   C137    1.401   1_545 S
C138   H174    1.085   .     S
C139   C140    1.424   .     D
C139   C145    1.421   1_545 S
C140   C141    1.405   .     S
C140   C146    1.425   1_655 S
C141   C142    1.391   .     D
C141   H175    1.080   .     S
C142   H176    1.079   .     S
C143   C144    1.390   .     D
C143   H177    1.078   .     S
C144   C145    1.402   .     S
C144   H178    1.080   .     S
C145   C139    1.421   1_565 S
C145   C148    1.417   1_655 D
C146   C140    1.425   1_455 S
C146   C147    1.404   .     D
C146   C160    1.503   .     S
C147   C148    1.397   1_545 S
C147   H179    1.084   .     S
C148   C145    1.417   1_455 D
C148   C147    1.397   1_565 S
C148   C153    1.492   .     S
N149   C150    1.441   .     S
C150   C151    1.409   .     D
C150   C155    1.400   .     S
C151   C152    1.401   .     S
C151   H180    1.081   .     S
C152   C153    1.405   .     D
C152   H181    1.081   .     S
C153   C154    1.406   .     S
C154   C155    1.399   .     D
C154   H182    1.083   .     S
C155   H183    1.083   .     S
N156   C157    1.441   .     S
C157   C158    1.407   .     D
C157   C162    1.400   .     S
C158   C159    1.398   .     S
C158   H184    1.079   .     S
C159   C160    1.409   .     D
C159   H185    1.082   .     S
C160   C161    1.407   .     S
C161   C162    1.399   .     D
C161   H186    1.082   .     S
C162   H187    1.083   .     S
C189   C190    1.480   .     D
C189   H194    1.083   .     S
C189   C253    1.398   .     S
C190   C191    1.401   .     S
C190   C193    1.478   .     S
C191   C192    1.397   .     D
C191   H195    1.083   .     S
C192   C252    1.406   .     S
C192   H296    1.084   .     S
C193   N344    1.302   .     D
C193   H351    1.080   .     S
C196   C197    1.482   .     D
C196   N337    1.301   .     S
C196   H352    1.083   .     S
C197   C259    1.407   .     S
C197   C263    1.403   .     S
H198   C259    1.083   .     S
H199   C263    1.083   .     S
C200   C201    1.389   .     S
C200   C205    1.404   .     D
C200   H265    1.080   .     S
C201   C202    1.404   .     D
C201   H266    1.080   .     S
C202   C203    1.424   .     S
C202   C210    1.417   .     S
C203   C204    1.429   .     S
C203   C209    1.425   .     D
C204   C205    1.420   .     S
C204   C206    1.424   .     D
C205   C213    1.416   .     S
C206   C207    1.404   .     S
C206   C215    1.426   .     S
C207   C208    1.392   .     D
C207   H267    1.078   .     S
C208   C209    1.406   .     S
C208   H268    1.075   .     S
C209   C212    1.427   .     S
C210   C211    1.398   .     S
C210   C218    1.498   .     D
C211   C212    1.403   .     D
C211   H269    1.084   .     S
C212   C219    1.506   .     S
C213   C214    1.398   .     D
C213   C216    1.493   .     S
C214   C215    1.404   .     S
C214   H270    1.084   .     S
C215   C217    1.503   .     D
C216   C225    1.407   .     D
C216   C229    1.404   .     S
C217   C220    1.409   .     S
C217   C224    1.408   .     S
C218   C235    1.406   .     S
C218   C239    1.408   .     S
C219   C230    1.409   .     D
C219   C234    1.408   .     S
C220   C221    1.405   .     D
C220   H271    1.083   .     S
C221   C222    1.409   .     S
C221   H272    1.081   .     S
C222   C223    1.397   .     S
C222   N240    1.441   .     D
C223   C224    1.396   .     D
C223   H273    1.083   .     S
C224   H274    1.083   .     S
C225   C226    1.402   .     S
C225   H275    1.083   .     S
C226   C227    1.410   .     D
C226   H276    1.080   .     S
C227   C228    1.399   .     S
C227   N248    1.440   .     S
C228   C229    1.396   .     D
C228   H277    1.083   .     S
C229   H278    1.081   .     S
C230   C231    1.393   .     S
C230   H279    1.084   .     S
C231   C232    1.406   .     D
C231   H280    1.079   .     S
C232   C233    1.402   .     S
C232   N250    1.444   .     S
C233   C234    1.405   .     D
C233   H281    1.083   .     S
C234   H282    1.082   .     S
C235   C236    1.395   .     D
C235   H283    1.082   .     S
C236   C237    1.397   .     S
C236   H284    1.083   .     S
C237   C238    1.409   .     S
C237   N249    1.439   .     D
C238   C239    1.405   .     D
C238   H285    1.081   .     S
C239   H286    1.083   .     S
N240   C241    1.301   .     S
C241   C242    1.484   .     D
C241   H287    1.082   .     S
C242   C243    1.407   .     S
C242   C247    1.405   .     S
C243   C244    1.401   .     D
C243   H288    1.083   .     S
C244   C245    1.404   .     S
C244   H289    1.083   .     S
C245   C246    1.407   .     S
C245   C305    1.483   .     D
C246   C247    1.402   .     D
C246   H290    1.083   .     S
C247   H291    1.083   .     S
N248   C258    1.301   .     D
N249   C264    1.300   .     S
N250   C251    1.303   .     D
C251   C252    1.479   .     S
C251   H292    1.080   .     S
C252   C253    1.406   .     D
C253   H293    1.083   .     S
C254   C255    1.479   .     S
C254   H294    1.082   .     S
C254   C302    1.397   .     D
C255   C256    1.402   .     D
C255   C258    1.479   .     S
C256   C257    1.398   .     S
C256   H295    1.083   .     S
C257   C301    1.406   .     D
C257   H304    1.084   .     S
C258   H297    1.080   .     S
C259   C260    1.402   .     D
C260   C261    1.405   .     S
C260   H298    1.083   .     S
C261   C262    1.407   .     S
C261   C264    1.483   .     D
C262   C263    1.400   .     D
C262   H299    1.083   .     S
C264   H300    1.083   .     S
C301   C302    1.407   .     S
C301   C314    1.480   .     S
C302   H303    1.083   .     S
C305   N306    1.300   .     S
C305   H353    1.083   .     S
N306   C307    1.441   .     D
C307   C308    1.408   .     S
C307   C312    1.400   .     S
C308   C309    1.402   .     D
C308   H354    1.081   .     S
C309   C310    1.405   .     S
C309   H355    1.079   .     S
C310   C311    1.407   .     S
C310   C313    1.496   .     D
C311   C312    1.399   .     D
C311   H356    1.083   .     S
C312   H357    1.083   .     S
C313   C322    1.419   .     S
C313   C326    1.399   .     S
C314   N315    1.302   .     D
C314   H376    1.080   .     S
N315   C316    1.443   .     S
C316   C317    1.409   .     D
C316   C321    1.401   .     S
C317   C318    1.398   .     S
C317   H358    1.079   .     S
C318   C319    1.407   .     D
C318   H359    1.083   .     S
C319   C320    1.404   .     S
C319   C325    1.498   .     S
C320   C321    1.400   .     D
C320   H360    1.078   .     S
C321   H361    1.083   .     S
C322   C323    1.422   .     S
C322   C330    1.403   .     D
C323   C324    1.424   1_545 S
C323   C327    1.428   .     D
C324   C323    1.424   1_565 S
C324   C325    1.424   .     S
C324   C331    1.407   .     D
C325   C326    1.401   1_565 D
C326   C325    1.401   1_545 D
C326   H362    1.085   .     S
C327   C328    1.423   .     S
C327   C333    1.421   1_545 S
C328   C329    1.405   .     D
C328   C334    1.425   1_655 S
C329   C330    1.391   .     S
C329   H363    1.080   .     S
C330   H364    1.079   .     S
C331   C332    1.390   .     S
C331   H365    1.078   .     S
C332   C333    1.402   .     D
C332   H366    1.080   .     S
C333   C327    1.421   1_565 S
C333   C336    1.417   1_655 S
C334   C328    1.425   1_455 S
C334   C335    1.404   .     D
C334   C348    1.503   .     S
C335   C336    1.397   1_545 S
C335   H367    1.084   .     S
C336   C333    1.417   1_455 S
C336   C335    1.397   1_565 S
C336   C341    1.492   .     D
N337   C338    1.441   .     D
C338   C339    1.409   .     S
C338   C343    1.400   .     S
C339   C340    1.401   .     D
C339   H368    1.081   .     S
C340   C341    1.405   .     S
C340   H369    1.081   .     S
C341   C342    1.406   .     S
C342   C343    1.399   .     D
C342   H370    1.083   .     S
C343   H371    1.083   .     S
N344   C345    1.441   .     S
C345   C346    1.407   .     D
C345   C350    1.400   .     S
C346   C347    1.398   .     S
C346   H372    1.079   .     S
C347   C348    1.409   .     D
C347   H373    1.082   .     S
C348   C349    1.408   .     S
C349   C350    1.399   .     D
C349   H374    1.082   .     S
C350   H375    1.083   .     S
