data_384
_audit_creation_date              2023-09-08
_audit_creation_method            'Materials Studio'
_symmetry_space_group_name_H-M    'P1'
_symmetry_Int_Tables_number       1
_symmetry_cell_setting            triclinic
loop_
_symmetry_equiv_pos_as_xyz
  x,y,z
_cell_length_a                    42.1400
_cell_length_b                    36.9000
_cell_length_c                    4.3300
_cell_angle_alpha                 90.0000
_cell_angle_beta                  90.0000
_cell_angle_gamma                 90.0000
loop_
_atom_site_label
_atom_site_type_symbol
_atom_site_fract_x
_atom_site_fract_y
_atom_site_fract_z
_atom_site_U_iso_or_equiv
_atom_site_adp_type
_atom_site_occupancy
C1     C     0.97083   0.46141   0.18057   0.00000  Uiso   1.00
C2     C     0.02917   0.53859   0.18057   0.00000  Uiso   1.00
C3     C     0.97083   0.53859   0.18057   0.00000  Uiso   1.00
C4     C     0.02917   0.46141   0.18057   0.00000  Uiso   1.00
C5     C     0.47094   0.96151   0.62900   0.00000  Uiso   1.00
C6     C     0.52906   0.03849   0.62900   0.00000  Uiso   1.00
C7     C     0.47094   0.03849   0.62900   0.00000  Uiso   1.00
C8     C     0.52906   0.96151   0.62900   0.00000  Uiso   1.00
C9     C     0.94285   0.51881   0.12632   0.00000  Uiso   1.00
C10    C     0.05715   0.48119   0.12632   0.00000  Uiso   1.00
C11    C     0.94285   0.48119   0.12632   0.00000  Uiso   1.00
C12    C     0.05715   0.51881   0.12632   0.00000  Uiso   1.00
C13    C     0.44321   0.01882   0.56343   0.00000  Uiso   1.00
C14    C     0.55679   0.98118   0.56343   0.00000  Uiso   1.00
C15    C     0.44321   0.98118   0.56343   0.00000  Uiso   1.00
C16    C     0.55679   0.01882   0.56343   0.00000  Uiso   1.00
C17    C     0.97071   0.57711   0.20059   0.00000  Uiso   1.00
C18    C     0.02929   0.42289   0.20059   0.00000  Uiso   1.00
C19    C     0.97071   0.42289   0.20059   0.00000  Uiso   1.00
C20    C     0.02929   0.57711   0.20059   0.00000  Uiso   1.00
C21    C     0.47076   0.07917   0.63761   0.00000  Uiso   1.00
C22    C     0.52924   0.92083   0.63761   0.00000  Uiso   1.00
C23    C     0.47076   0.92083   0.63761   0.00000  Uiso   1.00
C24    C     0.52924   0.07917   0.63761   0.00000  Uiso   1.00
C25    C     0.94268   0.59808   0.24206   0.00000  Uiso   1.00
C26    C     0.05733   0.40192   0.24206   0.00000  Uiso   1.00
C27    C     0.94268   0.40192   0.24206   0.00000  Uiso   1.00
C28    C     0.05733   0.59808   0.24206   0.00000  Uiso   1.00
C29    C     0.44251   0.09980   0.67182   0.00000  Uiso   1.00
C30    C     0.55749   0.90020   0.67182   0.00000  Uiso   1.00
C31    C     0.44251   0.90020   0.67182   0.00000  Uiso   1.00
C32    C     0.55749   0.09980   0.67182   0.00000  Uiso   1.00
C33    C     0.91811   0.58647   0.43979   0.00000  Uiso   1.00
C34    C     0.08190   0.41353   0.43979   0.00000  Uiso   1.00
C35    C     0.91811   0.41353   0.43979   0.00000  Uiso   1.00
C36    C     0.08190   0.58647   0.43979   0.00000  Uiso   1.00
C37    C     0.41730   0.08761   0.85887   0.00000  Uiso   1.00
C38    C     0.58270   0.91239   0.85887   0.00000  Uiso   1.00
C39    C     0.41730   0.91239   0.85887   0.00000  Uiso   1.00
C40    C     0.58270   0.08761   0.85887   0.00000  Uiso   1.00
C41    C     0.89132   0.60807   0.49018   0.00000  Uiso   1.00
C42    C     0.10868   0.39193   0.49018   0.00000  Uiso   1.00
C43    C     0.89132   0.39193   0.49018   0.00000  Uiso   1.00
C44    C     0.10868   0.60807   0.49018   0.00000  Uiso   1.00
C45    C     0.38924   0.10767   0.88432   0.00000  Uiso   1.00
C46    C     0.61076   0.89233   0.88432   0.00000  Uiso   1.00
C47    C     0.38924   0.89233   0.88432   0.00000  Uiso   1.00
C48    C     0.61076   0.10767   0.88432   0.00000  Uiso   1.00
C49    C     0.88884   0.64243   0.35675   0.00000  Uiso   1.00
C50    C     0.11116   0.35758   0.35675   0.00000  Uiso   1.00
C51    C     0.88884   0.35758   0.35675   0.00000  Uiso   1.00
C52    C     0.11116   0.64243   0.35675   0.00000  Uiso   1.00
C53    C     0.38599   0.14105   0.73537   0.00000  Uiso   1.00
C54    C     0.61401   0.85895   0.73537   0.00000  Uiso   1.00
C55    C     0.38599   0.85895   0.73537   0.00000  Uiso   1.00
C56    C     0.61401   0.14105   0.73537   0.00000  Uiso   1.00
C57    C     0.91325   0.65444   0.16001   0.00000  Uiso   1.00
C58    C     0.08675   0.34556   0.16001   0.00000  Uiso   1.00
C59    C     0.91325   0.34556   0.16001   0.00000  Uiso   1.00
C60    C     0.08675   0.65444   0.16001   0.00000  Uiso   1.00
C61    C     0.41141   0.15412   0.55643   0.00000  Uiso   1.00
C62    C     0.58859   0.84588   0.55643   0.00000  Uiso   1.00
C63    C     0.41141   0.84588   0.55643   0.00000  Uiso   1.00
C64    C     0.58859   0.15412   0.55643   0.00000  Uiso   1.00
C65    C     0.93972   0.63255   0.10358   0.00000  Uiso   1.00
C66    C     0.06028   0.36745   0.10358   0.00000  Uiso   1.00
C67    C     0.93972   0.36745   0.10358   0.00000  Uiso   1.00
C68    C     0.06028   0.63255   0.10358   0.00000  Uiso   1.00
C69    C     0.43921   0.13375   0.52488   0.00000  Uiso   1.00
C70    C     0.56079   0.86626   0.52488   0.00000  Uiso   1.00
C71    C     0.43921   0.86626   0.52488   0.00000  Uiso   1.00
C72    C     0.56079   0.13375   0.52488   0.00000  Uiso   1.00
N73    N     0.86274   0.66269   0.42277   0.00000  Uiso   1.00
N74    N     0.13726   0.33731   0.42277   0.00000  Uiso   1.00
N75    N     0.86274   0.33731   0.42277   0.00000  Uiso   1.00
N76    N     0.13726   0.66269   0.42277   0.00000  Uiso   1.00
N77    N     0.35777   0.15871   0.75819   0.00000  Uiso   1.00
N78    N     0.64223   0.84129   0.75819   0.00000  Uiso   1.00
N79    N     0.35777   0.84129   0.75819   0.00000  Uiso   1.00
N80    N     0.64223   0.15871   0.75819   0.00000  Uiso   1.00
H81    H     0.92065   0.53224   0.07578   0.00000  Uiso   1.00
H82    H     0.07935   0.46776   0.07578   0.00000  Uiso   1.00
H83    H     0.92065   0.46776   0.07578   0.00000  Uiso   1.00
H84    H     0.07935   0.53224   0.07578   0.00000  Uiso   1.00
H85    H     0.42134   0.03241   0.50357   0.00000  Uiso   1.00
H86    H     0.57866   0.96759   0.50357   0.00000  Uiso   1.00
H87    H     0.42134   0.96759   0.50357   0.00000  Uiso   1.00
H88    H     0.57866   0.03241   0.50357   0.00000  Uiso   1.00
H89    H     0.92016   0.56132   0.56668   0.00000  Uiso   1.00
H90    H     0.07984   0.43868   0.56668   0.00000  Uiso   1.00
H91    H     0.92016   0.43868   0.56668   0.00000  Uiso   1.00
H92    H     0.07984   0.56132   0.56668   0.00000  Uiso   1.00
H93    H     0.41952   0.06293   0.99205   0.00000  Uiso   1.00
H94    H     0.58047   0.93707   0.99205   0.00000  Uiso   1.00
H95    H     0.41952   0.93707   0.99205   0.00000  Uiso   1.00
H96    H     0.58047   0.06293   0.99205   0.00000  Uiso   1.00
H97    H     0.87291   0.59880   0.64570   0.00000  Uiso   1.00
H98    H     0.12709   0.40120   0.64570   0.00000  Uiso   1.00
H99    H     0.87291   0.40120   0.64570   0.00000  Uiso   1.00
H100   H     0.12709   0.59880   0.64570   0.00000  Uiso   1.00
H101   H     0.37005   0.09767   1.02704   0.00000  Uiso   1.00
H102   H     0.62995   0.90233   1.02704   0.00000  Uiso   1.00
H103   H     0.37005   0.90233   1.02704   0.00000  Uiso   1.00
H104   H     0.62995   0.09767   1.02704   0.00000  Uiso   1.00
H105   H     0.91167   0.68000   0.03977   0.00000  Uiso   1.00
H106   H     0.08833   0.32001   0.03977   0.00000  Uiso   1.00
H107   H     0.91167   0.32001   0.03977   0.00000  Uiso   1.00
H108   H     0.08833   0.68000   0.03977   0.00000  Uiso   1.00
H109   H     0.40945   0.17896   0.42611   0.00000  Uiso   1.00
H110   H     0.59055   0.82104   0.42611   0.00000  Uiso   1.00
H111   H     0.40945   0.82104   0.42611   0.00000  Uiso   1.00
H112   H     0.59055   0.17896   0.42611   0.00000  Uiso   1.00
H113   H     0.95746   0.64216  -0.05800   0.00000  Uiso   1.00
H114   H     0.04254   0.35784  -0.05800   0.00000  Uiso   1.00
H115   H     0.95746   0.35784  -0.05800   0.00000  Uiso   1.00
H116   H     0.04254   0.64216  -0.05800   0.00000  Uiso   1.00
H117   H     0.45743   0.14377   0.37050   0.00000  Uiso   1.00
H118   H     0.54257   0.85623   0.37050   0.00000  Uiso   1.00
H119   H     0.45743   0.85623   0.37050   0.00000  Uiso   1.00
H120   H     0.54257   0.14377   0.37050   0.00000  Uiso   1.00
C121   C     0.85836   0.69842   0.36034   0.00000  Uiso   1.00
C122   C     0.14164   0.30158   0.36034   0.00000  Uiso   1.00
C123   C     0.85836   0.30158   0.36034   0.00000  Uiso   1.00
C124   C     0.14164   0.69842   0.36034   0.00000  Uiso   1.00
C125   C     0.35171   0.19349   0.67401   0.00000  Uiso   1.00
C126   C     0.64829   0.80651   0.67401   0.00000  Uiso   1.00
C127   C     0.35171   0.80651   0.67401   0.00000  Uiso   1.00
C128   C     0.64829   0.19349   0.67401   0.00000  Uiso   1.00
C129   C     0.00000   0.59535   0.20374   0.00000  Uiso   1.00
C130   C     0.00000   0.40465   0.20374   0.00000  Uiso   1.00
C131   C     0.50000   0.09738   0.63145   0.00000  Uiso   1.00
C132   C     0.50000   0.90262   0.63145   0.00000  Uiso   1.00
C133   C     0.00000   0.48064   0.18599   0.00000  Uiso   1.00
C134   C     0.00000   0.51936   0.18599   0.00000  Uiso   1.00
C135   C     0.50000   0.98065   0.64353   0.00000  Uiso   1.00
C136   C     0.50000   0.01935   0.64353   0.00000  Uiso   1.00
H137   H     0.00000   0.62434   0.24267   0.00000  Uiso   1.00
H138   H     0.00000   0.37566   0.24267   0.00000  Uiso   1.00
H139   H     0.50000   0.12653   0.66021   0.00000  Uiso   1.00
H140   H     0.50000   0.87348   0.66021   0.00000  Uiso   1.00
C141   C     0.17055   0.28456   0.42485   0.00000  Uiso   1.00
C142   C     0.82946   0.71545   0.42485   0.00000  Uiso   1.00
C143   C     0.17055   0.71545   0.42485   0.00000  Uiso   1.00
C144   C     0.82946   0.28456   0.42485   0.00000  Uiso   1.00
C145   C     0.17317   0.24679   0.40024   0.00000  Uiso   1.00
C146   C     0.82683   0.75321   0.40024   0.00000  Uiso   1.00
C147   C     0.17317   0.75321   0.40024   0.00000  Uiso   1.00
C148   C     0.82683   0.24679   0.40024   0.00000  Uiso   1.00
C149   C     0.20197   0.22959   0.46367   0.00000  Uiso   1.00
C150   C     0.79803   0.77041   0.46367   0.00000  Uiso   1.00
C151   C     0.20197   0.77041   0.46367   0.00000  Uiso   1.00
C152   C     0.79803   0.22959   0.46367   0.00000  Uiso   1.00
C153   C     0.22885   0.25039   0.54382   0.00000  Uiso   1.00
C154   C     0.77115   0.74961   0.54382   0.00000  Uiso   1.00
C155   C     0.22885   0.74961   0.54382   0.00000  Uiso   1.00
C156   C     0.77115   0.25039   0.54382   0.00000  Uiso   1.00
N157   N     0.22564   0.28713   0.56119   0.00000  Uiso   1.00
N158   N     0.77436   0.71287   0.56119   0.00000  Uiso   1.00
N159   N     0.22564   0.71287   0.56119   0.00000  Uiso   1.00
N160   N     0.77436   0.28713   0.56119   0.00000  Uiso   1.00
C161   C     0.19761   0.30438   0.50994   0.00000  Uiso   1.00
C162   C     0.80239   0.69562   0.50994   0.00000  Uiso   1.00
C163   C     0.19761   0.69562   0.50994   0.00000  Uiso   1.00
C164   C     0.80239   0.30438   0.50994   0.00000  Uiso   1.00
H165   H     0.15294   0.23052   0.33178   0.00000  Uiso   1.00
H166   H     0.84706   0.76948   0.33178   0.00000  Uiso   1.00
H167   H     0.15294   0.76948   0.33178   0.00000  Uiso   1.00
H168   H     0.84706   0.23052   0.33178   0.00000  Uiso   1.00
H169   H     0.20318   0.20057   0.43407   0.00000  Uiso   1.00
H170   H     0.79682   0.79943   0.43407   0.00000  Uiso   1.00
H171   H     0.20318   0.79943   0.43407   0.00000  Uiso   1.00
H172   H     0.79682   0.20057   0.43407   0.00000  Uiso   1.00
H173   H     0.19672   0.33362   0.52927   0.00000  Uiso   1.00
H174   H     0.80328   0.66638   0.52927   0.00000  Uiso   1.00
H175   H     0.19672   0.66638   0.52927   0.00000  Uiso   1.00
H176   H     0.80328   0.33362   0.52927   0.00000  Uiso   1.00
C177   C     0.67936   0.79317   0.66270   0.00000  Uiso   1.00
C178   C     0.32064   0.20683   0.66270   0.00000  Uiso   1.00
C179   C     0.67936   0.20683   0.66270   0.00000  Uiso   1.00
C180   C     0.32064   0.79317   0.66270   0.00000  Uiso   1.00
C181   C     0.68475   0.75623   0.60795   0.00000  Uiso   1.00
C182   C     0.31526   0.24377   0.60795   0.00000  Uiso   1.00
C183   C     0.68475   0.24377   0.60795   0.00000  Uiso   1.00
C184   C     0.31526   0.75623   0.60795   0.00000  Uiso   1.00
N185   N     0.71481   0.74337   0.57863   0.00000  Uiso   1.00
N186   N     0.28519   0.25663   0.57863   0.00000  Uiso   1.00
N187   N     0.71481   0.25663   0.57863   0.00000  Uiso   1.00
N188   N     0.28519   0.74337   0.57863   0.00000  Uiso   1.00
C189   C     0.74093   0.76513   0.59419   0.00000  Uiso   1.00
C190   C     0.25907   0.23487   0.59419   0.00000  Uiso   1.00
C191   C     0.74093   0.23487   0.59419   0.00000  Uiso   1.00
C192   C     0.25907   0.76513   0.59419   0.00000  Uiso   1.00
C193   C     0.73645   0.80233   0.65654   0.00000  Uiso   1.00
C194   C     0.26355   0.19767   0.65654   0.00000  Uiso   1.00
C195   C     0.73645   0.19767   0.65654   0.00000  Uiso   1.00
C196   C     0.26355   0.80233   0.65654   0.00000  Uiso   1.00
C197   C     0.70577   0.81605   0.69400   0.00000  Uiso   1.00
C198   C     0.29423   0.18395   0.69400   0.00000  Uiso   1.00
C199   C     0.70577   0.18395   0.69400   0.00000  Uiso   1.00
C200   C     0.29423   0.81605   0.69400   0.00000  Uiso   1.00
H201   H     0.66508   0.73750   0.58653   0.00000  Uiso   1.00
H202   H     0.33492   0.26250   0.58653   0.00000  Uiso   1.00
H203   H     0.66508   0.26250   0.58653   0.00000  Uiso   1.00
H204   H     0.33492   0.73750   0.58653   0.00000  Uiso   1.00
H205   H     0.75616   0.82073   0.68500   0.00000  Uiso   1.00
H206   H     0.24384   0.17927   0.68500   0.00000  Uiso   1.00
H207   H     0.75616   0.17927   0.68500   0.00000  Uiso   1.00
H208   H     0.24384   0.82073   0.68500   0.00000  Uiso   1.00
H209   H     0.70266   0.84469   0.74056   0.00000  Uiso   1.00
H210   H     0.29734   0.15531   0.74056   0.00000  Uiso   1.00
H211   H     0.70266   0.15531   0.74056   0.00000  Uiso   1.00
H212   H     0.29734   0.84469   0.74056   0.00000  Uiso   1.00
H213   H     0.37102   0.78823   0.61985   0.00000  Uiso   1.00
H214   H     0.12226   0.71483   0.27482   0.00000  Uiso   1.00
H215   H     0.62898   0.21177   0.61985   0.00000  Uiso   1.00
H216   H     0.87774   0.28517   0.27482   0.00000  Uiso   1.00
H217   H     0.37102   0.21177   0.61985   0.00000  Uiso   1.00
H218   H     0.12226   0.28517   0.27482   0.00000  Uiso   1.00
H219   H     0.62898   0.78823   0.61985   0.00000  Uiso   1.00
H220   H     0.87774   0.71483   0.27482   0.00000  Uiso   1.00
loop_
_geom_bond_atom_site_label_1
_geom_bond_atom_site_label_2
_geom_bond_distance
_geom_bond_site_symmetry_2
_ccdc_geom_bond_type
C1     C11     1.406   .     D
C1     C19     1.424   .     S
C1     C133    1.420   1_655 S
C2     C12     1.406   .     S
C2     C20     1.424   .     D
C2     C134    1.420   .     S
C3     C9      1.406   .     D
C3     C17     1.424   .     S
C3     C134    1.420   1_655 S
C4     C10     1.406   .     S
C4     C18     1.424   .     D
C4     C133    1.420   .     S
C5     C15     1.405   .     S
C5     C23     1.501   .     D
C5     C135    1.415   .     S
C6     C16     1.405   .     S
C6     C24     1.502   .     S
C6     C136    1.415   .     D
C7     C13     1.405   .     S
C7     C21     1.502   .     D
C7     C136    1.415   .     S
C8     C14     1.405   .     S
C8     C22     1.501   .     S
C8     C135    1.415   .     D
C9     C11     1.388   .     S
C9     H81     1.081   .     S
C10    C12     1.388   .     D
C10    H82     1.081   .     S
C11    H83     1.081   .     S
C12    H84     1.081   .     S
C13    C15     1.389   1_545 D
C13    H85     1.081   .     S
C14    C16     1.389   1_565 D
C14    H86     1.081   .     S
C15    C13     1.389   1_565 D
C15    H87     1.081   .     S
C16    C14     1.389   1_545 D
C16    H88     1.081   .     S
C17    C25     1.424   .     S
C17    C129    1.406   1_655 D
C18    C26     1.424   .     S
C18    C130    1.406   .     S
C19    C27     1.424   .     S
C19    C130    1.406   1_655 D
C20    C28     1.424   .     S
C20    C129    1.406   .     S
C21    C29     1.421   .     S
C21    C131    1.404   .     S
C22    C30     1.421   .     S
C22    C132    1.404   .     D
C23    C31     1.421   .     S
C23    C132    1.404   .     S
C24    C32     1.421   .     S
C24    C131    1.404   .     D
C25    C33     1.410   .     D
C25    C65     1.412   .     S
C26    C34     1.410   .     D
C26    C66     1.412   .     S
C27    C35     1.410   .     S
C27    C67     1.412   .     D
C28    C36     1.410   .     D
C28    C68     1.412   .     S
C29    C37     1.409   .     S
C29    C69     1.412   .     D
C30    C38     1.409   .     D
C30    C70     1.412   .     S
C31    C39     1.409   .     D
C31    C71     1.412   .     S
C32    C40     1.409   .     D
C32    C72     1.412   .     S
C33    C41     1.399   .     S
C33    H89     1.082   .     S
C34    C42     1.399   .     S
C34    H90     1.082   .     S
C35    C43     1.399   .     D
C35    H91     1.082   .     S
C36    C44     1.399   .     S
C36    H92     1.082   .     S
C37    C45     1.399   .     D
C37    H93     1.082   .     S
C38    C46     1.399   .     S
C38    H94     1.082   .     S
C39    C47     1.399   .     S
C39    H95     1.082   .     S
C40    C48     1.399   .     S
C40    H96     1.082   .     S
C41    C49     1.397   .     D
C41    H97     1.083   .     S
C42    C50     1.397   .     D
C42    H98     1.083   .     S
C43    C51     1.397   .     S
C43    H99     1.083   .     S
C44    C52     1.397   .     D
C44    H100    1.083   .     S
C45    C53     1.397   .     S
C45    H101    1.083   .     S
C46    C54     1.397   .     D
C46    H102    1.083   .     S
C47    C55     1.397   .     D
C47    H103    1.083   .     S
C48    C56     1.397   .     D
C48    H104    1.083   .     S
C49    C57     1.407   .     S
C49    N73     1.360   .     S
C50    C58     1.407   .     S
C50    N74     1.360   .     S
C51    C59     1.407   .     D
C51    N75     1.360   .     S
C52    C60     1.407   .     S
C52    N76     1.360   .     S
C53    C61     1.407   .     D
C53    N77     1.360   .     S
C54    C62     1.407   .     S
C54    N78     1.360   .     S
C55    C63     1.407   .     S
C55    N79     1.360   .     S
C56    C64     1.407   .     S
C56    N80     1.360   .     S
C57    C65     1.399   .     D
C57    H105    1.079   .     S
C58    C66     1.399   .     D
C58    H106    1.079   .     S
C59    C67     1.399   .     S
C59    H107    1.079   .     S
C60    C68     1.399   .     D
C60    H108    1.079   .     S
C61    C69     1.399   .     S
C61    H109    1.079   .     S
C62    C70     1.399   .     D
C62    H110    1.079   .     S
C63    C71     1.399   .     D
C63    H111    1.079   .     S
C64    C72     1.399   .     D
C64    H112    1.079   .     S
C65    H113    1.084   .     S
C66    H114    1.084   .     S
C67    H115    1.084   .     S
C68    H116    1.084   .     S
C69    H117    1.083   .     S
C70    H118    1.083   .     S
C71    H119    1.083   .     S
C72    H120    1.083   .     S
N73    C121    1.358   .     D
N74    C122    1.358   .     D
N75    C123    1.358   .     D
N76    C124    1.358   .     D
N77    C125    1.358   .     D
N78    C126    1.358   .     D
N79    C127    1.358   .     D
N80    C128    1.358   .     D
C121   C142    1.399   .     S
C121   H220    1.082   .     S
C122   C141    1.399   .     S
C122   H218    1.082   .     S
C123   C144    1.399   .     S
C123   H216    1.082   .     S
C124   C143    1.399   .     S
C124   H214    1.082   .     S
C125   C178    1.400   .     S
C125   H217    1.083   .     S
C126   C177    1.400   .     S
C126   H219    1.083   .     S
C127   C180    1.400   .     S
C127   H213    1.083   .     S
C128   C179    1.400   .     S
C128   H215    1.083   .     S
C129   C17     1.406   1_455 D
C129   H137    1.083   .     S
C130   C19     1.406   1_455 D
C130   H138    1.083   .     S
C131   H139    1.082   .     S
C132   H140    1.082   .     S
C133   C1      1.420   1_455 S
C133   C134    1.428   .     D
C134   C3      1.420   1_455 S
C135   C136    1.428   1_565 S
C136   C135    1.428   1_545 S
C141   C145    1.402   .     S
C141   C161    1.404   .     D
C142   C146    1.402   .     D
C142   C162    1.404   .     S
C143   C147    1.402   .     D
C143   C163    1.404   .     S
C144   C148    1.402   .     D
C144   C164    1.404   .     S
C145   C149    1.397   .     D
C145   H165    1.084   .     S
C146   C150    1.397   .     S
C146   H166    1.084   .     S
C147   C151    1.397   .     S
C147   H167    1.084   .     S
C148   C152    1.397   .     S
C148   H168    1.084   .     S
C149   C153    1.411   .     S
C149   H169    1.080   .     S
C150   C154    1.411   .     D
C150   H170    1.080   .     S
C151   C155    1.411   .     D
C151   H171    1.080   .     S
C152   C156    1.411   .     D
C152   H172    1.080   .     S
C153   N157    1.365   .     D
C153   C190    1.413   .     S
C154   N158    1.365   .     S
C154   C189    1.413   .     S
C155   N159    1.365   .     S
C155   C192    1.413   .     S
C156   N160    1.365   .     S
C156   C191    1.413   .     S
N157   C161    1.360   .     S
N158   C162    1.360   .     D
N159   C163    1.360   .     D
N160   C164    1.360   .     D
C161   H173    1.083   .     S
C162   H174    1.083   .     S
C163   H175    1.083   .     S
C164   H176    1.083   .     S
C177   C181    1.402   .     D
C177   C197    1.404   .     S
C178   C182    1.402   .     S
C178   C198    1.404   .     D
C179   C183    1.402   .     D
C179   C199    1.404   .     S
C180   C184    1.402   .     S
C180   C200    1.404   .     D
C181   N185    1.359   .     S
C181   H201    1.083   .     S
C182   N186    1.359   .     D
C182   H202    1.083   .     S
C183   N187    1.359   .     S
C183   H203    1.083   .     S
C184   N188    1.359   .     D
C184   H204    1.083   .     S
N185   C189    1.364   .     D
N186   C190    1.364   .     S
N187   C191    1.364   .     D
N188   C192    1.364   .     S
C189   C193    1.412   .     S
C190   C194    1.412   .     D
C191   C195    1.412   .     S
C192   C196    1.412   .     D
C193   C197    1.398   .     D
C193   H205    1.080   .     S
C194   C198    1.398   .     S
C194   H206    1.080   .     S
C195   C199    1.398   .     D
C195   H207    1.080   .     S
C196   C200    1.398   .     S
C196   H208    1.080   .     S
C197   H209    1.084   .     S
C198   H210    1.084   .     S
C199   H211    1.084   .     S
C200   H212    1.084   .     S
