data_385
_audit_creation_date              2023-09-08
_audit_creation_method            'Materials Studio'
_symmetry_space_group_name_H-M    'P1'
_symmetry_Int_Tables_number       1
_symmetry_cell_setting            triclinic
loop_
_symmetry_equiv_pos_as_xyz
  x,y,z
_cell_length_a                    37.8006
_cell_length_b                    43.2645
_cell_length_c                    3.9593
_cell_angle_alpha                 90.0000
_cell_angle_beta                  90.0000
_cell_angle_gamma                 90.0000
loop_
_atom_site_label
_atom_site_type_symbol
_atom_site_fract_x
_atom_site_fract_y
_atom_site_fract_z
_atom_site_U_iso_or_equiv
_atom_site_adp_type
_atom_site_occupancy
C1     C     0.96743   0.46669   0.46389   0.00000  Uiso   1.00
C2     C     0.46743   0.96669   0.46389   0.00000  Uiso   1.00
C3     C     0.03260   0.53332   0.46389   0.00000  Uiso   1.00
C4     C     0.53260   0.03332   0.46389   0.00000  Uiso   1.00
C5     C     0.96743   0.53332   0.46389   0.00000  Uiso   1.00
C6     C     0.46743   0.03332   0.46389   0.00000  Uiso   1.00
C7     C     0.03260   0.46669   0.46389   0.00000  Uiso   1.00
C8     C     0.53260   0.96669   0.46389   0.00000  Uiso   1.00
C9     C     0.93634   0.51615   0.40143   0.00000  Uiso   1.00
C10    C     0.43634   0.01614   0.40143   0.00000  Uiso   1.00
C11    C     0.06369   0.48386   0.40143   0.00000  Uiso   1.00
C12    C     0.56369   0.98386   0.40143   0.00000  Uiso   1.00
C13    C     0.93634   0.48386   0.40143   0.00000  Uiso   1.00
C14    C     0.43634   0.98386   0.40143   0.00000  Uiso   1.00
C15    C     0.06369   0.51615   0.40143   0.00000  Uiso   1.00
C16    C     0.56369   0.01615   0.40143   0.00000  Uiso   1.00
C17    C     0.96704   0.56598   0.51628   0.00000  Uiso   1.00
C18    C     0.46704   0.06598   0.51628   0.00000  Uiso   1.00
C19    C     0.03298   0.43402   0.51628   0.00000  Uiso   1.00
C20    C     0.53298   0.93402   0.51628   0.00000  Uiso   1.00
C21    C     0.96704   0.43402   0.51628   0.00000  Uiso   1.00
C22    C     0.46704   0.93402   0.51628   0.00000  Uiso   1.00
C23    C     0.03298   0.56598   0.51628   0.00000  Uiso   1.00
C24    C     0.53298   0.06598   0.51628   0.00000  Uiso   1.00
C25    C     0.93614   0.58486   0.53435   0.00000  Uiso   1.00
C26    C     0.43614   0.08486   0.53435   0.00000  Uiso   1.00
C27    C     0.06389   0.41514   0.53435   0.00000  Uiso   1.00
C28    C     0.56389   0.91514   0.53435   0.00000  Uiso   1.00
C29    C     0.93614   0.41514   0.53435   0.00000  Uiso   1.00
C30    C     0.43614   0.91514   0.53435   0.00000  Uiso   1.00
C31    C     0.06389   0.58486   0.53435   0.00000  Uiso   1.00
C32    C     0.56389   0.08486   0.53435   0.00000  Uiso   1.00
C33    C     0.90592   0.57621   0.72310   0.00000  Uiso   1.00
C34    C     0.40592   0.07621   0.72310   0.00000  Uiso   1.00
C35    C     0.09411   0.42379   0.72310   0.00000  Uiso   1.00
C36    C     0.59411   0.92379   0.72310   0.00000  Uiso   1.00
C37    C     0.90592   0.42379   0.72310   0.00000  Uiso   1.00
C38    C     0.40592   0.92379   0.72310   0.00000  Uiso   1.00
C39    C     0.09411   0.57621   0.72310   0.00000  Uiso   1.00
C40    C     0.59411   0.07621   0.72310   0.00000  Uiso   1.00
C41    C     0.87546   0.59488   0.73640   0.00000  Uiso   1.00
C42    C     0.37546   0.09488   0.73640   0.00000  Uiso   1.00
C43    C     0.12457   0.40512   0.73640   0.00000  Uiso   1.00
C44    C     0.62457   0.90512   0.73640   0.00000  Uiso   1.00
C45    C     0.87546   0.40512   0.73640   0.00000  Uiso   1.00
C46    C     0.37546   0.90512   0.73640   0.00000  Uiso   1.00
C47    C     0.12457   0.59488   0.73640   0.00000  Uiso   1.00
C48    C     0.62457   0.09488   0.73640   0.00000  Uiso   1.00
C49    C     0.87450   0.62387   0.57235   0.00000  Uiso   1.00
C50    C     0.37450   0.12387   0.57235   0.00000  Uiso   1.00
C51    C     0.12553   0.37613   0.57235   0.00000  Uiso   1.00
C52    C     0.62553   0.87613   0.57235   0.00000  Uiso   1.00
C53    C     0.87450   0.37613   0.57235   0.00000  Uiso   1.00
C54    C     0.37450   0.87613   0.57235   0.00000  Uiso   1.00
C55    C     0.12553   0.62387   0.57235   0.00000  Uiso   1.00
C56    C     0.62553   0.12387   0.57235   0.00000  Uiso   1.00
C57    C     0.90484   0.63318   0.39011   0.00000  Uiso   1.00
C58    C     0.40484   0.13318   0.39011   0.00000  Uiso   1.00
C59    C     0.09519   0.36682   0.39011   0.00000  Uiso   1.00
C60    C     0.59519   0.86682   0.39011   0.00000  Uiso   1.00
C61    C     0.90484   0.36682   0.39011   0.00000  Uiso   1.00
C62    C     0.40484   0.86682   0.39011   0.00000  Uiso   1.00
C63    C     0.09519   0.63318   0.39011   0.00000  Uiso   1.00
C64    C     0.59519   0.13318   0.39011   0.00000  Uiso   1.00
C65    C     0.93475   0.61390   0.36805   0.00000  Uiso   1.00
C66    C     0.43474   0.11390   0.36805   0.00000  Uiso   1.00
C67    C     0.06528   0.38610   0.36805   0.00000  Uiso   1.00
C68    C     0.56528   0.88610   0.36805   0.00000  Uiso   1.00
C69    C     0.93475   0.38610   0.36805   0.00000  Uiso   1.00
C70    C     0.43474   0.88610   0.36805   0.00000  Uiso   1.00
C71    C     0.06528   0.61390   0.36805   0.00000  Uiso   1.00
C72    C     0.56528   0.11390   0.36805   0.00000  Uiso   1.00
C73    C     0.84402   0.64254   0.59443   0.00000  Uiso   1.00
C74    C     0.34402   0.14254   0.59443   0.00000  Uiso   1.00
C75    C     0.15601   0.35747   0.59443   0.00000  Uiso   1.00
C76    C     0.65601   0.85747   0.59443   0.00000  Uiso   1.00
C77    C     0.84402   0.35747   0.59443   0.00000  Uiso   1.00
C78    C     0.34402   0.85747   0.59443   0.00000  Uiso   1.00
C79    C     0.15601   0.64254   0.59443   0.00000  Uiso   1.00
C80    C     0.65601   0.14254   0.59443   0.00000  Uiso   1.00
H81    H     0.91279   0.52679   0.35653   0.00000  Uiso   1.00
H82    H     0.41279   0.02679   0.35653   0.00000  Uiso   1.00
H83    H     0.08724   0.47321   0.35653   0.00000  Uiso   1.00
H84    H     0.58724   0.97321   0.35653   0.00000  Uiso   1.00
H85    H     0.91279   0.47321   0.35653   0.00000  Uiso   1.00
H86    H     0.41279   0.97321   0.35653   0.00000  Uiso   1.00
H87    H     0.08724   0.52679   0.35653   0.00000  Uiso   1.00
H88    H     0.58724   0.02679   0.35653   0.00000  Uiso   1.00
H89    H     0.90590   0.55614   0.85751   0.00000  Uiso   1.00
H90    H     0.40590   0.05614   0.85751   0.00000  Uiso   1.00
H91    H     0.09413   0.44386   0.85751   0.00000  Uiso   1.00
H92    H     0.59413   0.94386   0.85751   0.00000  Uiso   1.00
H93    H     0.90590   0.44386   0.85751   0.00000  Uiso   1.00
H94    H     0.40590   0.94386   0.85751   0.00000  Uiso   1.00
H95    H     0.09413   0.55614   0.85751   0.00000  Uiso   1.00
H96    H     0.59413   0.05614   0.85751   0.00000  Uiso   1.00
H97    H     0.85417   0.58729   0.87307   0.00000  Uiso   1.00
H98    H     0.35417   0.08729   0.87307   0.00000  Uiso   1.00
H99    H     0.14586   0.41271   0.87307   0.00000  Uiso   1.00
H100   H     0.64586   0.91271   0.87307   0.00000  Uiso   1.00
H101   H     0.85417   0.41271   0.87307   0.00000  Uiso   1.00
H102   H     0.35417   0.91271   0.87307   0.00000  Uiso   1.00
H103   H     0.14586   0.58729   0.87307   0.00000  Uiso   1.00
H104   H     0.64586   0.08729   0.87307   0.00000  Uiso   1.00
H105   H     0.90520   0.65400   0.26719   0.00000  Uiso   1.00
H106   H     0.40520   0.15400   0.26719   0.00000  Uiso   1.00
H107   H     0.09483   0.34600   0.26719   0.00000  Uiso   1.00
H108   H     0.59483   0.84600   0.26719   0.00000  Uiso   1.00
H109   H     0.90520   0.34600   0.26719   0.00000  Uiso   1.00
H110   H     0.40520   0.84600   0.26719   0.00000  Uiso   1.00
H111   H     0.09483   0.65400   0.26719   0.00000  Uiso   1.00
H112   H     0.59483   0.15400   0.26719   0.00000  Uiso   1.00
H113   H     0.95559   0.62129   0.22420   0.00000  Uiso   1.00
H114   H     0.45559   0.12129   0.22420   0.00000  Uiso   1.00
H115   H     0.04444   0.37871   0.22420   0.00000  Uiso   1.00
H116   H     0.54444   0.87871   0.22420   0.00000  Uiso   1.00
H117   H     0.95559   0.37871   0.22420   0.00000  Uiso   1.00
H118   H     0.45559   0.87871   0.22420   0.00000  Uiso   1.00
H119   H     0.04444   0.62129   0.22420   0.00000  Uiso   1.00
H120   H     0.54444   0.12129   0.22420   0.00000  Uiso   1.00
H121   H     0.82229   0.63404   0.71737   0.00000  Uiso   1.00
H122   H     0.32229   0.13404   0.71737   0.00000  Uiso   1.00
H123   H     0.17774   0.36596   0.71737   0.00000  Uiso   1.00
H124   H     0.67773   0.86596   0.71737   0.00000  Uiso   1.00
H125   H     0.82229   0.36596   0.71737   0.00000  Uiso   1.00
H126   H     0.32229   0.86596   0.71737   0.00000  Uiso   1.00
H127   H     0.17774   0.63404   0.71737   0.00000  Uiso   1.00
H128   H     0.67773   0.13404   0.71737   0.00000  Uiso   1.00
N129   N     0.84294   0.67143   0.46361   0.00000  Uiso   1.00
N130   N     0.34294   0.17143   0.46361   0.00000  Uiso   1.00
N131   N     0.15709   0.32857   0.46361   0.00000  Uiso   1.00
N132   N     0.65708   0.82857   0.46361   0.00000  Uiso   1.00
N133   N     0.84294   0.32857   0.46361   0.00000  Uiso   1.00
N134   N     0.34294   0.82857   0.46361   0.00000  Uiso   1.00
N135   N     0.15709   0.67143   0.46361   0.00000  Uiso   1.00
N136   N     0.65708   0.17143   0.46361   0.00000  Uiso   1.00
C137   C     0.00001   0.58086   0.55988   0.00000  Uiso   1.00
C138   C     0.50001   0.08086   0.55988   0.00000  Uiso   1.00
C139   C     0.00001   0.41914   0.55988   0.00000  Uiso   1.00
C140   C     0.50001   0.91914   0.55988   0.00000  Uiso   1.00
C141   C     0.00001   0.48339   0.46596   0.00000  Uiso   1.00
C142   C     0.50001   0.98339   0.46596   0.00000  Uiso   1.00
C143   C     0.00001   0.51661   0.46596   0.00000  Uiso   1.00
C144   C     0.50001   0.01661   0.46596   0.00000  Uiso   1.00
H145   H     0.00001   0.60377   0.62598   0.00000  Uiso   1.00
H146   H     0.50001   0.10377   0.62598   0.00000  Uiso   1.00
H147   H     0.00001   0.39623   0.62598   0.00000  Uiso   1.00
H148   H     0.50001   0.89623   0.62598   0.00000  Uiso   1.00
C149   C     0.18374   0.30765   0.45428   0.00000  Uiso   1.00
C150   C     0.17489   0.27715   0.36354   0.00000  Uiso   1.00
C151   C     0.20094   0.25389   0.35447   0.00000  Uiso   1.00
C152   C     0.23648   0.26124   0.43200   0.00000  Uiso   1.00
N153   N     0.24419   0.29115   0.51234   0.00000  Uiso   1.00
C154   C     0.21960   0.31401   0.52693   0.00000  Uiso   1.00
H155   H     0.14926   0.27179   0.30516   0.00000  Uiso   1.00
H156   H     0.19400   0.23181   0.28994   0.00000  Uiso   1.00
H157   H     0.22763   0.33573   0.59008   0.00000  Uiso   1.00
C158   C     0.68374   0.80765   0.45428   0.00000  Uiso   1.00
C159   C     0.67489   0.77715   0.36354   0.00000  Uiso   1.00
C160   C     0.70094   0.75389   0.35447   0.00000  Uiso   1.00
C161   C     0.73648   0.76124   0.43200   0.00000  Uiso   1.00
N162   N     0.74419   0.79115   0.51234   0.00000  Uiso   1.00
C163   C     0.71960   0.81401   0.52693   0.00000  Uiso   1.00
H164   H     0.64926   0.77179   0.30516   0.00000  Uiso   1.00
H165   H     0.69400   0.73181   0.28994   0.00000  Uiso   1.00
H166   H     0.72763   0.83573   0.59008   0.00000  Uiso   1.00
C167   C     0.81629   0.69236   0.45428   0.00000  Uiso   1.00
C168   C     0.82514   0.72285   0.36354   0.00000  Uiso   1.00
C169   C     0.79909   0.74611   0.35447   0.00000  Uiso   1.00
C170   C     0.76354   0.73876   0.43200   0.00000  Uiso   1.00
N171   N     0.75583   0.70885   0.51234   0.00000  Uiso   1.00
C172   C     0.78042   0.68599   0.52693   0.00000  Uiso   1.00
H173   H     0.85077   0.72821   0.30516   0.00000  Uiso   1.00
H174   H     0.80603   0.76819   0.28994   0.00000  Uiso   1.00
H175   H     0.77240   0.66427   0.59008   0.00000  Uiso   1.00
C176   C     0.31629   0.19236   0.45428   0.00000  Uiso   1.00
C177   C     0.32514   0.22285   0.36354   0.00000  Uiso   1.00
C178   C     0.29909   0.24611   0.35447   0.00000  Uiso   1.00
C179   C     0.26354   0.23876   0.43200   0.00000  Uiso   1.00
N180   N     0.25583   0.20885   0.51234   0.00000  Uiso   1.00
C181   C     0.28042   0.18599   0.52693   0.00000  Uiso   1.00
H182   H     0.35077   0.22821   0.30516   0.00000  Uiso   1.00
H183   H     0.30603   0.26819   0.28994   0.00000  Uiso   1.00
H184   H     0.27240   0.16427   0.59008   0.00000  Uiso   1.00
C185   C     0.18374   0.69236   0.45428   0.00000  Uiso   1.00
C186   C     0.17489   0.72285   0.36354   0.00000  Uiso   1.00
C187   C     0.20094   0.74611   0.35447   0.00000  Uiso   1.00
C188   C     0.23648   0.73876   0.43200   0.00000  Uiso   1.00
N189   N     0.24419   0.70885   0.51234   0.00000  Uiso   1.00
C190   C     0.21960   0.68599   0.52693   0.00000  Uiso   1.00
H191   H     0.14926   0.72821   0.30516   0.00000  Uiso   1.00
H192   H     0.19400   0.76819   0.28994   0.00000  Uiso   1.00
H193   H     0.22763   0.66427   0.59008   0.00000  Uiso   1.00
C194   C     0.68374   0.19236   0.45428   0.00000  Uiso   1.00
C195   C     0.67489   0.22285   0.36354   0.00000  Uiso   1.00
C196   C     0.70094   0.24611   0.35447   0.00000  Uiso   1.00
C197   C     0.73648   0.23876   0.43200   0.00000  Uiso   1.00
N198   N     0.74419   0.20885   0.51234   0.00000  Uiso   1.00
C199   C     0.71960   0.18599   0.52693   0.00000  Uiso   1.00
H200   H     0.64926   0.22821   0.30516   0.00000  Uiso   1.00
H201   H     0.69400   0.26819   0.28994   0.00000  Uiso   1.00
H202   H     0.72763   0.16427   0.59008   0.00000  Uiso   1.00
C203   C     0.81629   0.30765   0.45428   0.00000  Uiso   1.00
C204   C     0.82514   0.27715   0.36354   0.00000  Uiso   1.00
C205   C     0.79909   0.25389   0.35447   0.00000  Uiso   1.00
C206   C     0.76354   0.26124   0.43200   0.00000  Uiso   1.00
N207   N     0.75583   0.29115   0.51234   0.00000  Uiso   1.00
C208   C     0.78042   0.31401   0.52693   0.00000  Uiso   1.00
H209   H     0.85077   0.27179   0.30516   0.00000  Uiso   1.00
H210   H     0.80603   0.23181   0.28994   0.00000  Uiso   1.00
H211   H     0.77240   0.33573   0.59008   0.00000  Uiso   1.00
C212   C     0.31629   0.80765   0.45428   0.00000  Uiso   1.00
C213   C     0.32514   0.77715   0.36354   0.00000  Uiso   1.00
C214   C     0.29909   0.75389   0.35447   0.00000  Uiso   1.00
C215   C     0.26354   0.76124   0.43200   0.00000  Uiso   1.00
N216   N     0.25583   0.79115   0.51234   0.00000  Uiso   1.00
C217   C     0.28042   0.81401   0.52693   0.00000  Uiso   1.00
H218   H     0.35077   0.77179   0.30516   0.00000  Uiso   1.00
H219   H     0.30603   0.73181   0.28994   0.00000  Uiso   1.00
H220   H     0.27240   0.83573   0.59008   0.00000  Uiso   1.00
loop_
_geom_bond_atom_site_label_1
_geom_bond_atom_site_label_2
_geom_bond_distance
_geom_bond_site_symmetry_2
_ccdc_geom_bond_type
C1     C13     1.412   .     S
C1     C21     1.429   .     S
C1     C141    1.428   1_655 D
C2     C14     1.412   .     D
C2     C22     1.429   .     S
C2     C142    1.428   .     S
C3     C15     1.412   .     D
C3     C23     1.429   .     S
C3     C143    1.428   .     S
C4     C16     1.412   .     S
C4     C24     1.429   .     S
C4     C144    1.428   .     D
C5     C9      1.412   .     S
C5     C17     1.429   .     S
C5     C143    1.428   1_655 D
C6     C10     1.412   .     D
C6     C18     1.429   .     S
C6     C144    1.428   .     S
C7     C11     1.412   .     D
C7     C19     1.429   .     S
C7     C141    1.428   .     S
C8     C12     1.412   .     S
C8     C20     1.429   .     S
C8     C142    1.428   .     D
C9     C13     1.397   .     D
C9     H81     1.018   .     S
C10    C14     1.397   1_545 S
C10    H82     1.018   .     S
C11    C15     1.397   .     S
C11    H83     1.018   .     S
C12    C16     1.397   1_565 D
C12    H84     1.018   .     S
C13    H85     1.018   .     S
C14    C10     1.397   1_565 S
C14    H86     1.018   .     S
C15    H87     1.018   .     S
C16    C12     1.397   1_545 D
C16    H88     1.018   .     S
C17    C25     1.427   .     S
C17    C137    1.413   1_655 D
C18    C26     1.427   .     D
C18    C138    1.413   .     S
C19    C27     1.427   .     D
C19    C139    1.413   .     S
C20    C28     1.427   .     S
C20    C140    1.413   .     D
C21    C29     1.427   .     S
C21    C139    1.413   1_655 D
C22    C30     1.427   .     D
C22    C140    1.413   .     S
C23    C31     1.427   .     D
C23    C137    1.413   .     S
C24    C32     1.427   .     S
C24    C138    1.413   .     D
C25    C33     1.416   .     D
C25    C65     1.419   .     S
C26    C34     1.416   .     S
C26    C66     1.419   .     S
C27    C35     1.416   .     S
C27    C67     1.419   .     S
C28    C36     1.416   .     D
C28    C68     1.419   .     S
C29    C37     1.416   .     S
C29    C69     1.419   .     D
C30    C38     1.416   .     S
C30    C70     1.419   .     S
C31    C39     1.416   .     S
C31    C71     1.419   .     S
C32    C40     1.416   .     S
C32    C72     1.419   .     D
C33    C41     1.407   .     S
C33    H89     1.019   .     S
C34    C42     1.407   .     D
C34    H90     1.019   .     S
C35    C43     1.407   .     D
C35    H91     1.019   .     S
C36    C44     1.407   .     S
C36    H92     1.019   .     S
C37    C45     1.407   .     D
C37    H93     1.019   .     S
C38    C46     1.407   .     D
C38    H94     1.019   .     S
C39    C47     1.407   .     D
C39    H95     1.019   .     S
C40    C48     1.407   .     D
C40    H96     1.019   .     S
C41    C49     1.413   .     D
C41    H97     1.024   .     S
C42    C50     1.413   .     S
C42    H98     1.024   .     S
C43    C51     1.413   .     S
C43    H99     1.024   .     S
C44    C52     1.413   .     D
C44    H100    1.024   .     S
C45    C53     1.413   .     S
C45    H101    1.024   .     S
C46    C54     1.413   .     S
C46    H102    1.024   .     S
C47    C55     1.413   .     S
C47    H103    1.024   .     S
C48    C56     1.413   .     S
C48    H104    1.024   .     S
C49    C57     1.413   .     S
C49    C73     1.410   .     S
C50    C58     1.413   .     S
C50    C74     1.410   .     D
C51    C59     1.413   .     S
C51    C75     1.410   .     D
C52    C60     1.413   .     S
C52    C76     1.410   .     S
C53    C61     1.413   .     D
C53    C77     1.410   .     S
C54    C62     1.413   .     S
C54    C78     1.410   .     D
C55    C63     1.413   .     S
C55    C79     1.410   .     D
C56    C64     1.413   .     D
C56    C80     1.410   .     S
C57    C65     1.408   .     D
C57    H105    1.024   .     S
C58    C66     1.408   .     D
C58    H106    1.024   .     S
C59    C67     1.408   .     D
C59    H107    1.024   .     S
C60    C68     1.408   .     D
C60    H108    1.024   .     S
C61    C69     1.408   .     S
C61    H109    1.024   .     S
C62    C70     1.408   .     D
C62    H110    1.024   .     S
C63    C71     1.408   .     D
C63    H111    1.024   .     S
C64    C72     1.408   .     S
C64    H112    1.024   .     S
C65    H113    1.023   .     S
C66    H114    1.023   .     S
C67    H115    1.023   .     S
C68    H116    1.023   .     S
C69    H117    1.023   .     S
C70    H118    1.023   .     S
C71    H119    1.023   .     S
C72    H120    1.023   .     S
C73    H121    1.023   .     S
C73    N129    1.354   .     D
C74    H122    1.023   .     S
C74    N130    1.354   .     S
C75    H123    1.023   .     S
C75    N131    1.354   .     S
C76    H124    1.023   .     S
C76    N132    1.354   .     D
C77    H125    1.023   .     S
C77    N133    1.354   .     D
C78    H126    1.023   .     S
C78    N134    1.354   .     S
C79    H127    1.023   .     S
C79    N135    1.354   .     S
C80    H128    1.023   .     S
C80    N136    1.354   .     D
N129   C167    1.355   .     S
N130   C176    1.355   .     D
N131   C149    1.355   .     D
N132   C158    1.355   .     S
N133   C203    1.355   .     S
N134   C212    1.355   .     D
N135   C185    1.355   .     D
N136   C194    1.355   .     S
C137   C17     1.413   1_455 D
C137   H145    1.025   .     S
C138   H146    1.025   .     S
C139   C21     1.413   1_455 D
C139   H147    1.025   .     S
C140   H148    1.025   .     S
C141   C1      1.428   1_455 D
C141   C143    1.437   .     S
C142   C144    1.437   1_565 S
C143   C5      1.428   1_455 D
C144   C142    1.437   1_545 S
C149   C150    1.408   .     S
C149   C154    1.413   .     S
C150   C151    1.409   .     D
C150   H155    1.023   .     S
C151   C152    1.414   .     S
C151   H156    1.023   .     S
C152   N153    1.364   .     S
C152   C179    1.412   .     D
N153   C154    1.358   .     D
C154   H157    1.019   .     S
C158   C159    1.408   .     D
C158   C163    1.413   .     S
C159   C160    1.409   .     S
C159   H164    1.023   .     S
C160   C161    1.414   .     D
C160   H165    1.023   .     S
C161   N162    1.364   .     S
C161   C170    1.412   .     S
N162   C163    1.358   .     D
C163   H166    1.018   .     S
C167   C168    1.408   .     D
C167   C172    1.413   .     S
C168   C169    1.409   .     S
C168   H173    1.023   .     S
C169   C170    1.414   .     D
C169   H174    1.023   .     S
C170   N171    1.364   .     S
N171   C172    1.358   .     D
C172   H175    1.019   .     S
C176   C177    1.408   .     S
C176   C181    1.413   .     S
C177   C178    1.408   .     D
C177   H182    1.023   .     S
C178   C179    1.414   .     S
C178   H183    1.023   .     S
C179   N180    1.364   .     S
N180   C181    1.358   .     D
C181   H184    1.019   .     S
C185   C186    1.408   .     S
C185   C190    1.413   .     S
C186   C187    1.409   .     D
C186   H191    1.023   .     S
C187   C188    1.414   .     S
C187   H192    1.023   .     S
C188   N189    1.364   .     S
C188   C215    1.412   .     D
N189   C190    1.358   .     D
C190   H193    1.019   .     S
C194   C195    1.408   .     S
C194   C199    1.413   .     D
C195   C196    1.408   .     D
C195   H200    1.023   .     S
C196   C197    1.414   .     S
C196   H201    1.023   .     S
C197   N198    1.364   .     D
C197   C206    1.412   .     S
N198   C199    1.358   .     S
C199   H202    1.019   .     S
C203   C204    1.408   .     S
C203   C208    1.413   .     D
C204   C205    1.409   .     D
C204   H209    1.023   .     S
C205   C206    1.414   .     S
C205   H210    1.023   .     S
C206   N207    1.364   .     D
N207   C208    1.358   .     S
C208   H211    1.018   .     S
C212   C213    1.408   .     S
C212   C217    1.413   .     S
C213   C214    1.409   .     D
C213   H218    1.023   .     S
C214   C215    1.414   .     S
C214   H219    1.023   .     S
C215   N216    1.364   .     S
N216   C217    1.358   .     D
C217   H220    1.018   .     S
