data_386
_audit_creation_date              2023-09-08
_audit_creation_method            'Materials Studio'
_symmetry_space_group_name_H-M    'P1'
_symmetry_Int_Tables_number       1
_symmetry_cell_setting            triclinic
loop_
_symmetry_equiv_pos_as_xyz
  x,y,z
_cell_length_a                    36.1500
_cell_length_b                    31.3000
_cell_length_c                    3.6000
_cell_angle_alpha                 90.0000
_cell_angle_beta                  90.0000
_cell_angle_gamma                 90.0000
loop_
_atom_site_label
_atom_site_type_symbol
_atom_site_fract_x
_atom_site_fract_y
_atom_site_fract_z
_atom_site_U_iso_or_equiv
_atom_site_adp_type
_atom_site_occupancy
C1     C     0.96616   0.45348   0.12818   0.00000  Uiso   1.00
C2     C     0.03384   0.54652   0.12818   0.00000  Uiso   1.00
C3     C     0.96616   0.54652   0.12818   0.00000  Uiso   1.00
C4     C     0.03384   0.45348   0.12818   0.00000  Uiso   1.00
C5     C     0.46596   0.95392   0.88138   0.00000  Uiso   1.00
C6     C     0.53404   0.04608   0.88138   0.00000  Uiso   1.00
C7     C     0.46596   0.04608   0.88138   0.00000  Uiso   1.00
C8     C     0.53404   0.95392   0.88138   0.00000  Uiso   1.00
C9     C     0.93447   0.52220   0.04326   0.00000  Uiso   1.00
C10    C     0.06553   0.47781   0.04326   0.00000  Uiso   1.00
C11    C     0.93447   0.47781   0.04326   0.00000  Uiso   1.00
C12    C     0.06553   0.52220   0.04326   0.00000  Uiso   1.00
C13    C     0.43418   0.02227   0.78749   0.00000  Uiso   1.00
C14    C     0.56582   0.97773   0.78749   0.00000  Uiso   1.00
C15    C     0.43418   0.97773   0.78749   0.00000  Uiso   1.00
C16    C     0.56582   0.02227   0.78749   0.00000  Uiso   1.00
C17    C     0.96528   0.59199   0.17801   0.00000  Uiso   1.00
C18    C     0.03472   0.40801   0.17801   0.00000  Uiso   1.00
C19    C     0.96528   0.40801   0.17801   0.00000  Uiso   1.00
C20    C     0.03472   0.59199   0.17801   0.00000  Uiso   1.00
C21    C     0.46537   0.09133   0.93073   0.00000  Uiso   1.00
C22    C     0.53463   0.90867   0.93073   0.00000  Uiso   1.00
C23    C     0.46537   0.90867   0.93073   0.00000  Uiso   1.00
C24    C     0.53463   0.09133   0.93073   0.00000  Uiso   1.00
C25    C     0.93266   0.61801   0.20798   0.00000  Uiso   1.00
C26    C     0.06734   0.38199   0.20798   0.00000  Uiso   1.00
C27    C     0.93266   0.38199   0.20798   0.00000  Uiso   1.00
C28    C     0.06734   0.61801   0.20798   0.00000  Uiso   1.00
C29    C     0.43358   0.11862   0.91853   0.00000  Uiso   1.00
C30    C     0.56642   0.88138   0.91853   0.00000  Uiso   1.00
C31    C     0.43358   0.88138   0.91853   0.00000  Uiso   1.00
C32    C     0.56642   0.11862   0.91853   0.00000  Uiso   1.00
C33    C     0.89944   0.60204   0.36295   0.00000  Uiso   1.00
C34    C     0.10056   0.39797   0.36295   0.00000  Uiso   1.00
C35    C     0.89944   0.39797   0.36295   0.00000  Uiso   1.00
C36    C     0.10056   0.60204   0.36295   0.00000  Uiso   1.00
C37    C     0.39796   0.10671   1.04783   0.00000  Uiso   1.00
C38    C     0.60204   0.89329   1.04783   0.00000  Uiso   1.00
C39    C     0.39796   0.89329   1.04783   0.00000  Uiso   1.00
C40    C     0.60204   0.10671   1.04783   0.00000  Uiso   1.00
C41    C     0.86661   0.62556   0.37590   0.00000  Uiso   1.00
C42    C     0.13339   0.37444   0.37590   0.00000  Uiso   1.00
C43    C     0.86661   0.37444   0.37590   0.00000  Uiso   1.00
C44    C     0.13339   0.62556   0.37590   0.00000  Uiso   1.00
C45    C     0.36678   0.13307   0.99726   0.00000  Uiso   1.00
C46    C     0.63322   0.86693   0.99726   0.00000  Uiso   1.00
C47    C     0.36678   0.86693   0.99726   0.00000  Uiso   1.00
C48    C     0.63322   0.13307   0.99726   0.00000  Uiso   1.00
C49    C     0.86567   0.66810   0.25043   0.00000  Uiso   1.00
C50    C     0.13433   0.33190   0.25043   0.00000  Uiso   1.00
C51    C     0.86567   0.33190   0.25043   0.00000  Uiso   1.00
C52    C     0.13433   0.66810   0.25043   0.00000  Uiso   1.00
C53    C     0.37035   0.17347   0.83112   0.00000  Uiso   1.00
C54    C     0.62965   0.82654   0.83112   0.00000  Uiso   1.00
C55    C     0.37035   0.82654   0.83112   0.00000  Uiso   1.00
C56    C     0.62965   0.17347   0.83112   0.00000  Uiso   1.00
C57    C     0.89877   0.68646   0.12215   0.00000  Uiso   1.00
C58    C     0.10123   0.31354   0.12215   0.00000  Uiso   1.00
C59    C     0.89877   0.31354   0.12215   0.00000  Uiso   1.00
C60    C     0.10123   0.68646   0.12215   0.00000  Uiso   1.00
C61    C     0.40588   0.18748   0.72680   0.00000  Uiso   1.00
C62    C     0.59412   0.81253   0.72680   0.00000  Uiso   1.00
C63    C     0.40588   0.81253   0.72680   0.00000  Uiso   1.00
C64    C     0.59412   0.18748   0.72680   0.00000  Uiso   1.00
C65    C     0.93131   0.66166   0.09424   0.00000  Uiso   1.00
C66    C     0.06869   0.33834   0.09424   0.00000  Uiso   1.00
C67    C     0.93131   0.33834   0.09424   0.00000  Uiso   1.00
C68    C     0.06869   0.66166   0.09424   0.00000  Uiso   1.00
C69    C     0.43653   0.16041   0.76550   0.00000  Uiso   1.00
C70    C     0.56347   0.83959   0.76550   0.00000  Uiso   1.00
C71    C     0.43653   0.83959   0.76550   0.00000  Uiso   1.00
C72    C     0.56347   0.16041   0.76550   0.00000  Uiso   1.00
N73    N     0.83436   0.69182   0.25638   0.00000  Uiso   1.00
N74    N     0.16564   0.30819   0.25638   0.00000  Uiso   1.00
N75    N     0.83436   0.30819   0.25638   0.00000  Uiso   1.00
N76    N     0.16564   0.69182   0.25638   0.00000  Uiso   1.00
N77    N     0.33894   0.19585   0.77077   0.00000  Uiso   1.00
N78    N     0.66107   0.80415   0.77077   0.00000  Uiso   1.00
N79    N     0.33894   0.80415   0.77077   0.00000  Uiso   1.00
N80    N     0.66107   0.19585   0.77077   0.00000  Uiso   1.00
H81    H     0.91011   0.53603  -0.02413   0.00000  Uiso   1.00
H82    H     0.08989   0.46398  -0.02413   0.00000  Uiso   1.00
H83    H     0.91011   0.46398  -0.02413   0.00000  Uiso   1.00
H84    H     0.08989   0.53603  -0.02413   0.00000  Uiso   1.00
H85    H     0.41024   0.03668   0.70939   0.00000  Uiso   1.00
H86    H     0.58976   0.96332   0.70939   0.00000  Uiso   1.00
H87    H     0.41024   0.96332   0.70939   0.00000  Uiso   1.00
H88    H     0.58976   0.03668   0.70939   0.00000  Uiso   1.00
H89    H     0.89851   0.57274   0.47951   0.00000  Uiso   1.00
H90    H     0.10149   0.42726   0.47951   0.00000  Uiso   1.00
H91    H     0.89851   0.42726   0.47951   0.00000  Uiso   1.00
H92    H     0.10149   0.57274   0.47951   0.00000  Uiso   1.00
H93    H     0.39420   0.07873   1.18708   0.00000  Uiso   1.00
H94    H     0.60580   0.92127   1.18708   0.00000  Uiso   1.00
H95    H     0.39420   0.92127   1.18708   0.00000  Uiso   1.00
H96    H     0.60580   0.07873   1.18708   0.00000  Uiso   1.00
H97    H     0.84372   0.61175   0.48994   0.00000  Uiso   1.00
H98    H     0.15628   0.38825   0.48994   0.00000  Uiso   1.00
H99    H     0.84372   0.38825   0.48994   0.00000  Uiso   1.00
H100   H     0.15628   0.61175   0.48994   0.00000  Uiso   1.00
H101   H     0.34128   0.12300   1.08445   0.00000  Uiso   1.00
H102   H     0.65872   0.87700   1.08445   0.00000  Uiso   1.00
H103   H     0.34128   0.87700   1.08445   0.00000  Uiso   1.00
H104   H     0.65872   0.12300   1.08445   0.00000  Uiso   1.00
H105   H     0.89876   0.71771   0.03828   0.00000  Uiso   1.00
H106   H     0.10124   0.28229   0.03828   0.00000  Uiso   1.00
H107   H     0.89876   0.28229   0.03828   0.00000  Uiso   1.00
H108   H     0.10124   0.71771   0.03828   0.00000  Uiso   1.00
H109   H     0.40982   0.21677   0.61051   0.00000  Uiso   1.00
H110   H     0.59018   0.78323   0.61051   0.00000  Uiso   1.00
H111   H     0.40982   0.78323   0.61051   0.00000  Uiso   1.00
H112   H     0.59018   0.21677   0.61051   0.00000  Uiso   1.00
H113   H     0.95386   0.67602  -0.02242   0.00000  Uiso   1.00
H114   H     0.04614   0.32398  -0.02242   0.00000  Uiso   1.00
H115   H     0.95386   0.32398  -0.02242   0.00000  Uiso   1.00
H116   H     0.04614   0.67602  -0.02242   0.00000  Uiso   1.00
H117   H     0.46107   0.17157   0.66378   0.00000  Uiso   1.00
H118   H     0.53893   0.82843   0.66378   0.00000  Uiso   1.00
H119   H     0.46107   0.82843   0.66378   0.00000  Uiso   1.00
H120   H     0.53893   0.17157   0.66378   0.00000  Uiso   1.00
C121   C     0.33402   0.23512   0.62319   0.00000  Uiso   1.00
C122   C     0.66598   0.76488   0.62319   0.00000  Uiso   1.00
C123   C     0.33402   0.76488   0.62319   0.00000  Uiso   1.00
C124   C     0.66598   0.23512   0.62319   0.00000  Uiso   1.00
C125   C     0.00000   0.61242   0.21378   0.00000  Uiso   1.00
C126   C     0.00000   0.38758   0.21378   0.00000  Uiso   1.00
C127   C     0.50000   0.11104   0.99013   0.00000  Uiso   1.00
C128   C     0.50000   0.88896   0.99013   0.00000  Uiso   1.00
C129   C     0.00000   0.47690   0.13717   0.00000  Uiso   1.00
C130   C     0.00000   0.52310   0.13717   0.00000  Uiso   1.00
C131   C     0.50000   0.97706   0.89488   0.00000  Uiso   1.00
C132   C     0.50000   0.02294   0.89488   0.00000  Uiso   1.00
H133   H     0.00000   0.64387   0.28744   0.00000  Uiso   1.00
H134   H     0.00000   0.35613   0.28744   0.00000  Uiso   1.00
H135   H     0.50000   0.14183   1.08448   0.00000  Uiso   1.00
H136   H     0.50000   0.85817   1.08448   0.00000  Uiso   1.00
C137   C     0.20089   0.32245   0.28348   0.00000  Uiso   1.00
C138   C     0.79911   0.67755   0.28348   0.00000  Uiso   1.00
C139   C     0.20089   0.67755   0.28348   0.00000  Uiso   1.00
C140   C     0.79911   0.32245   0.28348   0.00000  Uiso   1.00
C141   C     0.70077   0.74653   0.54459   0.00000  Uiso   1.00
C142   C     0.29923   0.25347   0.54459   0.00000  Uiso   1.00
C143   C     0.70077   0.25347   0.54459   0.00000  Uiso   1.00
C144   C     0.29923   0.74653   0.54459   0.00000  Uiso   1.00
C145   C     0.70034   0.70398   0.41240   0.00000  Uiso   1.00
C146   C     0.29966   0.29602   0.41240   0.00000  Uiso   1.00
C147   C     0.70034   0.29602   0.41240   0.00000  Uiso   1.00
C148   C     0.29966   0.70398   0.41240   0.00000  Uiso   1.00
C149   C     0.73314   0.68255   0.32796   0.00000  Uiso   1.00
C150   C     0.26687   0.31745   0.32796   0.00000  Uiso   1.00
C151   C     0.73314   0.31745   0.32796   0.00000  Uiso   1.00
C152   C     0.26687   0.68255   0.32796   0.00000  Uiso   1.00
C153   C     0.76788   0.70282   0.36623   0.00000  Uiso   1.00
C154   C     0.23212   0.29718   0.36623   0.00000  Uiso   1.00
C155   C     0.76788   0.29718   0.36623   0.00000  Uiso   1.00
C156   C     0.23212   0.70282   0.36623   0.00000  Uiso   1.00
C157   C     0.76898   0.74588   0.49415   0.00000  Uiso   1.00
C158   C     0.23102   0.25412   0.49415   0.00000  Uiso   1.00
C159   C     0.76898   0.25412   0.49415   0.00000  Uiso   1.00
C160   C     0.23102   0.74588   0.49415   0.00000  Uiso   1.00
C161   C     0.73552   0.76748   0.58770   0.00000  Uiso   1.00
C162   C     0.26448   0.23252   0.58770   0.00000  Uiso   1.00
C163   C     0.73552   0.23252   0.58770   0.00000  Uiso   1.00
C164   C     0.26448   0.76748   0.58770   0.00000  Uiso   1.00
H165   H     0.67596   0.68773   0.37624   0.00000  Uiso   1.00
H166   H     0.32404   0.31227   0.37624   0.00000  Uiso   1.00
H167   H     0.67596   0.31227   0.37624   0.00000  Uiso   1.00
H168   H     0.32404   0.68773   0.37624   0.00000  Uiso   1.00
O169   O     0.80204   0.76600   0.54131   0.00000  Uiso   1.00
O170   O     0.19796   0.23400   0.54131   0.00000  Uiso   1.00
O171   O     0.80204   0.23400   0.54131   0.00000  Uiso   1.00
O172   O     0.19796   0.76600   0.54131   0.00000  Uiso   1.00
O173   O     0.73718   0.80795   0.72590   0.00000  Uiso   1.00
O174   O     0.26282   0.19206   0.72590   0.00000  Uiso   1.00
O175   O     0.73718   0.19206   0.72590   0.00000  Uiso   1.00
O176   O     0.26282   0.80795   0.72590   0.00000  Uiso   1.00
H177   H     0.35706   0.74731   0.56251   0.00000  Uiso   1.00
H178   H     0.20526   0.35428   0.23497   0.00000  Uiso   1.00
H179   H     0.26888   0.34836   0.23532   0.00000  Uiso   1.00
H180   H     0.17549   0.24879   0.46785   0.00000  Uiso   1.00
H181   H     0.28568   0.17745   0.79070   0.00000  Uiso   1.00
H182   H     0.64294   0.25269   0.56251   0.00000  Uiso   1.00
H183   H     0.79474   0.64572   0.23497   0.00000  Uiso   1.00
H184   H     0.73112   0.65164   0.23532   0.00000  Uiso   1.00
H185   H     0.82451   0.75121   0.46785   0.00000  Uiso   1.00
H186   H     0.71432   0.82255   0.79070   0.00000  Uiso   1.00
H187   H     0.35706   0.25269   0.56251   0.00000  Uiso   1.00
H188   H     0.20526   0.64572   0.23497   0.00000  Uiso   1.00
H189   H     0.26888   0.65164   0.23532   0.00000  Uiso   1.00
H190   H     0.17549   0.75121   0.46785   0.00000  Uiso   1.00
H191   H     0.28568   0.82255   0.79070   0.00000  Uiso   1.00
H192   H     0.64294   0.74731   0.56251   0.00000  Uiso   1.00
H193   H     0.79474   0.35428   0.23497   0.00000  Uiso   1.00
H194   H     0.73112   0.34836   0.23532   0.00000  Uiso   1.00
H195   H     0.82451   0.24879   0.46785   0.00000  Uiso   1.00
H196   H     0.71432   0.17745   0.79070   0.00000  Uiso   1.00
loop_
_geom_bond_atom_site_label_1
_geom_bond_atom_site_label_2
_geom_bond_distance
_geom_bond_site_symmetry_2
_ccdc_geom_bond_type
C1     C11     1.409   .     S
C1     C19     1.435   .     S
C1     C129    1.426   1_655 D
C2     C12     1.409   .     S
C2     C20     1.435   .     D
C2     C130    1.426   .     S
C3     C9      1.409   .     S
C3     C17     1.435   .     S
C3     C130    1.426   1_655 D
C4     C10     1.409   .     S
C4     C18     1.435   .     D
C4     C129    1.426   .     S
C5     C15     1.411   .     S
C5     C23     1.428   .     S
C5     C131    1.429   .     D
C6     C16     1.411   .     S
C6     C24     1.428   .     S
C6     C132    1.429   .     D
C7     C13     1.411   .     S
C7     C21     1.428   .     D
C7     C132    1.429   .     S
C8     C14     1.411   .     S
C8     C22     1.428   .     D
C8     C131    1.429   .     S
C9     C11     1.389   .     D
C9     H81     1.011   .     S
C10    C12     1.389   .     D
C10    H82     1.011   .     S
C11    H83     1.011   .     S
C12    H84     1.011   .     S
C13    C15     1.394   1_545 D
C13    H85     1.015   .     S
C14    C16     1.394   1_565 D
C14    H86     1.015   .     S
C15    C13     1.394   1_565 D
C15    H87     1.015   .     S
C16    C14     1.394   1_545 D
C16    H88     1.015   .     S
C17    C25     1.437   .     S
C17    C125    1.414   1_655 D
C18    C26     1.437   .     S
C18    C126    1.414   .     S
C19    C27     1.437   .     S
C19    C126    1.414   1_655 D
C20    C28     1.437   .     S
C20    C125    1.414   .     S
C21    C29     1.432   .     S
C21    C127    1.412   .     S
C22    C30     1.432   .     S
C22    C128    1.412   .     S
C23    C31     1.432   .     S
C23    C128    1.412   .     D
C24    C32     1.432   .     S
C24    C127    1.412   .     D
C25    C33     1.415   .     S
C25    C65     1.427   .     D
C26    C34     1.415   .     D
C26    C66     1.427   .     S
C27    C35     1.415   .     D
C27    C67     1.427   .     S
C28    C36     1.415   .     D
C28    C68     1.427   .     S
C29    C37     1.419   .     D
C29    C69     1.424   .     S
C30    C38     1.419   .     S
C30    C70     1.424   .     D
C31    C39     1.419   .     D
C31    C71     1.424   .     S
C32    C40     1.419   .     D
C32    C72     1.424   .     S
C33    C41     1.398   .     D
C33    H89     1.009   .     S
C34    C42     1.398   .     S
C34    H90     1.009   .     S
C35    C43     1.398   .     S
C35    H91     1.009   .     S
C36    C44     1.398   .     S
C36    H92     1.009   .     S
C37    C45     1.409   .     S
C37    H93     1.018   .     S
C38    C46     1.409   .     D
C38    H94     1.018   .     S
C39    C47     1.409   .     S
C39    H95     1.018   .     S
C40    C48     1.409   .     S
C40    H96     1.018   .     S
C41    C49     1.406   .     S
C41    H97     1.020   .     S
C42    C50     1.406   .     D
C42    H98     1.020   .     S
C43    C51     1.406   .     D
C43    H99     1.020   .     S
C44    C52     1.406   .     D
C44    H100    1.020   .     S
C45    C53     1.405   .     D
C45    H101    1.023   .     S
C46    C54     1.405   .     S
C46    H102    1.023   .     S
C47    C55     1.405   .     D
C47    H103    1.023   .     S
C48    C56     1.405   .     D
C48    H104    1.023   .     S
C49    C57     1.406   .     D
C49    N73     1.354   .     S
C50    C58     1.406   .     S
C50    N74     1.354   .     S
C51    C59     1.406   .     S
C51    N75     1.354   .     S
C52    C60     1.406   .     S
C52    N76     1.354   .     S
C53    C61     1.408   .     S
C53    N77     1.352   .     S
C54    C62     1.408   .     D
C54    N78     1.352   .     S
C55    C63     1.408   .     S
C55    N79     1.352   .     S
C56    C64     1.408   .     S
C56    N80     1.352   .     S
C57    C65     1.413   .     S
C57    H105    1.023   .     S
C58    C66     1.413   .     D
C58    H106    1.023   .     S
C59    C67     1.413   .     D
C59    H107    1.023   .     S
C60    C68     1.413   .     D
C60    H108    1.023   .     S
C61    C69     1.401   .     D
C61    H109    1.018   .     S
C62    C70     1.401   .     S
C62    H110    1.018   .     S
C63    C71     1.401   .     D
C63    H111    1.018   .     S
C64    C72     1.401   .     D
C64    H112    1.018   .     S
C65    H113    1.021   .     S
C66    H114    1.021   .     S
C67    H115    1.021   .     S
C68    H116    1.021   .     S
C69    H117    1.021   .     S
C70    H118    1.021   .     S
C71    H119    1.021   .     S
C72    H120    1.021   .     S
N73    C138    1.354   .     D
N74    C137    1.354   .     D
N75    C140    1.354   .     D
N76    C139    1.354   .     D
N77    C121    1.351   .     D
N78    C122    1.351   .     D
N79    C123    1.351   .     D
N80    C124    1.351   .     D
C121   C142    1.411   .     S
C121   H187    1.022   .     S
C122   C141    1.411   .     S
C122   H192    1.022   .     S
C123   C144    1.411   .     S
C123   H177    1.022   .     S
C124   C143    1.411   .     S
C124   H182    1.022   .     S
C125   C17     1.414   1_455 D
C125   H133    1.019   .     S
C126   C19     1.414   1_455 D
C126   H134    1.019   .     S
C127   H135    1.022   .     S
C128   H136    1.022   .     S
C129   C1      1.426   1_455 D
C129   C130    1.446   .     S
C130   C3      1.426   1_455 D
C131   C132    1.436   1_565 S
C132   C131    1.436   1_545 S
C137   C154    1.410   .     S
C137   H178    1.024   .     S
C138   C153    1.410   .     S
C138   H183    1.024   .     S
C139   C156    1.410   .     S
C139   H188    1.024   .     S
C140   C155    1.410   .     S
C140   H193    1.024   .     S
C141   C145    1.414   .     S
C141   C161    1.426   .     D
C142   C146    1.414   .     D
C142   C162    1.426   .     S
C143   C147    1.414   .     D
C143   C163    1.426   .     S
C144   C148    1.414   .     D
C144   C164    1.426   .     S
C145   C149    1.396   .     D
C145   H165    1.026   .     S
C146   C150    1.396   .     S
C146   H166    1.026   .     S
C147   C151    1.396   .     S
C147   H167    1.026   .     S
C148   C152    1.396   .     S
C148   H168    1.026   .     S
C149   C153    1.414   .     S
C149   H184    1.026   .     S
C150   C154    1.414   .     D
C150   H179    1.026   .     S
C151   C155    1.414   .     D
C151   H194    1.026   .     S
C152   C156    1.414   .     D
C152   H189    1.026   .     S
C153   C157    1.425   .     D
C154   C158    1.425   .     S
C155   C159    1.425   .     S
C156   C160    1.425   .     S
C157   C161    1.426   .     S
C157   O169    1.362   .     S
C158   C162    1.426   .     D
C158   O170    1.362   .     S
C159   C163    1.426   .     D
C159   O171    1.362   .     S
C160   C164    1.426   .     D
C160   O172    1.362   .     S
C161   O173    1.362   .     S
C162   O174    1.362   .     S
C163   O175    1.362   .     S
C164   O176    1.362   .     S
O169   H185    0.972   .     S
O170   H180    0.972   .     S
O171   H195    0.972   .     S
O172   H190    0.972   .     S
O173   H186    0.973   .     S
O174   H181    0.973   .     S
O175   H196    0.973   .     S
O176   H191    0.973   .     S
