data_387
_audit_creation_date              2023-09-08
_audit_creation_method            'Materials Studio'
_symmetry_space_group_name_H-M    'P1'
_symmetry_Int_Tables_number       1
_symmetry_cell_setting            triclinic
loop_
_symmetry_equiv_pos_as_xyz
  x,y,z
_cell_length_a                    45.9000
_cell_length_b                    41.1000
_cell_length_c                    3.9400
_cell_angle_alpha                 90.0000
_cell_angle_beta                  76.0000
_cell_angle_gamma                 90.0000
loop_
_atom_site_label
_atom_site_type_symbol
_atom_site_fract_x
_atom_site_fract_y
_atom_site_fract_z
_atom_site_U_iso_or_equiv
_atom_site_adp_type
_atom_site_occupancy
C1     C     0.53139   0.53002  -0.16158   0.00000  Uiso   1.00
C2     C     0.03139   0.03002  -0.16158   0.00000  Uiso   1.00
C3     C     0.46861   0.53002   0.16158   0.00000  Uiso   1.00
C4     C     0.96861   0.03002   0.16158   0.00000  Uiso   1.00
C5     C     0.46861   0.46998   0.16158   0.00000  Uiso   1.00
C6     C     0.96861   0.96998   0.16158   0.00000  Uiso   1.00
C7     C     0.53139   0.46998  -0.16158   0.00000  Uiso   1.00
C8     C     0.03139   0.96998  -0.16158   0.00000  Uiso   1.00
C9     C     0.48458   0.55912   0.06954   0.00000  Uiso   1.00
C10    C     0.98458   0.05912   0.06954   0.00000  Uiso   1.00
C11    C     0.51542   0.55912  -0.06954   0.00000  Uiso   1.00
C12    C     0.01542   0.05912  -0.06954   0.00000  Uiso   1.00
C13    C     0.51542   0.44088  -0.06954   0.00000  Uiso   1.00
C14    C     0.01542   0.94088  -0.06954   0.00000  Uiso   1.00
C15    C     0.48458   0.44088   0.06954   0.00000  Uiso   1.00
C16    C     0.98458   0.94088   0.06954   0.00000  Uiso   1.00
C17    C     0.43738   0.52985   0.32451   0.00000  Uiso   1.00
C18    C     0.93738   0.02985   0.32451   0.00000  Uiso   1.00
C19    C     0.56262   0.52985  -0.32451   0.00000  Uiso   1.00
C20    C     0.06262   0.02985  -0.32451   0.00000  Uiso   1.00
C21    C     0.56262   0.47015  -0.32451   0.00000  Uiso   1.00
C22    C     0.06262   0.97015  -0.32451   0.00000  Uiso   1.00
C23    C     0.43738   0.47015   0.32451   0.00000  Uiso   1.00
C24    C     0.93738   0.97015   0.32451   0.00000  Uiso   1.00
C25    C     0.41710   0.55882   0.34996   0.00000  Uiso   1.00
C26    C     0.91710   0.05882   0.34996   0.00000  Uiso   1.00
C27    C     0.58290   0.55882  -0.34996   0.00000  Uiso   1.00
C28    C     0.08290   0.05882  -0.34996   0.00000  Uiso   1.00
C29    C     0.58290   0.44119  -0.34996   0.00000  Uiso   1.00
C30    C     0.08290   0.94119  -0.34996   0.00000  Uiso   1.00
C31    C     0.41710   0.44119   0.34996   0.00000  Uiso   1.00
C32    C     0.91710   0.94119   0.34996   0.00000  Uiso   1.00
C33    C     0.39078   0.55566   0.22898   0.00000  Uiso   1.00
C34    C     0.89078   0.05566   0.22898   0.00000  Uiso   1.00
C35    C     0.60922   0.55566  -0.22899   0.00000  Uiso   1.00
C36    C     0.10922   0.05566  -0.22899   0.00000  Uiso   1.00
C37    C     0.60922   0.44434  -0.22899   0.00000  Uiso   1.00
C38    C     0.10922   0.94434  -0.22899   0.00000  Uiso   1.00
C39    C     0.39078   0.44434   0.22898   0.00000  Uiso   1.00
C40    C     0.89078   0.94434   0.22898   0.00000  Uiso   1.00
C41    C     0.37083   0.58153   0.24863   0.00000  Uiso   1.00
C42    C     0.87083   0.08153   0.24863   0.00000  Uiso   1.00
C43    C     0.62917   0.58153  -0.24863   0.00000  Uiso   1.00
C44    C     0.12917   0.08153  -0.24863   0.00000  Uiso   1.00
C45    C     0.62917   0.41847  -0.24863   0.00000  Uiso   1.00
C46    C     0.12917   0.91847  -0.24863   0.00000  Uiso   1.00
C47    C     0.37083   0.41847   0.24863   0.00000  Uiso   1.00
C48    C     0.87083   0.91847   0.24863   0.00000  Uiso   1.00
C49    C     0.37684   0.61165   0.38433   0.00000  Uiso   1.00
C50    C     0.87684   0.11165   0.38433   0.00000  Uiso   1.00
C51    C     0.62316   0.61165  -0.38433   0.00000  Uiso   1.00
C52    C     0.12316   0.11165  -0.38433   0.00000  Uiso   1.00
C53    C     0.62316   0.38835  -0.38433   0.00000  Uiso   1.00
C54    C     0.12316   0.88835  -0.38433   0.00000  Uiso   1.00
C55    C     0.37684   0.38835   0.38433   0.00000  Uiso   1.00
C56    C     0.87684   0.88835   0.38433   0.00000  Uiso   1.00
C57    C     0.40287   0.61512   0.50691   0.00000  Uiso   1.00
C58    C     0.90287   0.11512   0.50691   0.00000  Uiso   1.00
C59    C     0.59713   0.61512  -0.50692   0.00000  Uiso   1.00
C60    C     0.09713   0.11512  -0.50692   0.00000  Uiso   1.00
C61    C     0.59713   0.38488  -0.50692   0.00000  Uiso   1.00
C62    C     0.09713   0.88488  -0.50692   0.00000  Uiso   1.00
C63    C     0.40287   0.38488   0.50691   0.00000  Uiso   1.00
C64    C     0.90287   0.88488   0.50691   0.00000  Uiso   1.00
C65    C     0.42237   0.58861   0.50140   0.00000  Uiso   1.00
C66    C     0.92237   0.08861   0.50140   0.00000  Uiso   1.00
C67    C     0.57763   0.58861  -0.50140   0.00000  Uiso   1.00
C68    C     0.07763   0.08861  -0.50140   0.00000  Uiso   1.00
C69    C     0.57763   0.41140  -0.50140   0.00000  Uiso   1.00
C70    C     0.07763   0.91140  -0.50140   0.00000  Uiso   1.00
C71    C     0.42237   0.41140   0.50140   0.00000  Uiso   1.00
C72    C     0.92237   0.91140   0.50140   0.00000  Uiso   1.00
H73    H     0.47377   0.58250   0.10583   0.00000  Uiso   1.00
H74    H     0.97377   0.08250   0.10583   0.00000  Uiso   1.00
H75    H     0.52623   0.58250  -0.10583   0.00000  Uiso   1.00
H76    H     0.02623   0.08250  -0.10583   0.00000  Uiso   1.00
H77    H     0.52623   0.41750  -0.10583   0.00000  Uiso   1.00
H78    H     0.02623   0.91750  -0.10583   0.00000  Uiso   1.00
H79    H     0.47377   0.41750   0.10583   0.00000  Uiso   1.00
H80    H     0.97377   0.91750   0.10583   0.00000  Uiso   1.00
H81    H     0.38606   0.53327   0.10789   0.00000  Uiso   1.00
H82    H     0.88606   0.03327   0.10789   0.00000  Uiso   1.00
H83    H     0.61394   0.53327  -0.10789   0.00000  Uiso   1.00
H84    H     0.11394   0.03327  -0.10789   0.00000  Uiso   1.00
H85    H     0.61394   0.46673  -0.10789   0.00000  Uiso   1.00
H86    H     0.11394   0.96673  -0.10789   0.00000  Uiso   1.00
H87    H     0.38606   0.46673   0.10789   0.00000  Uiso   1.00
H88    H     0.88606   0.96673   0.10789   0.00000  Uiso   1.00
H89    H     0.35162   0.57859   0.13786   0.00000  Uiso   1.00
H90    H     0.85162   0.07859   0.13786   0.00000  Uiso   1.00
H91    H     0.64838   0.57859  -0.13786   0.00000  Uiso   1.00
H92    H     0.14838   0.07859  -0.13786   0.00000  Uiso   1.00
H93    H     0.64838   0.42141  -0.13786   0.00000  Uiso   1.00
H94    H     0.14838   0.92141  -0.13786   0.00000  Uiso   1.00
H95    H     0.35162   0.42141   0.13786   0.00000  Uiso   1.00
H96    H     0.85162   0.92141   0.13786   0.00000  Uiso   1.00
H97    H     0.40737   0.63817   0.61677   0.00000  Uiso   1.00
H98    H     0.90737   0.13817   0.61677   0.00000  Uiso   1.00
H99    H     0.59263   0.63817  -0.61677   0.00000  Uiso   1.00
H100   H     0.09263   0.13817  -0.61677   0.00000  Uiso   1.00
H101   H     0.59263   0.36184  -0.61677   0.00000  Uiso   1.00
H102   H     0.09263   0.86184  -0.61677   0.00000  Uiso   1.00
H103   H     0.40737   0.36184   0.61677   0.00000  Uiso   1.00
H104   H     0.90737   0.86184   0.61677   0.00000  Uiso   1.00
H105   H     0.44116   0.59119   0.62075   0.00000  Uiso   1.00
H106   H     0.94116   0.09119   0.62075   0.00000  Uiso   1.00
H107   H     0.55884   0.59119  -0.62075   0.00000  Uiso   1.00
H108   H     0.05884   0.09119  -0.62075   0.00000  Uiso   1.00
H109   H     0.55884   0.40881  -0.62075   0.00000  Uiso   1.00
H110   H     0.05884   0.90881  -0.62075   0.00000  Uiso   1.00
H111   H     0.44116   0.40881   0.62075   0.00000  Uiso   1.00
H112   H     0.94116   0.90881   0.62075   0.00000  Uiso   1.00
C113   C     0.18901   0.83496  -0.33860   0.00000  Uiso   1.00
C114   C     0.68901   0.33496  -0.33860   0.00000  Uiso   1.00
C115   C     0.81099   0.83496   0.33860   0.00000  Uiso   1.00
C116   C     0.31099   0.33496   0.33860   0.00000  Uiso   1.00
C117   C     0.81099   0.16504   0.33860   0.00000  Uiso   1.00
C118   C     0.31099   0.66504   0.33860   0.00000  Uiso   1.00
C119   C     0.18901   0.16504  -0.33860   0.00000  Uiso   1.00
C120   C     0.68901   0.66504  -0.33860   0.00000  Uiso   1.00
C121   C     0.17555   0.80604  -0.18626   0.00000  Uiso   1.00
C122   C     0.67555   0.30604  -0.18626   0.00000  Uiso   1.00
C123   C     0.82445   0.80604   0.18626   0.00000  Uiso   1.00
C124   C     0.32445   0.30604   0.18626   0.00000  Uiso   1.00
C125   C     0.82445   0.19396   0.18626   0.00000  Uiso   1.00
C126   C     0.32445   0.69396   0.18626   0.00000  Uiso   1.00
C127   C     0.17555   0.19396  -0.18626   0.00000  Uiso   1.00
C128   C     0.67555   0.69396  -0.18626   0.00000  Uiso   1.00
C129   C     0.19314   0.78122  -0.09401   0.00000  Uiso   1.00
C130   C     0.69314   0.28122  -0.09401   0.00000  Uiso   1.00
C131   C     0.80686   0.78122   0.09401   0.00000  Uiso   1.00
C132   C     0.30686   0.28122   0.09401   0.00000  Uiso   1.00
C133   C     0.80686   0.21878   0.09401   0.00000  Uiso   1.00
C134   C     0.30686   0.71878   0.09401   0.00000  Uiso   1.00
C135   C     0.19314   0.21878  -0.09401   0.00000  Uiso   1.00
C136   C     0.69314   0.71878  -0.09401   0.00000  Uiso   1.00
C137   C     0.22429   0.78510  -0.15319   0.00000  Uiso   1.00
C138   C     0.72429   0.28510  -0.15319   0.00000  Uiso   1.00
C139   C     0.77571   0.78510   0.15319   0.00000  Uiso   1.00
C140   C     0.27571   0.28510   0.15319   0.00000  Uiso   1.00
C141   C     0.77571   0.21490   0.15319   0.00000  Uiso   1.00
C142   C     0.27571   0.71490   0.15319   0.00000  Uiso   1.00
C143   C     0.22429   0.21490  -0.15319   0.00000  Uiso   1.00
C144   C     0.72429   0.71490  -0.15319   0.00000  Uiso   1.00
C145   C     0.23784   0.81358  -0.31084   0.00000  Uiso   1.00
C146   C     0.73784   0.31358  -0.31084   0.00000  Uiso   1.00
C147   C     0.76216   0.81358   0.31084   0.00000  Uiso   1.00
C148   C     0.26216   0.31358   0.31084   0.00000  Uiso   1.00
C149   C     0.76216   0.18642   0.31084   0.00000  Uiso   1.00
C150   C     0.26216   0.68642   0.31084   0.00000  Uiso   1.00
C151   C     0.23784   0.18642  -0.31084   0.00000  Uiso   1.00
C152   C     0.73784   0.68642  -0.31084   0.00000  Uiso   1.00
C153   C     0.22032   0.83838  -0.40248   0.00000  Uiso   1.00
C154   C     0.72032   0.33838  -0.40248   0.00000  Uiso   1.00
C155   C     0.77968   0.83838   0.40247   0.00000  Uiso   1.00
C156   C     0.27968   0.33838   0.40247   0.00000  Uiso   1.00
C157   C     0.77968   0.16162   0.40247   0.00000  Uiso   1.00
C158   C     0.27968   0.66162   0.40247   0.00000  Uiso   1.00
C159   C     0.22032   0.16162  -0.40248   0.00000  Uiso   1.00
C160   C     0.72032   0.66162  -0.40248   0.00000  Uiso   1.00
C161   C     0.24237   0.76029  -0.04551   0.00000  Uiso   1.00
C162   C     0.74237   0.26029  -0.04551   0.00000  Uiso   1.00
C163   C     0.75763   0.76029   0.04551   0.00000  Uiso   1.00
C164   C     0.25763   0.26029   0.04551   0.00000  Uiso   1.00
C165   C     0.75763   0.23971   0.04551   0.00000  Uiso   1.00
C166   C     0.25763   0.73971   0.04551   0.00000  Uiso   1.00
C167   C     0.24237   0.23971  -0.04551   0.00000  Uiso   1.00
C168   C     0.74237   0.73971  -0.04551   0.00000  Uiso   1.00
H169   H     0.15141   0.80318  -0.13038   0.00000  Uiso   1.00
H170   H     0.65141   0.30318  -0.13038   0.00000  Uiso   1.00
H171   H     0.84859   0.80318   0.13038   0.00000  Uiso   1.00
H172   H     0.34859   0.30318   0.13038   0.00000  Uiso   1.00
H173   H     0.84859   0.19682   0.13038   0.00000  Uiso   1.00
H174   H     0.34859   0.69682   0.13038   0.00000  Uiso   1.00
H175   H     0.15141   0.19682  -0.13038   0.00000  Uiso   1.00
H176   H     0.65141   0.69682  -0.13038   0.00000  Uiso   1.00
H177   H     0.18246   0.75933   0.02987   0.00000  Uiso   1.00
H178   H     0.68246   0.25933   0.02987   0.00000  Uiso   1.00
H179   H     0.81754   0.75933  -0.02987   0.00000  Uiso   1.00
H180   H     0.31754   0.25933  -0.02987   0.00000  Uiso   1.00
H181   H     0.81754   0.24067  -0.02987   0.00000  Uiso   1.00
H182   H     0.31754   0.74067  -0.02987   0.00000  Uiso   1.00
H183   H     0.18246   0.24067   0.02987   0.00000  Uiso   1.00
H184   H     0.68246   0.74067   0.02987   0.00000  Uiso   1.00
H185   H     0.26192   0.81673  -0.35853   0.00000  Uiso   1.00
H186   H     0.76192   0.31673  -0.35853   0.00000  Uiso   1.00
H187   H     0.73808   0.81673   0.35853   0.00000  Uiso   1.00
H188   H     0.23808   0.31673   0.35853   0.00000  Uiso   1.00
H189   H     0.73808   0.18327   0.35853   0.00000  Uiso   1.00
H190   H     0.23808   0.68327   0.35853   0.00000  Uiso   1.00
H191   H     0.26192   0.18327  -0.35853   0.00000  Uiso   1.00
H192   H     0.76192   0.68327  -0.35853   0.00000  Uiso   1.00
H193   H     0.23117   0.86044  -0.51958   0.00000  Uiso   1.00
H194   H     0.73117   0.36044  -0.51958   0.00000  Uiso   1.00
H195   H     0.76883   0.86044   0.51958   0.00000  Uiso   1.00
H196   H     0.26883   0.36044   0.51958   0.00000  Uiso   1.00
H197   H     0.76883   0.13956   0.51958   0.00000  Uiso   1.00
H198   H     0.26883   0.63956   0.51958   0.00000  Uiso   1.00
H199   H     0.23117   0.13956  -0.51958   0.00000  Uiso   1.00
H200   H     0.73117   0.63956  -0.51958   0.00000  Uiso   1.00
C201   C     0.17091   0.86280  -0.40792   0.00000  Uiso   1.00
C202   C     0.67091   0.36279  -0.40792   0.00000  Uiso   1.00
C203   C     0.82909   0.86280   0.40792   0.00000  Uiso   1.00
C204   C     0.32909   0.36279   0.40792   0.00000  Uiso   1.00
C205   C     0.82909   0.13721   0.40792   0.00000  Uiso   1.00
C206   C     0.32909   0.63721   0.40792   0.00000  Uiso   1.00
C207   C     0.17091   0.13721  -0.40792   0.00000  Uiso   1.00
C208   C     0.67091   0.63721  -0.40792   0.00000  Uiso   1.00
N209   N     0.14201   0.86065  -0.37203   0.00000  Uiso   1.00
N210   N     0.64201   0.36065  -0.37203   0.00000  Uiso   1.00
N211   N     0.85799   0.86065   0.37203   0.00000  Uiso   1.00
N212   N     0.35799   0.36065   0.37203   0.00000  Uiso   1.00
N213   N     0.85799   0.13935   0.37203   0.00000  Uiso   1.00
N214   N     0.35799   0.63935   0.37203   0.00000  Uiso   1.00
N215   N     0.14201   0.13935  -0.37203   0.00000  Uiso   1.00
N216   N     0.64201   0.63935  -0.37203   0.00000  Uiso   1.00
H217   H     0.81772   0.11418   0.47770   0.00000  Uiso   1.00
H218   H     0.31772   0.61418   0.47770   0.00000  Uiso   1.00
H219   H     0.18228   0.11418  -0.47770   0.00000  Uiso   1.00
H220   H     0.68228   0.61418  -0.47770   0.00000  Uiso   1.00
H221   H     0.18228   0.88582  -0.47770   0.00000  Uiso   1.00
H222   H     0.68228   0.38582  -0.47770   0.00000  Uiso   1.00
H223   H     0.81772   0.88582   0.47770   0.00000  Uiso   1.00
H224   H     0.31772   0.38582   0.47770   0.00000  Uiso   1.00
C225   C     0.42324   0.50000   0.42333   0.00000  Uiso   1.00
C226   C     0.92324   0.00000   0.42333   0.00000  Uiso   1.00
C227   C     0.57676   0.50000  -0.42333   0.00000  Uiso   1.00
C228   C     0.07676   0.00000  -0.42333   0.00000  Uiso   1.00
C229   C     0.51565   0.50000  -0.08478   0.00000  Uiso   1.00
C230   C     0.01565   0.00000  -0.08478   0.00000  Uiso   1.00
C231   C     0.48435   0.50000   0.08478   0.00000  Uiso   1.00
C232   C     0.98435   0.00000   0.08478   0.00000  Uiso   1.00
H233   H     0.39962   0.50000   0.55553   0.00000  Uiso   1.00
H234   H     0.89962   0.00000   0.55553   0.00000  Uiso   1.00
H235   H     0.60038   0.50000  -0.55553   0.00000  Uiso   1.00
H236   H     0.10038   0.00000  -0.55553   0.00000  Uiso   1.00
loop_
_geom_bond_atom_site_label_1
_geom_bond_atom_site_label_2
_geom_bond_distance
_geom_bond_site_symmetry_2
_ccdc_geom_bond_type
C1     C11     1.404   .     S
C1     C19     1.422   .     S
C1     C229    1.425   .     D
C2     C12     1.404   .     D
C2     C20     1.422   .     S
C2     C230    1.425   .     S
C3     C9      1.404   .     S
C3     C17     1.422   .     S
C3     C231    1.425   .     D
C4     C10     1.404   .     D
C4     C18     1.422   .     S
C4     C232    1.425   .     S
C5     C15     1.404   .     D
C5     C23     1.422   .     S
C5     C231    1.425   .     S
C6     C16     1.404   .     D
C6     C24     1.422   .     S
C6     C232    1.425   1_565 S
C7     C13     1.404   .     D
C7     C21     1.422   .     S
C7     C229    1.425   .     S
C8     C14     1.404   .     D
C8     C22     1.422   .     S
C8     C230    1.425   1_565 S
C9     C11     1.388   .     D
C9     H73     1.075   .     S
C10    C12     1.388   1_655 S
C10    H74     1.075   .     S
C11    H75     1.075   .     S
C12    C10     1.388   1_455 S
C12    H76     1.075   .     S
C13    C15     1.388   .     S
C13    H77     1.075   .     S
C14    C16     1.388   1_455 S
C14    H78     1.075   .     S
C15    H79     1.075   .     S
C16    C14     1.388   1_655 S
C16    H80     1.075   .     S
C17    C25     1.500   .     S
C17    C225    1.398   .     D
C18    C26     1.500   .     D
C18    C226    1.398   .     S
C19    C27     1.500   .     S
C19    C227    1.398   .     D
C20    C28     1.500   .     D
C20    C228    1.398   .     S
C21    C29     1.500   .     D
C21    C227    1.398   .     S
C22    C30     1.500   .     S
C22    C228    1.398   1_565 D
C23    C31     1.500   .     D
C23    C225    1.398   .     S
C24    C32     1.500   .     S
C24    C226    1.398   1_565 D
C25    C33     1.408   .     D
C25    C65     1.408   .     S
C26    C34     1.408   .     S
C26    C66     1.408   .     S
C27    C35     1.408   .     D
C27    C67     1.408   .     S
C28    C36     1.408   .     S
C28    C68     1.408   .     S
C29    C37     1.408   .     S
C29    C69     1.408   .     S
C30    C38     1.408   .     D
C30    C70     1.408   .     S
C31    C39     1.408   .     S
C31    C71     1.408   .     S
C32    C40     1.408   .     D
C32    C72     1.408   .     S
C33    C41     1.393   .     S
C33    H81     1.082   .     S
C34    C42     1.393   .     D
C34    H82     1.082   .     S
C35    C43     1.393   .     S
C35    H83     1.082   .     S
C36    C44     1.393   .     D
C36    H84     1.082   .     S
C37    C45     1.393   .     D
C37    H85     1.082   .     S
C38    C46     1.393   .     S
C38    H86     1.082   .     S
C39    C47     1.393   .     D
C39    H87     1.082   .     S
C40    C48     1.393   .     S
C40    H88     1.082   .     S
C41    C49     1.402   .     D
C41    H89     1.081   .     S
C42    C50     1.402   .     S
C42    H90     1.081   .     S
C43    C51     1.402   .     D
C43    H91     1.081   .     S
C44    C52     1.402   .     S
C44    H92     1.081   .     S
C45    C53     1.402   .     S
C45    H93     1.081   .     S
C46    C54     1.402   .     D
C46    H94     1.081   .     S
C47    C55     1.402   .     S
C47    H95     1.081   .     S
C48    C56     1.402   .     D
C48    H96     1.081   .     S
C49    C57     1.400   .     S
C49    N214    1.438   .     S
C50    C58     1.400   .     S
C50    N213    1.438   .     D
C51    C59     1.400   .     S
C51    N216    1.438   .     S
C52    C60     1.400   .     S
C52    N215    1.438   .     D
C53    C61     1.400   .     S
C53    N210    1.438   .     D
C54    C62     1.400   .     S
C54    N209    1.438   .     S
C55    C63     1.400   .     S
C55    N212    1.438   .     D
C56    C64     1.400   .     S
C56    N211    1.438   .     S
C57    C65     1.407   .     D
C57    H97     1.082   .     S
C58    C66     1.407   .     D
C58    H98     1.082   .     S
C59    C67     1.407   .     D
C59    H99     1.082   .     S
C60    C68     1.407   .     D
C60    H100    1.082   .     S
C61    C69     1.407   .     D
C61    H101    1.082   .     S
C62    C70     1.407   .     D
C62    H102    1.082   .     S
C63    C71     1.407   .     D
C63    H103    1.082   .     S
C64    C72     1.407   .     D
C64    H104    1.082   .     S
C65    H105    1.083   .     S
C66    H106    1.083   .     S
C67    H107    1.083   .     S
C68    H108    1.083   .     S
C69    H109    1.083   .     S
C70    H110    1.083   .     S
C71    H111    1.083   .     S
C72    H112    1.083   .     S
C113   C121    1.406   .     D
C113   C153    1.405   .     S
C113   C201    1.478   .     S
C114   C122    1.406   .     S
C114   C154    1.405   .     S
C114   C202    1.478   .     D
C115   C123    1.406   .     D
C115   C155    1.405   .     S
C115   C203    1.478   .     S
C116   C124    1.406   .     S
C116   C156    1.405   .     S
C116   C204    1.478   .     D
C117   C125    1.406   .     S
C117   C157    1.405   .     S
C117   C205    1.478   .     D
C118   C126    1.406   .     D
C118   C158    1.405   .     S
C118   C206    1.478   .     S
C119   C127    1.406   .     S
C119   C159    1.405   .     S
C119   C207    1.478   .     D
C120   C128    1.406   .     D
C120   C160    1.405   .     S
C120   C208    1.478   .     S
C121   C129    1.402   .     S
C121   H169    1.083   .     S
C122   C130    1.402   .     D
C122   H170    1.083   .     S
C123   C131    1.402   .     S
C123   H171    1.083   .     S
C124   C132    1.402   .     D
C124   H172    1.083   .     S
C125   C133    1.402   .     D
C125   H173    1.083   .     S
C126   C134    1.402   .     S
C126   H174    1.083   .     S
C127   C135    1.402   .     D
C127   H175    1.083   .     S
C128   C136    1.402   .     S
C128   H176    1.083   .     S
C129   C137    1.401   .     D
C129   H177    1.083   .     S
C130   C138    1.401   .     S
C130   H178    1.083   .     S
C131   C139    1.401   .     D
C131   H179    1.083   .     S
C132   C140    1.401   .     S
C132   H180    1.083   .     S
C133   C141    1.401   .     S
C133   H181    1.083   .     S
C134   C142    1.401   .     D
C134   H182    1.083   .     S
C135   C143    1.401   .     S
C135   H183    1.083   .     S
C136   C144    1.401   .     D
C136   H184    1.083   .     S
C137   C145    1.399   .     S
C137   C161    1.441   .     S
C138   C146    1.399   .     S
C138   C162    1.441   .     D
C139   C147    1.399   .     S
C139   C163    1.441   .     S
C140   C148    1.399   .     S
C140   C164    1.441   .     D
C141   C149    1.399   .     S
C141   C165    1.441   .     D
C142   C150    1.399   .     S
C142   C166    1.441   .     S
C143   C151    1.399   .     S
C143   C167    1.441   .     D
C144   C152    1.399   .     S
C144   C168    1.441   .     S
C145   C153    1.399   .     D
C145   H185    1.083   .     S
C146   C154    1.399   .     D
C146   H186    1.083   .     S
C147   C155    1.399   .     D
C147   H187    1.083   .     S
C148   C156    1.399   .     D
C148   H188    1.083   .     S
C149   C157    1.399   .     D
C149   H189    1.083   .     S
C150   C158    1.399   .     D
C150   H190    1.083   .     S
C151   C159    1.399   .     D
C151   H191    1.083   .     S
C152   C160    1.399   .     D
C152   H192    1.083   .     S
C153   H193    1.083   .     S
C154   H194    1.083   .     S
C155   H195    1.083   .     S
C156   H196    1.083   .     S
C157   H197    1.083   .     S
C158   H198    1.083   .     S
C159   H199    1.083   .     S
C160   H200    1.083   .     S
C161   C166    1.207   .     T
C162   C165    1.207   .     D
C163   C168    1.207   .     T
C164   C167    1.207   .     D
C201   N209    1.303   .     D
C201   H221    1.084   .     S
C202   N210    1.303   .     S
C202   H222    1.084   .     S
C203   N211    1.303   .     D
C203   H223    1.084   .     S
C204   N212    1.303   .     S
C204   H224    1.084   .     S
C205   N213    1.303   .     S
C205   H217    1.084   .     S
C206   N214    1.303   .     D
C206   H218    1.084   .     S
C207   N215    1.303   .     S
C207   H219    1.084   .     S
C208   N216    1.303   .     D
C208   H220    1.084   .     S
C225   H233    1.084   .     S
C226   C24     1.398   1_545 D
C226   H234    1.084   .     S
C227   H235    1.084   .     S
C228   C22     1.398   1_545 D
C228   H236    1.084   .     S
C229   C231    1.430   .     S
C230   C8      1.425   1_545 S
C230   C232    1.430   1_455 D
C232   C230    1.430   1_655 D
C232   C6      1.425   1_545 S
