data_388
_audit_creation_date              2023-09-08
_audit_creation_method            'Materials Studio'
_symmetry_space_group_name_H-M    'P1'
_symmetry_Int_Tables_number       1
_symmetry_cell_setting            triclinic
loop_
_symmetry_equiv_pos_as_xyz
  x,y,z
_cell_length_a                    40.5500
_cell_length_b                    39.0800
_cell_length_c                    3.6000
_cell_angle_alpha                 90.0000
_cell_angle_beta                  90.0000
_cell_angle_gamma                 90.0000
loop_
_atom_site_label
_atom_site_type_symbol
_atom_site_fract_x
_atom_site_fract_y
_atom_site_fract_z
_atom_site_U_iso_or_equiv
_atom_site_adp_type
_atom_site_occupancy
C1     C     0.96973   0.46342   0.01303   0.00000  Uiso   1.00
C2     C     0.03027   0.53658   0.01303   0.00000  Uiso   1.00
C3     C     0.03027   0.46342  -0.01303   0.00000  Uiso   1.00
C4     C     0.96973   0.53658  -0.01303   0.00000  Uiso   1.00
C5     C     0.46974   0.96345   0.01430   0.00000  Uiso   1.00
C6     C     0.53026   0.03654   0.01430   0.00000  Uiso   1.00
C7     C     0.53026   0.96345  -0.01430   0.00000  Uiso   1.00
C8     C     0.46974   0.03654  -0.01430   0.00000  Uiso   1.00
C9     C     0.94051   0.51761   0.00820   0.00000  Uiso   1.00
C10    C     0.05949   0.48239   0.00820   0.00000  Uiso   1.00
C11    C     0.05949   0.51761  -0.00820   0.00000  Uiso   1.00
C12    C     0.94051   0.48239  -0.00820   0.00000  Uiso   1.00
C13    C     0.44047   0.01762   0.00815   0.00000  Uiso   1.00
C14    C     0.55953   0.98238   0.00815   0.00000  Uiso   1.00
C15    C     0.55953   0.01762  -0.00815   0.00000  Uiso   1.00
C16    C     0.44047   0.98238  -0.00815   0.00000  Uiso   1.00
C17    C     0.96957   0.57514  -0.03438   0.00000  Uiso   1.00
C18    C     0.03043   0.42486  -0.03438   0.00000  Uiso   1.00
C19    C     0.03043   0.57514   0.03438   0.00000  Uiso   1.00
C20    C     0.96957   0.42486   0.03438   0.00000  Uiso   1.00
C21    C     0.46966   0.07509  -0.03889   0.00000  Uiso   1.00
C22    C     0.53034   0.92491  -0.03889   0.00000  Uiso   1.00
C23    C     0.53034   0.07509   0.03889   0.00000  Uiso   1.00
C24    C     0.46966   0.92491   0.03889   0.00000  Uiso   1.00
C25    C     0.94076   0.59565  -0.09730   0.00000  Uiso   1.00
C26    C     0.05924   0.40435  -0.09730   0.00000  Uiso   1.00
C27    C     0.05924   0.59565   0.09730   0.00000  Uiso   1.00
C28    C     0.94076   0.40435   0.09730   0.00000  Uiso   1.00
C29    C     0.44100   0.09570  -0.10321   0.00000  Uiso   1.00
C30    C     0.55900   0.90431  -0.10321   0.00000  Uiso   1.00
C31    C     0.55900   0.09570   0.10321   0.00000  Uiso   1.00
C32    C     0.44100   0.90431   0.10321   0.00000  Uiso   1.00
C33    C     0.91182   0.58277  -0.30990   0.00000  Uiso   1.00
C34    C     0.08818   0.41723  -0.30990   0.00000  Uiso   1.00
C35    C     0.08818   0.58277   0.30990   0.00000  Uiso   1.00
C36    C     0.91182   0.41723   0.30990   0.00000  Uiso   1.00
C37    C     0.41358   0.08380  -0.30527   0.00000  Uiso   1.00
C38    C     0.58642   0.91620  -0.30527   0.00000  Uiso   1.00
C39    C     0.58642   0.08380   0.30527   0.00000  Uiso   1.00
C40    C     0.41358   0.91620   0.30527   0.00000  Uiso   1.00
C41    C     0.88497   0.60194  -0.36050   0.00000  Uiso   1.00
C42    C     0.11503   0.39806  -0.36050   0.00000  Uiso   1.00
C43    C     0.11503   0.60194   0.36050   0.00000  Uiso   1.00
C44    C     0.88497   0.39806   0.36050   0.00000  Uiso   1.00
C45    C     0.38587   0.10414  -0.36683   0.00000  Uiso   1.00
C46    C     0.61413   0.89586  -0.36683   0.00000  Uiso   1.00
C47    C     0.61413   0.10414   0.36683   0.00000  Uiso   1.00
C48    C     0.38587   0.89586   0.36683   0.00000  Uiso   1.00
C49    C     0.88441   0.63769  -0.23727   0.00000  Uiso   1.00
C50    C     0.11559   0.36231  -0.23727   0.00000  Uiso   1.00
C51    C     0.11559   0.63769   0.23727   0.00000  Uiso   1.00
C52    C     0.88441   0.36231   0.23727   0.00000  Uiso   1.00
C53    C     0.38539   0.13826  -0.25878   0.00000  Uiso   1.00
C54    C     0.61461   0.86174  -0.25878   0.00000  Uiso   1.00
C55    C     0.61461   0.13826   0.25878   0.00000  Uiso   1.00
C56    C     0.38539   0.86174   0.25878   0.00000  Uiso   1.00
C57    C     0.91174   0.65073  -0.04670   0.00000  Uiso   1.00
C58    C     0.08826   0.34927  -0.04670   0.00000  Uiso   1.00
C59    C     0.08826   0.65073   0.04670   0.00000  Uiso   1.00
C60    C     0.91174   0.34927   0.04670   0.00000  Uiso   1.00
C61    C     0.41397   0.15220  -0.05308   0.00000  Uiso   1.00
C62    C     0.58603   0.84780  -0.05308   0.00000  Uiso   1.00
C63    C     0.58603   0.15220   0.05308   0.00000  Uiso   1.00
C64    C     0.41397   0.84780   0.05308   0.00000  Uiso   1.00
C65    C     0.93884   0.62996   0.02953   0.00000  Uiso   1.00
C66    C     0.06116   0.37004   0.02953   0.00000  Uiso   1.00
C67    C     0.06116   0.62996  -0.02953   0.00000  Uiso   1.00
C68    C     0.93884   0.37004  -0.02953   0.00000  Uiso   1.00
C69    C     0.43950   0.13206   0.02870   0.00000  Uiso   1.00
C70    C     0.56050   0.86795   0.02870   0.00000  Uiso   1.00
C71    C     0.56050   0.13206  -0.02870   0.00000  Uiso   1.00
C72    C     0.43950   0.86795  -0.02870   0.00000  Uiso   1.00
N73    N     0.85769   0.65678  -0.32683   0.00000  Uiso   1.00
N74    N     0.14231   0.34322  -0.32683   0.00000  Uiso   1.00
N75    N     0.14231   0.65678   0.32683   0.00000  Uiso   1.00
N76    N     0.85769   0.34322   0.32683   0.00000  Uiso   1.00
N77    N     0.35897   0.15748  -0.35490   0.00000  Uiso   1.00
N78    N     0.64103   0.84252  -0.35490   0.00000  Uiso   1.00
N79    N     0.64103   0.15748   0.35490   0.00000  Uiso   1.00
N80    N     0.35897   0.84252   0.35490   0.00000  Uiso   1.00
C81    C     0.85414   0.69108  -0.28551   0.00000  Uiso   1.00
C82    C     0.14586   0.30892  -0.28551   0.00000  Uiso   1.00
C83    C     0.14586   0.69108   0.28551   0.00000  Uiso   1.00
C84    C     0.85414   0.30892   0.28551   0.00000  Uiso   1.00
C85    C     0.35619   0.19187  -0.31856   0.00000  Uiso   1.00
C86    C     0.64382   0.80813  -0.31856   0.00000  Uiso   1.00
C87    C     0.64382   0.19187   0.31856   0.00000  Uiso   1.00
C88    C     0.35619   0.80813   0.31856   0.00000  Uiso   1.00
C89    C     0.00000   0.59186   0.00000   0.00000  Uiso   1.00
C90    C     0.00000   0.40814   0.00000   0.00000  Uiso   1.00
C91    C     0.50000   0.09183   0.00000   0.00000  Uiso   1.00
C92    C     0.50000   0.90817   0.00000   0.00000  Uiso   1.00
C93    C     0.00000   0.48159   0.00000   0.00000  Uiso   1.00
C94    C     0.00000   0.51841   0.00000   0.00000  Uiso   1.00
C95    C     0.50000   0.98162   0.00000   0.00000  Uiso   1.00
C96    C     0.50000   0.01838   0.00000   0.00000  Uiso   1.00
C97    C     0.17545   0.29296  -0.37166   0.00000  Uiso   1.00
C98    C     0.82455   0.70704  -0.37166   0.00000  Uiso   1.00
C99    C     0.82455   0.29296   0.37166   0.00000  Uiso   1.00
C100   C     0.17545   0.70704   0.37166   0.00000  Uiso   1.00
N101   N     0.17783   0.25656  -0.32998   0.00000  Uiso   1.00
N102   N     0.82217   0.74344  -0.32998   0.00000  Uiso   1.00
N103   N     0.82217   0.25656   0.32998   0.00000  Uiso   1.00
N104   N     0.17783   0.74344   0.32998   0.00000  Uiso   1.00
C105   C     0.20535   0.24035  -0.38412   0.00000  Uiso   1.00
C106   C     0.79465   0.75966  -0.38412   0.00000  Uiso   1.00
C107   C     0.79465   0.24035   0.38412   0.00000  Uiso   1.00
C108   C     0.20535   0.75966   0.38412   0.00000  Uiso   1.00
C109   C     0.23594   0.25946  -0.48109   0.00000  Uiso   1.00
C110   C     0.76406   0.74054  -0.48109   0.00000  Uiso   1.00
C111   C     0.76406   0.25946   0.48109   0.00000  Uiso   1.00
C112   C     0.23594   0.74054   0.48109   0.00000  Uiso   1.00
C113   C     0.23314   0.29494  -0.53912   0.00000  Uiso   1.00
C114   C     0.76686   0.70506  -0.53912   0.00000  Uiso   1.00
C115   C     0.76686   0.29494   0.53912   0.00000  Uiso   1.00
C116   C     0.23314   0.70506   0.53912   0.00000  Uiso   1.00
C117   C     0.20315   0.31152  -0.48656   0.00000  Uiso   1.00
C118   C     0.79685   0.68848  -0.48656   0.00000  Uiso   1.00
C119   C     0.79685   0.31152   0.48656   0.00000  Uiso   1.00
C120   C     0.20315   0.68848   0.48656   0.00000  Uiso   1.00
C121   C     0.67320   0.79176  -0.40193   0.00000  Uiso   1.00
C122   C     0.32681   0.20824  -0.40193   0.00000  Uiso   1.00
C123   C     0.32681   0.79176   0.40193   0.00000  Uiso   1.00
C124   C     0.67320   0.20824   0.40193   0.00000  Uiso   1.00
N125   N     0.67514   0.75732  -0.36237   0.00000  Uiso   1.00
N126   N     0.32487   0.24269  -0.36237   0.00000  Uiso   1.00
N127   N     0.32487   0.75732   0.36237   0.00000  Uiso   1.00
N128   N     0.67514   0.24269   0.36237   0.00000  Uiso   1.00
C129   C     0.70373   0.73990  -0.41043   0.00000  Uiso   1.00
C130   C     0.29627   0.26010  -0.41043   0.00000  Uiso   1.00
C131   C     0.29627   0.73990   0.41043   0.00000  Uiso   1.00
C132   C     0.70373   0.26010   0.41043   0.00000  Uiso   1.00
C133   C     0.73335   0.75734  -0.49050   0.00000  Uiso   1.00
C134   C     0.26665   0.24266  -0.49050   0.00000  Uiso   1.00
C135   C     0.26665   0.75734   0.49050   0.00000  Uiso   1.00
C136   C     0.73335   0.24266   0.49050   0.00000  Uiso   1.00
C137   C     0.73136   0.79482  -0.55716   0.00000  Uiso   1.00
C138   C     0.26864   0.20518  -0.55716   0.00000  Uiso   1.00
C139   C     0.26864   0.79482   0.55716   0.00000  Uiso   1.00
C140   C     0.73136   0.20518   0.55716   0.00000  Uiso   1.00
C141   C     0.70277   0.81116  -0.51629   0.00000  Uiso   1.00
C142   C     0.29723   0.18884  -0.51629   0.00000  Uiso   1.00
C143   C     0.29723   0.81116   0.51629   0.00000  Uiso   1.00
C144   C     0.70277   0.18884   0.51629   0.00000  Uiso   1.00
H145   H     0.91672   0.52919   0.04005   0.00000  Uiso   1.00
H146   H     0.41669   0.02931   0.04065   0.00000  Uiso   1.00
H147   H     0.91273   0.55869  -0.45100   0.00000  Uiso   1.00
H148   H     0.41415   0.05959  -0.44462   0.00000  Uiso   1.00
H149   H     0.86456   0.59225  -0.52311   0.00000  Uiso   1.00
H150   H     0.36549   0.09408  -0.52740   0.00000  Uiso   1.00
H151   H     0.91184   0.67634   0.06459   0.00000  Uiso   1.00
H152   H     0.41347   0.17766   0.06258   0.00000  Uiso   1.00
H153   H     0.95722   0.64081   0.21199   0.00000  Uiso   1.00
H154   H     0.45769   0.14228   0.21809   0.00000  Uiso   1.00
H155   H     0.87410   0.70709  -0.18968   0.00000  Uiso   1.00
H156   H     0.37657   0.20749  -0.22606   0.00000  Uiso   1.00
H157   H     0.20574   0.21309  -0.33557   0.00000  Uiso   1.00
H158   H     0.25386   0.31011  -0.63209   0.00000  Uiso   1.00
H159   H     0.20172   0.33890  -0.52958   0.00000  Uiso   1.00
H160   H     0.70343   0.71277  -0.35414   0.00000  Uiso   1.00
H161   H     0.75251   0.80912  -0.65397   0.00000  Uiso   1.00
H162   H     0.70128   0.83837  -0.56972   0.00000  Uiso   1.00
H163   H     0.08328   0.47081   0.04005   0.00000  Uiso   1.00
H164   H     0.58331   0.97069   0.04065   0.00000  Uiso   1.00
H165   H     0.08727   0.44131  -0.45100   0.00000  Uiso   1.00
H166   H     0.58585   0.94041  -0.44462   0.00000  Uiso   1.00
H167   H     0.13544   0.40775  -0.52311   0.00000  Uiso   1.00
H168   H     0.63451   0.90592  -0.52740   0.00000  Uiso   1.00
H169   H     0.08816   0.32366   0.06459   0.00000  Uiso   1.00
H170   H     0.58653   0.82234   0.06258   0.00000  Uiso   1.00
H171   H     0.04278   0.35919   0.21199   0.00000  Uiso   1.00
H172   H     0.54231   0.85772   0.21809   0.00000  Uiso   1.00
H173   H     0.12590   0.29291  -0.18968   0.00000  Uiso   1.00
H174   H     0.62343   0.79251  -0.22606   0.00000  Uiso   1.00
H175   H     0.79426   0.78692  -0.33557   0.00000  Uiso   1.00
H176   H     0.74614   0.68989  -0.63209   0.00000  Uiso   1.00
H177   H     0.79828   0.66110  -0.52958   0.00000  Uiso   1.00
H178   H     0.29657   0.28723  -0.35414   0.00000  Uiso   1.00
H179   H     0.24749   0.19088  -0.65397   0.00000  Uiso   1.00
H180   H     0.29872   0.16163  -0.56972   0.00000  Uiso   1.00
H181   H     0.08328   0.52919  -0.04005   0.00000  Uiso   1.00
H182   H     0.58331   0.02931  -0.04065   0.00000  Uiso   1.00
H183   H     0.08727   0.55869   0.45100   0.00000  Uiso   1.00
H184   H     0.58585   0.05959   0.44462   0.00000  Uiso   1.00
H185   H     0.13544   0.59225   0.52311   0.00000  Uiso   1.00
H186   H     0.63451   0.09408   0.52740   0.00000  Uiso   1.00
H187   H     0.08816   0.67634  -0.06459   0.00000  Uiso   1.00
H188   H     0.58653   0.17766  -0.06258   0.00000  Uiso   1.00
H189   H     0.04278   0.64081  -0.21199   0.00000  Uiso   1.00
H190   H     0.54231   0.14228  -0.21809   0.00000  Uiso   1.00
H191   H     0.12590   0.70709   0.18968   0.00000  Uiso   1.00
H192   H     0.62343   0.20749   0.22606   0.00000  Uiso   1.00
H193   H     0.79426   0.21309   0.33557   0.00000  Uiso   1.00
H194   H     0.74614   0.31011   0.63209   0.00000  Uiso   1.00
H195   H     0.79828   0.33890   0.52958   0.00000  Uiso   1.00
H196   H     0.29657   0.71277   0.35414   0.00000  Uiso   1.00
H197   H     0.24749   0.80912   0.65397   0.00000  Uiso   1.00
H198   H     0.29872   0.83837   0.56972   0.00000  Uiso   1.00
H199   H     0.91672   0.47081  -0.04005   0.00000  Uiso   1.00
H200   H     0.41669   0.97069  -0.04065   0.00000  Uiso   1.00
H201   H     0.91273   0.44131   0.45100   0.00000  Uiso   1.00
H202   H     0.41415   0.94041   0.44462   0.00000  Uiso   1.00
H203   H     0.86456   0.40775   0.52311   0.00000  Uiso   1.00
H204   H     0.36549   0.90592   0.52740   0.00000  Uiso   1.00
H205   H     0.91184   0.32366  -0.06459   0.00000  Uiso   1.00
H206   H     0.41347   0.82234  -0.06258   0.00000  Uiso   1.00
H207   H     0.95722   0.35919  -0.21199   0.00000  Uiso   1.00
H208   H     0.45769   0.85772  -0.21809   0.00000  Uiso   1.00
H209   H     0.87410   0.29291   0.18968   0.00000  Uiso   1.00
H210   H     0.37657   0.79251   0.22606   0.00000  Uiso   1.00
H211   H     0.20574   0.78692   0.33557   0.00000  Uiso   1.00
H212   H     0.25386   0.68989   0.63209   0.00000  Uiso   1.00
H213   H     0.20172   0.66110   0.52958   0.00000  Uiso   1.00
H214   H     0.70343   0.28723   0.35414   0.00000  Uiso   1.00
H215   H     0.75251   0.19088   0.65397   0.00000  Uiso   1.00
H216   H     0.70128   0.16163   0.56972   0.00000  Uiso   1.00
H217   H     0.50000   0.88084   0.00000   0.00000  Uiso   1.00
H218   H     0.50000   0.11916   0.00000   0.00000  Uiso   1.00
H219   H     0.00000   0.38080   0.00000   0.00000  Uiso   1.00
H220   H     0.00000   0.61920   0.00000   0.00000  Uiso   1.00
loop_
_geom_bond_atom_site_label_1
_geom_bond_atom_site_label_2
_geom_bond_distance
_geom_bond_site_symmetry_2
_ccdc_geom_bond_type
C1     C12     1.400   .     D
C1     C20     1.509   .     S
C1     C93     1.419   1_655 S
C2     C11     1.400   .     S
C2     C19     1.509   .     S
C2     C94     1.419   .     D
C3     C10     1.400   .     S
C3     C18     1.509   .     S
C3     C93     1.419   .     D
C4     C9      1.400   .     D
C4     C17     1.509   .     S
C4     C94     1.419   1_655 S
C5     C16     1.401   .     D
C5     C24     1.509   .     S
C5     C95     1.419   .     S
C6     C15     1.401   .     D
C6     C23     1.509   .     S
C6     C96     1.419   .     S
C7     C14     1.401   .     D
C7     C22     1.509   .     S
C7     C95     1.419   .     S
C8     C13     1.401   .     D
C8     C21     1.509   .     S
C8     C96     1.419   .     S
C9     C12     1.378   .     S
C9     H145    1.072   .     S
C10    C11     1.378   .     D
C10    H163    1.072   .     S
C11    H181    1.072   .     S
C12    H199    1.072   .     S
C13    C16     1.378   1_545 S
C13    H146    1.073   .     S
C14    C15     1.378   1_565 S
C14    H164    1.073   .     S
C15    C14     1.378   1_545 S
C15    H182    1.073   .     S
C16    C13     1.378   1_565 S
C16    H200    1.073   .     S
C17    C25     1.435   .     D
C17    C89     1.402   1_655 S
C18    C26     1.435   .     S
C18    C90     1.402   .     D
C19    C27     1.435   .     S
C19    C89     1.402   .     D
C20    C28     1.435   .     D
C20    C90     1.402   1_655 S
C21    C29     1.433   .     S
C21    C91     1.400   .     D
C22    C30     1.433   .     D
C22    C92     1.400   .     S
C23    C31     1.433   .     D
C23    C91     1.400   .     S
C24    C32     1.433   .     S
C24    C92     1.400   .     D
C25    C33     1.489   .     S
C25    C65     1.419   .     S
C26    C34     1.489   .     D
C26    C66     1.419   .     S
C27    C35     1.489   .     D
C27    C67     1.419   .     S
C28    C36     1.489   .     S
C28    C68     1.419   .     S
C29    C37     1.408   .     D
C29    C69     1.499   .     S
C30    C38     1.408   .     S
C30    C70     1.499   .     S
C31    C39     1.408   .     S
C31    C71     1.499   .     S
C32    C40     1.408   .     D
C32    C72     1.499   .     S
C33    C41     1.334   .     D
C33    H147    1.070   .     S
C34    C42     1.334   .     S
C34    H165    1.070   .     S
C35    C43     1.334   .     S
C35    H183    1.070   .     S
C36    C44     1.334   .     D
C36    H201    1.070   .     S
C37    C45     1.394   .     S
C37    H148    1.071   .     S
C38    C46     1.394   .     D
C38    H166    1.071   .     S
C39    C47     1.394   .     D
C39    H184    1.071   .     S
C40    C48     1.394   .     S
C40    H202    1.071   .     S
C41    C49     1.466   .     S
C41    H149    1.082   .     S
C42    C50     1.466   .     D
C42    H167    1.082   .     S
C43    C51     1.466   .     D
C43    H185    1.082   .     S
C44    C52     1.466   .     S
C44    H203    1.082   .     S
C45    C53     1.389   .     D
C45    H150    1.082   .     S
C46    C54     1.389   .     S
C46    H168    1.082   .     S
C47    C55     1.389   .     S
C47    H186    1.082   .     S
C48    C56     1.389   .     D
C48    H204    1.082   .     S
C49    C57     1.400   .     S
C49    N73     1.354   .     D
C50    C58     1.400   .     S
C50    N74     1.354   .     S
C51    C59     1.400   .     S
C51    N75     1.354   .     S
C52    C60     1.400   .     S
C52    N76     1.354   .     D
C53    C61     1.479   .     S
C53    N77     1.353   .     S
C54    C62     1.479   .     S
C54    N78     1.353   .     D
C55    C63     1.479   .     S
C55    N79     1.353   .     D
C56    C64     1.479   .     S
C56    N80     1.353   .     S
C57    C65     1.393   .     D
C57    H151    1.078   .     S
C58    C66     1.393   .     D
C58    H169    1.078   .     S
C59    C67     1.393   .     D
C59    H187    1.078   .     S
C60    C68     1.393   .     D
C60    H205    1.078   .     S
C61    C69     1.334   .     D
C61    H152    1.079   .     S
C62    C70     1.334   .     D
C62    H170    1.079   .     S
C63    C71     1.334   .     D
C63    H188    1.079   .     S
C64    C72     1.334   .     D
C64    H206    1.079   .     S
C65    H153    1.080   .     S
C66    H171    1.080   .     S
C67    H189    1.080   .     S
C68    H207    1.080   .     S
C69    H154    1.081   .     S
C70    H172    1.081   .     S
C71    H190    1.081   .     S
C72    H208    1.081   .     S
N73    C81     1.356   .     S
N74    C82     1.356   .     D
N75    C83     1.356   .     D
N76    C84     1.356   .     S
N77    C85     1.355   .     D
N78    C86     1.355   .     S
N79    C87     1.355   .     S
N80    C88     1.355   .     D
C81    C98     1.387   .     D
C81    H155    1.080   .     S
C82    C97     1.387   .     S
C82    H173    1.080   .     S
C83    C100    1.387   .     S
C83    H191    1.080   .     S
C84    C99     1.387   .     D
C84    H209    1.080   .     S
C85    C122    1.385   .     S
C85    H156    1.080   .     S
C86    C121    1.385   .     D
C86    H174    1.080   .     S
C87    C124    1.385   .     D
C87    H192    1.080   .     S
C88    C123    1.385   .     S
C88    H210    1.080   .     S
C89    C17     1.402   1_455 S
C89    H220    1.069   .     S
C90    C20     1.402   1_455 S
C90    H219    1.069   .     S
C91    H218    1.068   .     S
C92    H217    1.068   .     S
C93    C1      1.419   1_455 S
C93    C94     1.439   .     S
C94    C4      1.419   1_455 S
C95    C96     1.437   1_565 D
C96    C95     1.437   1_545 D
C97    N101    1.434   .     D
C97    C117    1.400   .     S
C98    N102    1.434   .     S
C98    C118    1.400   .     S
C99    N103    1.434   .     S
C99    C119    1.400   .     S
C100   N104    1.434   .     D
C100   C120    1.400   .     S
N101   C105    1.298   .     S
N102   C106    1.298   .     D
N103   C107    1.298   .     D
N104   C108    1.298   .     S
C105   C109    1.489   .     D
C105   H157    1.080   .     S
C106   C110    1.489   .     S
C106   H175    1.080   .     S
C107   C111    1.489   .     S
C107   H193    1.080   .     S
C108   C112    1.489   .     D
C108   H211    1.080   .     S
C109   C113    1.407   .     S
C109   C134    1.409   .     S
C110   C114    1.407   .     S
C110   C133    1.409   .     D
C111   C115    1.407   .     S
C111   C136    1.409   .     D
C112   C116    1.407   .     S
C112   C135    1.409   .     S
C113   C117    1.391   .     D
C113   H158    1.081   .     S
C114   C118    1.391   .     D
C114   H176    1.081   .     S
C115   C119    1.391   .     D
C115   H194    1.081   .     S
C116   C120    1.391   .     D
C116   H212    1.081   .     S
C117   H159    1.083   .     S
C118   H177    1.083   .     S
C119   H195    1.083   .     S
C120   H213    1.083   .     S
C121   N125    1.356   .     S
C121   C141    1.477   .     S
C122   N126    1.356   .     D
C122   C142    1.477   .     S
C123   N127    1.356   .     D
C123   C143    1.477   .     S
C124   N128    1.356   .     S
C124   C144    1.477   .     S
N125   C129    1.356   .     D
N126   C130    1.356   .     S
N127   C131    1.356   .     S
N128   C132    1.356   .     D
C129   C133    1.410   .     S
C129   H160    1.080   .     S
C130   C134    1.410   .     D
C130   H178    1.080   .     S
C131   C135    1.410   .     D
C131   H196    1.080   .     S
C132   C136    1.410   .     S
C132   H214    1.080   .     S
C133   C137    1.486   .     S
C134   C138    1.486   .     S
C135   C139    1.486   .     S
C136   C140    1.486   .     S
C137   C141    1.332   .     D
C137   H161    1.082   .     S
C138   C142    1.332   .     D
C138   H179    1.082   .     S
C139   C143    1.332   .     D
C139   H197    1.082   .     S
C140   C144    1.332   .     D
C140   H215    1.082   .     S
C141   H162    1.082   .     S
C142   H180    1.082   .     S
C143   H198    1.082   .     S
C144   H216    1.082   .     S
