data_389
_audit_creation_date              2023-09-08
_audit_creation_method            'Materials Studio'
_symmetry_space_group_name_H-M    'P1'
_symmetry_Int_Tables_number       1
_symmetry_cell_setting            triclinic
loop_
_symmetry_equiv_pos_as_xyz
  x,y,z
_cell_length_a                    56.0000
_cell_length_b                    50.0000
_cell_length_c                    3.8600
_cell_angle_alpha                 90.0000
_cell_angle_beta                  76.0000
_cell_angle_gamma                 90.0000
loop_
_atom_site_label
_atom_site_type_symbol
_atom_site_fract_x
_atom_site_fract_y
_atom_site_fract_z
_atom_site_U_iso_or_equiv
_atom_site_adp_type
_atom_site_occupancy
C1     C     0.52447   0.52462   0.04624   0.00000  Uiso   1.00
C2     C     0.02453   0.02466   0.04191   0.00000  Uiso   1.00
C3     C     0.47553   0.52462  -0.04624   0.00000  Uiso   1.00
C4     C     0.97547   0.02466  -0.04191   0.00000  Uiso   1.00
C5     C     0.47553   0.47538  -0.04624   0.00000  Uiso   1.00
C6     C     0.97547   0.97534  -0.04191   0.00000  Uiso   1.00
C7     C     0.52447   0.47538   0.04624   0.00000  Uiso   1.00
C8     C     0.02453   0.97534   0.04191   0.00000  Uiso   1.00
C9     C     0.48798   0.54855  -0.01722   0.00000  Uiso   1.00
C10    C     0.98797   0.04862  -0.01728   0.00000  Uiso   1.00
C11    C     0.51202   0.54855   0.01722   0.00000  Uiso   1.00
C12    C     0.01203   0.04862   0.01729   0.00000  Uiso   1.00
C13    C     0.51202   0.45145   0.01722   0.00000  Uiso   1.00
C14    C     0.01203   0.95138   0.01729   0.00000  Uiso   1.00
C15    C     0.48798   0.45145  -0.01722   0.00000  Uiso   1.00
C16    C     0.98797   0.95138  -0.01728   0.00000  Uiso   1.00
C17    C     0.45100   0.52444  -0.08613   0.00000  Uiso   1.00
C18    C     0.95092   0.02446  -0.07914   0.00000  Uiso   1.00
C19    C     0.54900   0.52444   0.08613   0.00000  Uiso   1.00
C20    C     0.04908   0.02446   0.07914   0.00000  Uiso   1.00
C21    C     0.54900   0.47556   0.08613   0.00000  Uiso   1.00
C22    C     0.04908   0.97554   0.07914   0.00000  Uiso   1.00
C23    C     0.45100   0.47556  -0.08613   0.00000  Uiso   1.00
C24    C     0.95092   0.97554  -0.07914   0.00000  Uiso   1.00
C25    C     0.43454   0.54828  -0.02419   0.00000  Uiso   1.00
C26    C     0.93455   0.04835  -0.04018   0.00000  Uiso   1.00
C27    C     0.56546   0.54828   0.02419   0.00000  Uiso   1.00
C28    C     0.06545   0.04835   0.04018   0.00000  Uiso   1.00
C29    C     0.56546   0.45172   0.02419   0.00000  Uiso   1.00
C30    C     0.06545   0.95165   0.04018   0.00000  Uiso   1.00
C31    C     0.43454   0.45172  -0.02419   0.00000  Uiso   1.00
C32    C     0.93455   0.95165  -0.04018   0.00000  Uiso   1.00
C33    C     0.41193   0.54647   0.23060   0.00000  Uiso   1.00
C34    C     0.91099   0.04666   0.19194   0.00000  Uiso   1.00
C35    C     0.58807   0.54647  -0.23060   0.00000  Uiso   1.00
C36    C     0.08901   0.04666  -0.19194   0.00000  Uiso   1.00
C37    C     0.58807   0.45353  -0.23060   0.00000  Uiso   1.00
C38    C     0.08901   0.95334  -0.19194   0.00000  Uiso   1.00
C39    C     0.41193   0.45353   0.23060   0.00000  Uiso   1.00
C40    C     0.91099   0.95334   0.19194   0.00000  Uiso   1.00
C41    C     0.39608   0.56832   0.30370   0.00000  Uiso   1.00
C42    C     0.89344   0.06641   0.19334   0.00000  Uiso   1.00
C43    C     0.60392   0.56832  -0.30370   0.00000  Uiso   1.00
C44    C     0.10656   0.06641  -0.19334   0.00000  Uiso   1.00
C45    C     0.60392   0.43167  -0.30370   0.00000  Uiso   1.00
C46    C     0.10656   0.93359  -0.19334   0.00000  Uiso   1.00
C47    C     0.39608   0.43167   0.30370   0.00000  Uiso   1.00
C48    C     0.89344   0.93359   0.19334   0.00000  Uiso   1.00
C49    C     0.40279   0.59285   0.12909   0.00000  Uiso   1.00
C50    C     0.89915   0.08859  -0.03452   0.00000  Uiso   1.00
C51    C     0.59721   0.59285  -0.12909   0.00000  Uiso   1.00
C52    C     0.10085   0.08859   0.03452   0.00000  Uiso   1.00
C53    C     0.59721   0.40715  -0.12909   0.00000  Uiso   1.00
C54    C     0.10085   0.91141   0.03452   0.00000  Uiso   1.00
C55    C     0.40279   0.40715   0.12909   0.00000  Uiso   1.00
C56    C     0.89915   0.91141  -0.03452   0.00000  Uiso   1.00
C57    C     0.42482   0.59444  -0.13427   0.00000  Uiso   1.00
C58    C     0.92312   0.09147  -0.24493   0.00000  Uiso   1.00
C59    C     0.57518   0.59444   0.13428   0.00000  Uiso   1.00
C60    C     0.07688   0.09147   0.24493   0.00000  Uiso   1.00
C61    C     0.57518   0.40556   0.13428   0.00000  Uiso   1.00
C62    C     0.07688   0.90853   0.24493   0.00000  Uiso   1.00
C63    C     0.42482   0.40556  -0.13427   0.00000  Uiso   1.00
C64    C     0.92312   0.90853  -0.24493   0.00000  Uiso   1.00
C65    C     0.44038   0.57222  -0.21598   0.00000  Uiso   1.00
C66    C     0.94058   0.07125  -0.25414   0.00000  Uiso   1.00
C67    C     0.55962   0.57222   0.21598   0.00000  Uiso   1.00
C68    C     0.05942   0.07125   0.25414   0.00000  Uiso   1.00
C69    C     0.55962   0.42778   0.21598   0.00000  Uiso   1.00
C70    C     0.05942   0.92875   0.25414   0.00000  Uiso   1.00
C71    C     0.44038   0.42778  -0.21598   0.00000  Uiso   1.00
C72    C     0.94058   0.92875  -0.25414   0.00000  Uiso   1.00
H73    H     0.47958   0.56782  -0.02302   0.00000  Uiso   1.00
H74    H     0.97948   0.06784  -0.02537   0.00000  Uiso   1.00
H75    H     0.52042   0.56782   0.02302   0.00000  Uiso   1.00
H76    H     0.02052   0.06784   0.02537   0.00000  Uiso   1.00
H77    H     0.52042   0.43218   0.02302   0.00000  Uiso   1.00
H78    H     0.02052   0.93216   0.02537   0.00000  Uiso   1.00
H79    H     0.47958   0.43218  -0.02302   0.00000  Uiso   1.00
H80    H     0.97948   0.93216  -0.02537   0.00000  Uiso   1.00
H81    H     0.40677   0.52820   0.38064   0.00000  Uiso   1.00
H82    H     0.90604   0.02964   0.36835   0.00000  Uiso   1.00
H83    H     0.59323   0.52820  -0.38064   0.00000  Uiso   1.00
H84    H     0.09396   0.02964  -0.36835   0.00000  Uiso   1.00
H85    H     0.59323   0.47180  -0.38064   0.00000  Uiso   1.00
H86    H     0.09396   0.97036  -0.36835   0.00000  Uiso   1.00
H87    H     0.40677   0.47180   0.38064   0.00000  Uiso   1.00
H88    H     0.90604   0.97036   0.36835   0.00000  Uiso   1.00
H89    H     0.37897   0.56585   0.50125   0.00000  Uiso   1.00
H90    H     0.87551   0.06430   0.37346   0.00000  Uiso   1.00
H91    H     0.62102   0.56585  -0.50125   0.00000  Uiso   1.00
H92    H     0.12449   0.06430  -0.37346   0.00000  Uiso   1.00
H93    H     0.62102   0.43415  -0.50125   0.00000  Uiso   1.00
H94    H     0.12449   0.93570  -0.37346   0.00000  Uiso   1.00
H95    H     0.37897   0.43415   0.50125   0.00000  Uiso   1.00
H96    H     0.87551   0.93570   0.37346   0.00000  Uiso   1.00
H97    H     0.42965   0.61298  -0.27890   0.00000  Uiso   1.00
H98    H     0.92752   0.10842  -0.42323   0.00000  Uiso   1.00
H99    H     0.57035   0.61298   0.27890   0.00000  Uiso   1.00
H100   H     0.07248   0.10842   0.42323   0.00000  Uiso   1.00
H101   H     0.57035   0.38702   0.27890   0.00000  Uiso   1.00
H102   H     0.07248   0.89158   0.42323   0.00000  Uiso   1.00
H103   H     0.42965   0.38702  -0.27890   0.00000  Uiso   1.00
H104   H     0.92752   0.89158  -0.42323   0.00000  Uiso   1.00
H105   H     0.45690   0.57373  -0.42803   0.00000  Uiso   1.00
H106   H     0.95819   0.07290  -0.44192   0.00000  Uiso   1.00
H107   H     0.54310   0.57373   0.42803   0.00000  Uiso   1.00
H108   H     0.04181   0.07290   0.44192   0.00000  Uiso   1.00
H109   H     0.54310   0.42626   0.42803   0.00000  Uiso   1.00
H110   H     0.04181   0.92710   0.44192   0.00000  Uiso   1.00
H111   H     0.45690   0.42626  -0.42803   0.00000  Uiso   1.00
H112   H     0.95819   0.92710  -0.44192   0.00000  Uiso   1.00
C113   C     0.16039   0.87912   0.10158   0.00000  Uiso   1.00
C114   C     0.64584   0.35572  -0.51407   0.00000  Uiso   1.00
C115   C     0.83961   0.87912  -0.10158   0.00000  Uiso   1.00
C116   C     0.35416   0.35572   0.51407   0.00000  Uiso   1.00
C117   C     0.83961   0.12088  -0.10158   0.00000  Uiso   1.00
C118   C     0.35416   0.64428   0.51407   0.00000  Uiso   1.00
C119   C     0.16039   0.12088   0.10158   0.00000  Uiso   1.00
C120   C     0.64584   0.64428  -0.51407   0.00000  Uiso   1.00
C121   C     0.15289   0.85383   0.24621   0.00000  Uiso   1.00
C122   C     0.63668   0.33256  -0.32119   0.00000  Uiso   1.00
C123   C     0.84711   0.85383  -0.24621   0.00000  Uiso   1.00
C124   C     0.36332   0.33256   0.32119   0.00000  Uiso   1.00
C125   C     0.84711   0.14617  -0.24621   0.00000  Uiso   1.00
C126   C     0.36332   0.66744   0.32119   0.00000  Uiso   1.00
C127   C     0.15289   0.14617   0.24621   0.00000  Uiso   1.00
C128   C     0.63668   0.66744  -0.32119   0.00000  Uiso   1.00
C129   C     0.16996   0.83648   0.33772   0.00000  Uiso   1.00
C130   C     0.65101   0.30937  -0.35810   0.00000  Uiso   1.00
C131   C     0.83004   0.83648  -0.33772   0.00000  Uiso   1.00
C132   C     0.34899   0.30937   0.35810   0.00000  Uiso   1.00
C133   C     0.83004   0.16352  -0.33772   0.00000  Uiso   1.00
C134   C     0.34899   0.69063   0.35810   0.00000  Uiso   1.00
C135   C     0.16996   0.16352   0.33772   0.00000  Uiso   1.00
C136   C     0.65101   0.69063  -0.35810   0.00000  Uiso   1.00
C137   C     0.19452   0.84440   0.28783   0.00000  Uiso   1.00
C138   C     0.67459   0.30927  -0.58617   0.00000  Uiso   1.00
C139   C     0.80548   0.84440  -0.28783   0.00000  Uiso   1.00
C140   C     0.32541   0.30927   0.58617   0.00000  Uiso   1.00
C141   C     0.80548   0.15560  -0.28783   0.00000  Uiso   1.00
C142   C     0.32541   0.69073   0.58617   0.00000  Uiso   1.00
C143   C     0.19452   0.15560   0.28783   0.00000  Uiso   1.00
C144   C     0.67459   0.69073  -0.58617   0.00000  Uiso   1.00
C145   C     0.20211   0.86947   0.14188   0.00000  Uiso   1.00
C146   C     0.68368   0.33215  -0.78215   0.00000  Uiso   1.00
C147   C     0.79788   0.86947  -0.14188   0.00000  Uiso   1.00
C148   C     0.31632   0.33215   0.78215   0.00000  Uiso   1.00
C149   C     0.79788   0.13053  -0.14188   0.00000  Uiso   1.00
C150   C     0.31632   0.66785   0.78215   0.00000  Uiso   1.00
C151   C     0.20211   0.13053   0.14188   0.00000  Uiso   1.00
C152   C     0.68368   0.66785  -0.78215   0.00000  Uiso   1.00
C153   C     0.18512   0.88676   0.04905   0.00000  Uiso   1.00
C154   C     0.66930   0.35525  -0.74810   0.00000  Uiso   1.00
C155   C     0.81488   0.88676  -0.04905   0.00000  Uiso   1.00
C156   C     0.33070   0.35525   0.74810   0.00000  Uiso   1.00
C157   C     0.81488   0.11324  -0.04905   0.00000  Uiso   1.00
C158   C     0.33070   0.64475   0.74810   0.00000  Uiso   1.00
C159   C     0.18512   0.11324   0.04905   0.00000  Uiso   1.00
C160   C     0.66930   0.64475  -0.74810   0.00000  Uiso   1.00
C161   C     0.21203   0.82677   0.38314   0.00000  Uiso   1.00
C162   C     0.69018   0.28638  -0.60203   0.00000  Uiso   1.00
C163   C     0.78797   0.82677  -0.38314   0.00000  Uiso   1.00
C164   C     0.30982   0.28638   0.60203   0.00000  Uiso   1.00
C165   C     0.78797   0.17323  -0.38314   0.00000  Uiso   1.00
C166   C     0.30982   0.71362   0.60203   0.00000  Uiso   1.00
C167   C     0.21203   0.17323   0.38314   0.00000  Uiso   1.00
C168   C     0.69018   0.71362  -0.60203   0.00000  Uiso   1.00
C169   C     0.22683   0.81184   0.45784   0.00000  Uiso   1.00
C170   C     0.70388   0.26781  -0.60894   0.00000  Uiso   1.00
C171   C     0.77317   0.81184  -0.45784   0.00000  Uiso   1.00
C172   C     0.29612   0.26781   0.60894   0.00000  Uiso   1.00
C173   C     0.77317   0.18816  -0.45784   0.00000  Uiso   1.00
C174   C     0.29612   0.73219   0.60894   0.00000  Uiso   1.00
C175   C     0.22683   0.18816   0.45784   0.00000  Uiso   1.00
C176   C     0.70388   0.73219  -0.60894   0.00000  Uiso   1.00
C177   C     0.24442   0.79351   0.53660   0.00000  Uiso   1.00
C178   C     0.72090   0.24644  -0.60900   0.00000  Uiso   1.00
C179   C     0.75558   0.79351  -0.53660   0.00000  Uiso   1.00
C180   C     0.27910   0.24644   0.60900   0.00000  Uiso   1.00
C181   C     0.75558   0.20649  -0.53660   0.00000  Uiso   1.00
C182   C     0.27910   0.75356   0.60900   0.00000  Uiso   1.00
C183   C     0.24442   0.20649   0.53660   0.00000  Uiso   1.00
C184   C     0.72090   0.75356  -0.60900   0.00000  Uiso   1.00
C185   C     0.26967   0.79709   0.38635   0.00000  Uiso   1.00
C186   C     0.74727   0.25010  -0.77395   0.00000  Uiso   1.00
C187   C     0.73033   0.79709  -0.38635   0.00000  Uiso   1.00
C188   C     0.25273   0.25010   0.77395   0.00000  Uiso   1.00
C189   C     0.73033   0.20291  -0.38635   0.00000  Uiso   1.00
C190   C     0.25273   0.74989   0.77395   0.00000  Uiso   1.00
C191   C     0.26967   0.20291   0.38635   0.00000  Uiso   1.00
C192   C     0.74727   0.74989  -0.77395   0.00000  Uiso   1.00
C193   C     0.28681   0.77736   0.42262   0.00000  Uiso   1.00
C194   C     0.76375   0.23107  -0.74025   0.00000  Uiso   1.00
C195   C     0.71319   0.77736  -0.42262   0.00000  Uiso   1.00
C196   C     0.23625   0.23107   0.74025   0.00000  Uiso   1.00
C197   C     0.71319   0.22263  -0.42262   0.00000  Uiso   1.00
C198   C     0.23625   0.76893   0.74025   0.00000  Uiso   1.00
C199   C     0.28681   0.22263   0.42262   0.00000  Uiso   1.00
C200   C     0.76375   0.76893  -0.74025   0.00000  Uiso   1.00
H201   H     0.13383   0.84775   0.29097   0.00000  Uiso   1.00
H202   H     0.61868   0.33269  -0.13751   0.00000  Uiso   1.00
H203   H     0.86617   0.84775  -0.29097   0.00000  Uiso   1.00
H204   H     0.38132   0.33269   0.13751   0.00000  Uiso   1.00
H205   H     0.86617   0.15225  -0.29097   0.00000  Uiso   1.00
H206   H     0.38132   0.66731   0.13751   0.00000  Uiso   1.00
H207   H     0.13383   0.15225   0.29097   0.00000  Uiso   1.00
H208   H     0.61868   0.66731  -0.13751   0.00000  Uiso   1.00
H209   H     0.16407   0.81702   0.45022   0.00000  Uiso   1.00
H210   H     0.64407   0.29183  -0.20122   0.00000  Uiso   1.00
H211   H     0.83593   0.81702  -0.45022   0.00000  Uiso   1.00
H212   H     0.35593   0.29183   0.20122   0.00000  Uiso   1.00
H213   H     0.83593   0.18298  -0.45022   0.00000  Uiso   1.00
H214   H     0.35593   0.70817   0.20122   0.00000  Uiso   1.00
H215   H     0.16407   0.18298   0.45022   0.00000  Uiso   1.00
H216   H     0.64407   0.70817  -0.20122   0.00000  Uiso   1.00
H217   H     0.22115   0.87558   0.10073   0.00000  Uiso   1.00
H218   H     0.70196   0.33211  -0.95913   0.00000  Uiso   1.00
H219   H     0.77885   0.87558  -0.10073   0.00000  Uiso   1.00
H220   H     0.29804   0.33211   0.95913   0.00000  Uiso   1.00
H221   H     0.77885   0.12442  -0.10073   0.00000  Uiso   1.00
H222   H     0.29804   0.66789   0.95913   0.00000  Uiso   1.00
H223   H     0.22115   0.12442   0.10073   0.00000  Uiso   1.00
H224   H     0.70196   0.66789  -0.95913   0.00000  Uiso   1.00
H225   H     0.19126   0.90614  -0.06316   0.00000  Uiso   1.00
H226   H     0.67658   0.37284  -0.90140   0.00000  Uiso   1.00
H227   H     0.80874   0.90614   0.06316   0.00000  Uiso   1.00
H228   H     0.32342   0.37284   0.90140   0.00000  Uiso   1.00
H229   H     0.80874   0.09386   0.06316   0.00000  Uiso   1.00
H230   H     0.32342   0.62716   0.90140   0.00000  Uiso   1.00
H231   H     0.19126   0.09386  -0.06316   0.00000  Uiso   1.00
H232   H     0.67658   0.62716  -0.90140   0.00000  Uiso   1.00
C233   C     0.14273   0.89824   0.01554   0.00000  Uiso   1.00
C234   C     0.63150   0.38064  -0.47082   0.00000  Uiso   1.00
C235   C     0.85727   0.89824  -0.01554   0.00000  Uiso   1.00
C236   C     0.36850   0.38064   0.47082   0.00000  Uiso   1.00
C237   C     0.85727   0.10176  -0.01554   0.00000  Uiso   1.00
C238   C     0.36850   0.61936   0.47082   0.00000  Uiso   1.00
C239   C     0.14273   0.10176   0.01554   0.00000  Uiso   1.00
C240   C     0.63150   0.61936  -0.47082   0.00000  Uiso   1.00
N241   N     0.11933   0.89287   0.08301   0.00000  Uiso   1.00
N242   N     0.61225   0.38362  -0.20685   0.00000  Uiso   1.00
N243   N     0.88067   0.89287  -0.08301   0.00000  Uiso   1.00
N244   N     0.38775   0.38362   0.20685   0.00000  Uiso   1.00
N245   N     0.88067   0.10713  -0.08301   0.00000  Uiso   1.00
N246   N     0.38775   0.61638   0.20685   0.00000  Uiso   1.00
N247   N     0.11933   0.10713   0.08301   0.00000  Uiso   1.00
N248   N     0.61225   0.61638  -0.20685   0.00000  Uiso   1.00
H249   H     0.85038   0.08224   0.08046   0.00000  Uiso   1.00
H250   H     0.36228   0.60367   0.66374   0.00000  Uiso   1.00
H251   H     0.14962   0.08224  -0.08046   0.00000  Uiso   1.00
H252   H     0.63772   0.60367  -0.66374   0.00000  Uiso   1.00
H253   H     0.14962   0.91776  -0.08046   0.00000  Uiso   1.00
H254   H     0.63772   0.39633  -0.66374   0.00000  Uiso   1.00
H255   H     0.85038   0.91776   0.08046   0.00000  Uiso   1.00
H256   H     0.36228   0.39633   0.66374   0.00000  Uiso   1.00
C257   C     0.43992   0.50000  -0.12623   0.00000  Uiso   1.00
C258   C     0.56008   0.50000   0.12623   0.00000  Uiso   1.00
C259   C     0.93988   0.00000  -0.11855   0.00000  Uiso   1.00
C260   C     0.06012   0.00000   0.11855   0.00000  Uiso   1.00
C261   C     0.51216   0.50000   0.02691   0.00000  Uiso   1.00
C262   C     0.48784   0.50000  -0.02691   0.00000  Uiso   1.00
C263   C     0.01222   0.00000   0.02374   0.00000  Uiso   1.00
C264   C     0.98778   0.00000  -0.02374   0.00000  Uiso   1.00
H265   H     0.42125   0.50000  -0.15918   0.00000  Uiso   1.00
H266   H     0.57875   0.50000   0.15918   0.00000  Uiso   1.00
H267   H     0.92141   0.00000  -0.16013   0.00000  Uiso   1.00
H268   H     0.07859   0.00000   0.16013   0.00000  Uiso   1.00
H269   H     0.27604   0.81475   0.22802   0.00000  Uiso   1.00
H270   H     0.30609   0.78023   0.29314   0.00000  Uiso   1.00
N271   N     0.75759   0.27143  -0.96235   0.00000  Uiso   1.00
N272   N     0.78702   0.23740  -0.90298   0.00000  Uiso   1.00
S273   S     0.21146   0.73220   1.10163   0.00000  Uiso   1.00
H274   H     0.72396   0.81475  -0.22802   0.00000  Uiso   1.00
H275   H     0.69391   0.78023  -0.29314   0.00000  Uiso   1.00
N276   N     0.24241   0.27143   0.96235   0.00000  Uiso   1.00
N277   N     0.21298   0.23740   0.90298   0.00000  Uiso   1.00
S278   S     0.78853   0.73220  -1.10163   0.00000  Uiso   1.00
H279   H     0.72396   0.18524  -0.22802   0.00000  Uiso   1.00
H280   H     0.69391   0.21977  -0.29314   0.00000  Uiso   1.00
N281   N     0.24241   0.72857   0.96235   0.00000  Uiso   1.00
N282   N     0.21298   0.76260   0.90298   0.00000  Uiso   1.00
S283   S     0.78853   0.26780  -1.10163   0.00000  Uiso   1.00
H284   H     0.27604   0.18524   0.22802   0.00000  Uiso   1.00
H285   H     0.30609   0.21977   0.29314   0.00000  Uiso   1.00
N286   N     0.75759   0.72857  -0.96235   0.00000  Uiso   1.00
N287   N     0.78702   0.76260  -0.90298   0.00000  Uiso   1.00
S288   S     0.21146   0.26780   1.10163   0.00000  Uiso   1.00
loop_
_geom_bond_atom_site_label_1
_geom_bond_atom_site_label_2
_geom_bond_distance
_geom_bond_site_symmetry_2
_ccdc_geom_bond_type
C1     C11     1.403   .     S
C1     C19     1.419   .     S
C1     C261    1.421   .     D
C2     C12     1.402   .     D
C2     C20     1.417   .     S
C2     C263    1.423   .     S
C3     C9      1.403   .     S
C3     C17     1.419   .     S
C3     C262    1.421   .     D
C4     C10     1.402   .     D
C4     C18     1.417   .     S
C4     C264    1.423   .     S
C5     C15     1.403   .     D
C5     C23     1.419   .     S
C5     C262    1.421   .     S
C6     C16     1.402   .     D
C6     C24     1.417   .     S
C6     C264    1.423   1_565 S
C7     C13     1.403   .     D
C7     C21     1.419   .     S
C7     C261    1.421   .     S
C8     C14     1.402   .     D
C8     C22     1.417   .     S
C8     C263    1.423   1_565 S
C9     C11     1.385   .     D
C9     H73     1.075   .     S
C10    C12     1.386   1_655 S
C10    H74     1.076   .     S
C11    H75     1.075   .     S
C12    C10     1.386   1_455 S
C12    H76     1.076   .     S
C13    C15     1.385   .     S
C13    H77     1.075   .     S
C14    C16     1.386   1_455 S
C14    H78     1.076   .     S
C15    H79     1.075   .     S
C16    C14     1.386   1_655 S
C16    H80     1.076   .     S
C17    C25     1.490   .     S
C17    C257    1.396   .     D
C18    C26     1.491   .     D
C18    C259    1.395   .     S
C19    C27     1.490   .     S
C19    C258    1.396   .     D
C20    C28     1.491   .     D
C20    C260    1.395   .     S
C21    C29     1.490   .     D
C21    C258    1.396   .     S
C22    C30     1.491   .     S
C22    C260    1.395   1_565 D
C23    C31     1.490   .     D
C23    C257    1.396   .     S
C24    C32     1.491   .     S
C24    C259    1.395   1_565 D
C25    C33     1.406   .     D
C25    C65     1.404   .     S
C26    C34     1.407   .     S
C26    C66     1.404   .     S
C27    C35     1.406   .     D
C27    C67     1.404   .     S
C28    C36     1.407   .     S
C28    C68     1.404   .     S
C29    C37     1.406   .     S
C29    C69     1.404   .     S
C30    C38     1.407   .     D
C30    C70     1.404   .     S
C31    C39     1.406   .     S
C31    C71     1.404   .     S
C32    C40     1.407   .     D
C32    C72     1.404   .     S
C33    C41     1.393   .     S
C33    H81     1.083   .     S
C34    C42     1.392   .     D
C34    H82     1.083   .     S
C35    C43     1.393   .     S
C35    H83     1.083   .     S
C36    C44     1.392   .     D
C36    H84     1.083   .     S
C37    C45     1.393   .     D
C37    H85     1.083   .     S
C38    C46     1.392   .     S
C38    H86     1.083   .     S
C39    C47     1.393   .     D
C39    H87     1.083   .     S
C40    C48     1.392   .     S
C40    H88     1.083   .     S
C41    C49     1.406   .     D
C41    H89     1.077   .     S
C42    C50     1.403   .     S
C42    H90     1.079   .     S
C43    C51     1.406   .     D
C43    H91     1.077   .     S
C44    C52     1.403   .     S
C44    H92     1.079   .     S
C45    C53     1.406   .     S
C45    H93     1.077   .     S
C46    C54     1.403   .     D
C46    H94     1.079   .     S
C47    C55     1.406   .     S
C47    H95     1.077   .     S
C48    C56     1.403   .     D
C48    H96     1.079   .     S
C49    C57     1.398   .     S
C49    N246    1.436   .     S
C50    C58     1.398   .     S
C50    N245    1.435   .     D
C51    C59     1.398   .     S
C51    N248    1.436   .     S
C52    C60     1.398   .     S
C52    N247    1.435   .     D
C53    C61     1.398   .     S
C53    N242    1.436   .     D
C54    C62     1.398   .     S
C54    N241    1.435   .     S
C55    C63     1.398   .     S
C55    N244    1.436   .     D
C56    C64     1.398   .     S
C56    N243    1.435   .     S
C57    C65     1.400   .     D
C57    H97     1.082   .     S
C58    C66     1.401   .     D
C58    H98     1.082   .     S
C59    C67     1.400   .     D
C59    H99     1.082   .     S
C60    C68     1.401   .     D
C60    H100    1.082   .     S
C61    C69     1.400   .     D
C61    H101    1.082   .     S
C62    C70     1.401   .     D
C62    H102    1.082   .     S
C63    C71     1.400   .     D
C63    H103    1.082   .     S
C64    C72     1.401   .     D
C64    H104    1.082   .     S
C65    H105    1.079   .     S
C66    H106    1.077   .     S
C67    H107    1.079   .     S
C68    H108    1.077   .     S
C69    H109    1.079   .     S
C70    H110    1.077   .     S
C71    H111    1.079   .     S
C72    H112    1.077   .     S
C113   C121    1.405   .     D
C113   C153    1.404   .     S
C113   C233    1.470   .     S
C114   C122    1.405   .     S
C114   C154    1.403   .     S
C114   C234    1.470   .     D
C115   C123    1.405   .     D
C115   C155    1.404   .     S
C115   C235    1.470   .     S
C116   C124    1.405   .     S
C116   C156    1.403   .     S
C116   C236    1.470   .     D
C117   C125    1.405   .     S
C117   C157    1.404   .     S
C117   C237    1.470   .     D
C118   C126    1.405   .     D
C118   C158    1.403   .     S
C118   C238    1.470   .     S
C119   C127    1.405   .     S
C119   C159    1.404   .     S
C119   C239    1.470   .     D
C120   C128    1.405   .     D
C120   C160    1.403   .     S
C120   C240    1.470   .     S
C121   C129    1.398   .     S
C121   H201    1.083   .     S
C122   C130    1.398   .     D
C122   H202    1.083   .     S
C123   C131    1.398   .     S
C123   H203    1.083   .     S
C124   C132    1.398   .     D
C124   H204    1.083   .     S
C125   C133    1.398   .     D
C125   H205    1.083   .     S
C126   C134    1.398   .     S
C126   H206    1.083   .     S
C127   C135    1.398   .     D
C127   H207    1.083   .     S
C128   C136    1.398   .     S
C128   H208    1.083   .     S
C129   C137    1.399   .     D
C129   H209    1.084   .     S
C130   C138    1.399   .     S
C130   H210    1.083   .     S
C131   C139    1.399   .     D
C131   H211    1.084   .     S
C132   C140    1.399   .     S
C132   H212    1.083   .     S
C133   C141    1.399   .     S
C133   H213    1.084   .     S
C134   C142    1.399   .     D
C134   H214    1.083   .     S
C135   C143    1.399   .     S
C135   H215    1.084   .     S
C136   C144    1.399   .     D
C136   H216    1.083   .     S
C137   C145    1.397   .     S
C137   C161    1.432   .     S
C138   C146    1.398   .     S
C138   C162    1.432   .     D
C139   C147    1.397   .     S
C139   C163    1.432   .     S
C140   C148    1.398   .     S
C140   C164    1.432   .     D
C141   C149    1.397   .     S
C141   C165    1.432   .     D
C142   C150    1.398   .     S
C142   C166    1.432   .     S
C143   C151    1.397   .     S
C143   C167    1.432   .     D
C144   C152    1.398   .     S
C144   C168    1.432   .     S
C145   C153    1.395   .     D
C145   H217    1.083   .     S
C146   C154    1.396   .     D
C146   H218    1.084   .     S
C147   C155    1.395   .     D
C147   H219    1.083   .     S
C148   C156    1.396   .     D
C148   H220    1.084   .     S
C149   C157    1.395   .     D
C149   H221    1.083   .     S
C150   C158    1.396   .     D
C150   H222    1.084   .     S
C151   C159    1.395   .     D
C151   H223    1.083   .     S
C152   C160    1.396   .     D
C152   H224    1.084   .     S
C153   H225    1.083   .     S
C154   H226    1.083   .     S
C155   H227    1.083   .     S
C156   H228    1.083   .     S
C157   H229    1.083   .     S
C158   H230    1.083   .     S
C159   H231    1.083   .     S
C160   H232    1.083   .     S
C161   C169    1.201   .     T
C162   C170    1.201   .     D
C163   C171    1.201   .     T
C164   C172    1.201   .     D
C165   C173    1.201   .     D
C166   C174    1.201   .     T
C167   C175    1.201   .     D
C168   C176    1.201   .     T
C169   C177    1.431   .     S
C170   C178    1.431   .     D
C171   C179    1.431   .     S
C172   C180    1.431   .     D
C173   C181    1.431   .     D
C174   C182    1.431   .     S
C175   C183    1.431   .     D
C176   C184    1.431   .     S
C177   C185    1.404   .     D
C177   C198    1.471   .     S
C178   C186    1.471   .     S
C178   C197    1.404   .     S
C179   C187    1.404   .     D
C179   C200    1.471   .     S
C180   C188    1.471   .     S
C180   C199    1.404   .     S
C181   C189    1.404   .     S
C181   C194    1.471   .     S
C182   C190    1.471   .     S
C182   C193    1.404   .     D
C183   C191    1.404   .     S
C183   C196    1.471   .     S
C184   C192    1.471   .     S
C184   C195    1.404   .     D
C185   C193    1.406   .     S
C185   H269    1.084   .     S
C186   C194    1.354   .     S
C186   N271    1.340   .     D
C187   C195    1.406   .     S
C187   H274    1.084   .     S
C188   C196    1.354   .     S
C188   N276    1.340   .     D
C189   C197    1.406   .     D
C189   H279    1.084   .     S
C190   C198    1.354   .     S
C190   N281    1.340   .     D
C191   C199    1.406   .     D
C191   H284    1.084   .     S
C192   C200    1.354   .     S
C192   N286    1.340   .     D
C193   H270    1.084   .     S
C194   N272    1.340   .     D
C195   H275    1.084   .     S
C196   N277    1.340   .     D
C197   H280    1.084   .     S
C198   N282    1.340   .     D
C199   H285    1.084   .     S
C200   N287    1.340   .     D
C233   N241    1.301   .     D
C233   H253    1.081   .     S
C234   N242    1.301   .     S
C234   H254    1.080   .     S
C235   N243    1.301   .     D
C235   H255    1.081   .     S
C236   N244    1.301   .     S
C236   H256    1.080   .     S
C237   N245    1.301   .     S
C237   H249    1.081   .     S
C238   N246    1.301   .     D
C238   H250    1.080   .     S
C239   N247    1.301   .     S
C239   H251    1.081   .     S
C240   N248    1.301   .     D
C240   H252    1.080   .     S
C257   H265    1.084   .     S
C258   H266    1.084   .     S
C259   C24     1.395   1_545 D
C259   H267    1.084   .     S
C260   C22     1.395   1_545 D
C260   H268    1.084   .     S
C261   C262    1.427   .     S
C263   C8      1.423   1_545 S
C263   C264    1.424   1_455 D
C264   C263    1.424   1_655 D
C264   C6      1.423   1_545 S
N271   S283    1.695   .     S
N272   S283    1.695   .     S
S273   N281    1.695   .     S
S273   N282    1.695   .     S
N276   S288    1.695   .     S
N277   S288    1.695   .     S
S278   N286    1.695   .     S
S278   N287    1.695   .     S
