data_39
_audit_creation_date              2023-09-08
_audit_creation_method            'Materials Studio'
_symmetry_space_group_name_H-M    'P1'
_symmetry_Int_Tables_number       1
_symmetry_cell_setting            triclinic
loop_
_symmetry_equiv_pos_as_xyz
  x,y,z
_cell_length_a                    35.7960
_cell_length_b                    35.7960
_cell_length_c                    3.4000
_cell_angle_alpha                 90.0000
_cell_angle_beta                  90.0000
_cell_angle_gamma                 120.0000
loop_
_atom_site_label
_atom_site_type_symbol
_atom_site_fract_x
_atom_site_fract_y
_atom_site_fract_z
_atom_site_U_iso_or_equiv
_atom_site_adp_type
_atom_site_occupancy
C1     C     0.55013   0.37936   0.00000   0.00000  Uiso   1.00
C2     C     0.62064   0.17077   0.00000   0.00000  Uiso   1.00
C3     C     0.82923   0.44987   0.00000   0.00000  Uiso   1.00
C4     C     0.44987   0.62064   0.00000   0.00000  Uiso   1.00
C5     C     0.37936   0.82923   0.00000   0.00000  Uiso   1.00
C6     C     0.17077   0.55013   0.00000   0.00000  Uiso   1.00
H7     H     0.51708   0.36197   0.00000   0.00000  Uiso   1.00
H8     H     0.63803   0.15511   0.00000   0.00000  Uiso   1.00
H9     H     0.84489   0.48292   0.00000   0.00000  Uiso   1.00
H10    H     0.48292   0.63803   0.00000   0.00000  Uiso   1.00
H11    H     0.36197   0.84489   0.00000   0.00000  Uiso   1.00
H12    H     0.15511   0.51708   0.00000   0.00000  Uiso   1.00
C13    C     0.57217   0.42466   0.00000   0.00000  Uiso   1.00
C14    C     0.57534   0.14750   0.00000   0.00000  Uiso   1.00
C15    C     0.85250   0.42784   0.00000   0.00000  Uiso   1.00
C16    C     0.42784   0.57534   0.00000   0.00000  Uiso   1.00
C17    C     0.42466   0.85250   0.00000   0.00000  Uiso   1.00
C18    C     0.14750   0.57216   0.00000   0.00000  Uiso   1.00
N19    N     0.50650   0.42851   0.00000   0.00000  Uiso   1.00
N20    N     0.57149   0.07799   0.00000   0.00000  Uiso   1.00
N21    N     0.92201   0.49350   0.00000   0.00000  Uiso   1.00
N22    N     0.49350   0.57149   0.00000   0.00000  Uiso   1.00
N23    N     0.42851   0.92201   0.00000   0.00000  Uiso   1.00
N24    N     0.07799   0.50650   0.00000   0.00000  Uiso   1.00
C25    C     0.49882   0.46110   0.00000   0.00000  Uiso   1.00
C26    C     0.53890   0.03773   0.00000   0.00000  Uiso   1.00
C27    C     0.96227   0.50118   0.00000   0.00000  Uiso   1.00
C28    C     0.50118   0.53890   0.00000   0.00000  Uiso   1.00
C29    C     0.46110   0.96227   0.00000   0.00000  Uiso   1.00
C30    C     0.03773   0.49882   0.00000   0.00000  Uiso   1.00
C31    C     0.45912   0.45984   0.00000   0.00000  Uiso   1.00
C32    C     0.54016   0.99928   0.00000   0.00000  Uiso   1.00
C33    C     0.00072   0.54088   0.00000   0.00000  Uiso   1.00
C34    C     0.54088   0.54016   0.00000   0.00000  Uiso   1.00
C35    C     0.45984   0.00072   0.00000   0.00000  Uiso   1.00
C36    C     0.99928   0.45912   0.00000   0.00000  Uiso   1.00
H37    H     0.43028   0.43178   0.00000   0.00000  Uiso   1.00
H38    H     0.56822   0.99851   0.00000   0.00000  Uiso   1.00
H39    H     0.00149   0.56972   0.00000   0.00000  Uiso   1.00
H40    H     0.56972   0.56822   0.00000   0.00000  Uiso   1.00
H41    H     0.43178   0.00149   0.00000   0.00000  Uiso   1.00
H42    H     0.99851   0.43028   0.00000   0.00000  Uiso   1.00
C43    C     0.46178   0.50013   0.00000   0.00000  Uiso   1.00
C44    C     0.49987   0.96166   0.00000   0.00000  Uiso   1.00
C45    C     0.03834   0.53822   0.00000   0.00000  Uiso   1.00
C46    C     0.53822   0.49987   0.00000   0.00000  Uiso   1.00
C47    C     0.50013   0.03834   0.00000   0.00000  Uiso   1.00
C48    C     0.96166   0.46178   0.00000   0.00000  Uiso   1.00
O49    O     0.42976   0.50893   0.00000   0.00000  Uiso   1.00
O50    O     0.49107   0.92084   0.00000   0.00000  Uiso   1.00
O51    O     0.07917   0.57024   0.00000   0.00000  Uiso   1.00
O52    O     0.57024   0.49107   0.00000   0.00000  Uiso   1.00
O53    O     0.50893   0.07917   0.00000   0.00000  Uiso   1.00
O54    O     0.92084   0.42976   0.00000   0.00000  Uiso   1.00
C55    C     0.45014   0.55266   0.00000   0.00000  Uiso   1.00
C56    C     0.44734   0.89748   0.00000   0.00000  Uiso   1.00
C57    C     0.10252   0.54986   0.00000   0.00000  Uiso   1.00
C58    C     0.54986   0.44734   0.00000   0.00000  Uiso   1.00
C59    C     0.55266   0.10252   0.00000   0.00000  Uiso   1.00
C60    C     0.89748   0.45015   0.00000   0.00000  Uiso   1.00
C61    C     0.38255   0.55263   0.00000   0.00000  Uiso   1.00
C62    C     0.44737   0.82993   0.00000   0.00000  Uiso   1.00
C63    C     0.17007   0.61745   0.00000   0.00000  Uiso   1.00
C64    C     0.61745   0.44737   0.00000   0.00000  Uiso   1.00
C65    C     0.55263   0.17007   0.00000   0.00000  Uiso   1.00
C66    C     0.82993   0.38255   0.00000   0.00000  Uiso   1.00
H67    H     0.36575   0.51952   0.00000   0.00000  Uiso   1.00
H68    H     0.48048   0.84623   0.00000   0.00000  Uiso   1.00
H69    H     0.15377   0.63425   0.00000   0.00000  Uiso   1.00
H70    H     0.63425   0.48048   0.00000   0.00000  Uiso   1.00
H71    H     0.51952   0.15377   0.00000   0.00000  Uiso   1.00
H72    H     0.84623   0.36575   0.00000   0.00000  Uiso   1.00
C73    C     0.35984   0.57498   0.00000   0.00000  Uiso   1.00
C74    C     0.42502   0.78486   0.00000   0.00000  Uiso   1.00
C75    C     0.21514   0.64017   0.00000   0.00000  Uiso   1.00
C76    C     0.64017   0.42502   0.00000   0.00000  Uiso   1.00
C77    C     0.57498   0.21514   0.00000   0.00000  Uiso   1.00
C78    C     0.78486   0.35983   0.00000   0.00000  Uiso   1.00
C79    C     0.57327   0.35741   0.00000   0.00000  Uiso   1.00
C80    C     0.64259   0.21586   0.00000   0.00000  Uiso   1.00
C81    C     0.78414   0.42673   0.00000   0.00000  Uiso   1.00
C82    C     0.42673   0.64259   0.00000   0.00000  Uiso   1.00
C83    C     0.35741   0.78414   0.00000   0.00000  Uiso   1.00
C84    C     0.21586   0.57327   0.00000   0.00000  Uiso   1.00
C85    C     0.61928   0.37906   0.00000   0.00000  Uiso   1.00
C86    C     0.62094   0.24021   0.00000   0.00000  Uiso   1.00
C87    C     0.75979   0.38072   0.00000   0.00000  Uiso   1.00
C88    C     0.38072   0.62094   0.00000   0.00000  Uiso   1.00
C89    C     0.37906   0.75979   0.00000   0.00000  Uiso   1.00
C90    C     0.24021   0.61928   0.00000   0.00000  Uiso   1.00
C91    C     0.64285   0.35633   0.00000   0.00000  Uiso   1.00
C92    C     0.64367   0.28652   0.00000   0.00000  Uiso   1.00
C93    C     0.71348   0.35715   0.00000   0.00000  Uiso   1.00
C94    C     0.35715   0.64367   0.00000   0.00000  Uiso   1.00
C95    C     0.35633   0.71348   0.00000   0.00000  Uiso   1.00
C96    C     0.28652   0.64285   0.00000   0.00000  Uiso   1.00
C97    C     0.68841   0.37760   0.00000   0.00000  Uiso   1.00
C98    C     0.62240   0.31081   0.00000   0.00000  Uiso   1.00
C99    C     0.68919   0.31159   0.00000   0.00000  Uiso   1.00
C100   C     0.31159   0.62240   0.00000   0.00000  Uiso   1.00
C101   C     0.37760   0.68919   0.00000   0.00000  Uiso   1.00
C102   C     0.31081   0.68841   0.00000   0.00000  Uiso   1.00
H103   H     0.32733   0.55554   0.00000   0.00000  Uiso   1.00
H104   H     0.44446   0.77179   0.00000   0.00000  Uiso   1.00
H105   H     0.22821   0.67267   0.00000   0.00000  Uiso   1.00
H106   H     0.67267   0.44446   0.00000   0.00000  Uiso   1.00
H107   H     0.55554   0.22821   0.00000   0.00000  Uiso   1.00
H108   H     0.77179   0.32733   0.00000   0.00000  Uiso   1.00
H109   H     0.55437   0.32483   0.00000   0.00000  Uiso   1.00
H110   H     0.67517   0.22953   0.00000   0.00000  Uiso   1.00
H111   H     0.77047   0.44563   0.00000   0.00000  Uiso   1.00
H112   H     0.44563   0.67517   0.00000   0.00000  Uiso   1.00
H113   H     0.32483   0.77047   0.00000   0.00000  Uiso   1.00
H114   H     0.22953   0.55437   0.00000   0.00000  Uiso   1.00
H115   H     0.70419   0.40970   0.00000   0.00000  Uiso   1.00
H116   H     0.59030   0.29450   0.00000   0.00000  Uiso   1.00
H117   H     0.70550   0.29581   0.00000   0.00000  Uiso   1.00
H118   H     0.29581   0.59030   0.00000   0.00000  Uiso   1.00
H119   H     0.40970   0.70550   0.00000   0.00000  Uiso   1.00
H120   H     0.29450   0.70419   0.00000   0.00000  Uiso   1.00
loop_
_geom_bond_atom_site_label_1
_geom_bond_atom_site_label_2
_geom_bond_distance
_geom_bond_site_symmetry_2
_ccdc_geom_bond_type
C1     H7      1.025   .     S
C1     C13     1.405   .     D
C1     C79     1.398   .     S
C2     H8      1.025   .     S
C2     C14     1.405   .     S
C2     C80     1.398   .     D
C3     H9      1.025   .     S
C3     C15     1.405   .     S
C3     C81     1.398   .     D
C4     H10     1.025   .     S
C4     C16     1.405   .     D
C4     C82     1.398   .     S
C5     H11     1.025   .     S
C5     C17     1.405   .     D
C5     C83     1.398   .     S
C6     H12     1.025   .     S
C6     C18     1.405   .     S
C6     C84     1.398   .     D
C13    C58     1.395   .     S
C13    C64     1.404   .     S
C14    C59     1.395   .     S
C14    C65     1.404   .     D
C15    C60     1.395   .     S
C15    C66     1.404   .     D
C16    C55     1.395   .     S
C16    C61     1.404   .     S
C17    C56     1.395   .     S
C17    C62     1.404   .     S
C18    C57     1.395   .     S
C18    C63     1.404   .     D
N19    C25     1.325   .     S
N19    C58     1.348   .     D
N20    C26     1.325   .     S
N20    C59     1.348   .     D
N21    C27     1.325   .     S
N21    C60     1.348   .     D
N22    C28     1.325   .     S
N22    C55     1.348   .     D
N23    C29     1.325   .     S
N23    C56     1.348   .     D
N24    C30     1.325   .     S
N24    C57     1.348   .     D
C25    C31     1.399   .     S
C25    C46     1.399   .     D
C26    C32     1.399   1_545 D
C26    C47     1.399   .     S
C27    C33     1.399   1_655 S
C27    C48     1.399   .     D
C28    C34     1.399   .     D
C28    C43     1.399   .     S
C29    C35     1.399   1_565 S
C29    C44     1.399   .     D
C30    C36     1.399   1_455 D
C30    C45     1.399   .     S
C31    H37     1.019   .     S
C31    C43     1.397   .     D
C32    C26     1.399   1_565 D
C32    H38     1.019   .     S
C32    C44     1.397   .     S
C33    C27     1.399   1_455 S
C33    H39     1.019   .     S
C33    C45     1.397   .     D
C34    H40     1.019   .     S
C34    C46     1.397   .     S
C35    C29     1.399   1_545 S
C35    H41     1.019   .     S
C35    C47     1.397   .     D
C36    C30     1.399   1_655 D
C36    H42     1.019   .     S
C36    C48     1.397   .     S
C43    O49     1.332   .     S
C44    O50     1.332   .     S
C45    O51     1.332   .     S
C46    O52     1.332   .     S
C47    O53     1.332   .     S
C48    O54     1.332   .     S
O49    C55     1.357   .     S
O50    C56     1.357   .     S
O51    C57     1.357   .     S
O52    C58     1.357   .     S
O53    C59     1.357   .     S
O54    C60     1.357   .     S
C61    H67     1.026   .     S
C61    C73     1.397   .     D
C62    H68     1.026   .     S
C62    C74     1.397   .     D
C63    H69     1.026   .     S
C63    C75     1.397   .     S
C64    H70     1.026   .     S
C64    C76     1.397   .     D
C65    H71     1.026   .     S
C65    C77     1.397   .     S
C66    H72     1.026   .     S
C66    C78     1.397   .     S
C73    C88     1.427   .     S
C73    H103    1.014   .     S
C74    C89     1.427   .     S
C74    H104    1.014   .     S
C75    C90     1.427   .     D
C75    H105    1.014   .     S
C76    C85     1.427   .     S
C76    H106    1.014   .     S
C77    C86     1.427   .     D
C77    H107    1.014   .     S
C78    C87     1.427   .     D
C78    H108    1.014   .     S
C79    C85     1.427   .     D
C79    H109    1.014   .     S
C80    C86     1.427   .     S
C80    H110    1.014   .     S
C81    C87     1.427   .     S
C81    H111    1.014   .     S
C82    C88     1.427   .     D
C82    H112    1.014   .     S
C83    C89     1.427   .     D
C83    H113    1.014   .     S
C84    C90     1.427   .     S
C84    H114    1.014   .     S
C85    C91     1.436   .     S
C86    C92     1.436   .     S
C87    C93     1.436   .     S
C88    C94     1.436   .     S
C89    C95     1.436   .     S
C90    C96     1.436   .     S
C91    C97     1.414   .     D
C91    C98     1.413   .     S
C92    C98     1.413   .     D
C92    C99     1.413   .     S
C93    C97     1.413   .     S
C93    C99     1.414   .     D
C94    C100    1.414   .     S
C94    C101    1.413   .     D
C95    C101    1.413   .     S
C95    C102    1.413   .     D
C96    C100    1.413   .     D
C96    C102    1.414   .     S
C97    H115    0.995   .     S
C98    H116    0.995   .     S
C99    H117    0.995   .     S
C100   H118    0.995   .     S
C101   H119    0.995   .     S
C102   H120    0.995   .     S
