data_390
_audit_creation_date              2023-09-08
_audit_creation_method            'Materials Studio'
_symmetry_space_group_name_H-M    'P1'
_symmetry_Int_Tables_number       1
_symmetry_cell_setting            triclinic
loop_
_symmetry_equiv_pos_as_xyz
  x,y,z
_cell_length_a                    57.4000
_cell_length_b                    48.4000
_cell_length_c                    3.8800
_cell_angle_alpha                 90.0000
_cell_angle_beta                  76.0000
_cell_angle_gamma                 90.0000
loop_
_atom_site_label
_atom_site_type_symbol
_atom_site_fract_x
_atom_site_fract_y
_atom_site_fract_z
_atom_site_U_iso_or_equiv
_atom_site_adp_type
_atom_site_occupancy
C1     C     0.52489   0.52550  -0.17682   0.00000  Uiso   1.00
C2     C     0.02489   0.02550  -0.17682   0.00000  Uiso   1.00
C3     C     0.47511   0.52550   0.17682   0.00000  Uiso   1.00
C4     C     0.97511   0.02550   0.17682   0.00000  Uiso   1.00
C5     C     0.47511   0.47450   0.17682   0.00000  Uiso   1.00
C6     C     0.97511   0.97450   0.17682   0.00000  Uiso   1.00
C7     C     0.52489   0.47450  -0.17682   0.00000  Uiso   1.00
C8     C     0.02489   0.97450  -0.17682   0.00000  Uiso   1.00
C9     C     0.48776   0.55020   0.07751   0.00000  Uiso   1.00
C10    C     0.98776   0.05020   0.07751   0.00000  Uiso   1.00
C11    C     0.51224   0.55020  -0.07751   0.00000  Uiso   1.00
C12    C     0.01224   0.05020  -0.07751   0.00000  Uiso   1.00
C13    C     0.51224   0.44980  -0.07751   0.00000  Uiso   1.00
C14    C     0.01224   0.94980  -0.07751   0.00000  Uiso   1.00
C15    C     0.48776   0.44980   0.07751   0.00000  Uiso   1.00
C16    C     0.98776   0.94980   0.07751   0.00000  Uiso   1.00
C17    C     0.45034   0.52535   0.35443   0.00000  Uiso   1.00
C18    C     0.95034   0.02535   0.35443   0.00000  Uiso   1.00
C19    C     0.54966   0.52535  -0.35443   0.00000  Uiso   1.00
C20    C     0.04966   0.02535  -0.35443   0.00000  Uiso   1.00
C21    C     0.54966   0.47465  -0.35443   0.00000  Uiso   1.00
C22    C     0.04966   0.97465  -0.35443   0.00000  Uiso   1.00
C23    C     0.45034   0.47465   0.35443   0.00000  Uiso   1.00
C24    C     0.95034   0.97465   0.35443   0.00000  Uiso   1.00
C25    C     0.43409   0.55002   0.39260   0.00000  Uiso   1.00
C26    C     0.93409   0.05002   0.39260   0.00000  Uiso   1.00
C27    C     0.56591   0.55002  -0.39260   0.00000  Uiso   1.00
C28    C     0.06591   0.05002  -0.39260   0.00000  Uiso   1.00
C29    C     0.56591   0.44998  -0.39260   0.00000  Uiso   1.00
C30    C     0.06591   0.94998  -0.39260   0.00000  Uiso   1.00
C31    C     0.43409   0.44998   0.39260   0.00000  Uiso   1.00
C32    C     0.93409   0.94998   0.39260   0.00000  Uiso   1.00
C33    C     0.41246   0.54754   0.28462   0.00000  Uiso   1.00
C34    C     0.91246   0.04754   0.28462   0.00000  Uiso   1.00
C35    C     0.58754   0.54754  -0.28462   0.00000  Uiso   1.00
C36    C     0.08754   0.04754  -0.28462   0.00000  Uiso   1.00
C37    C     0.58754   0.45246  -0.28462   0.00000  Uiso   1.00
C38    C     0.08754   0.95246  -0.28462   0.00000  Uiso   1.00
C39    C     0.41246   0.45246   0.28462   0.00000  Uiso   1.00
C40    C     0.91246   0.95246   0.28462   0.00000  Uiso   1.00
C41    C     0.39636   0.56952   0.32033   0.00000  Uiso   1.00
C42    C     0.89636   0.06952   0.32033   0.00000  Uiso   1.00
C43    C     0.60364   0.56952  -0.32033   0.00000  Uiso   1.00
C44    C     0.10364   0.06952  -0.32033   0.00000  Uiso   1.00
C45    C     0.60364   0.43048  -0.32033   0.00000  Uiso   1.00
C46    C     0.10364   0.93048  -0.32033   0.00000  Uiso   1.00
C47    C     0.39636   0.43048   0.32033   0.00000  Uiso   1.00
C48    C     0.89636   0.93048   0.32033   0.00000  Uiso   1.00
C49    C     0.40159   0.59488   0.45898   0.00000  Uiso   1.00
C50    C     0.90159   0.09487   0.45898   0.00000  Uiso   1.00
C51    C     0.59841   0.59488  -0.45898   0.00000  Uiso   1.00
C52    C     0.09841   0.09487  -0.45898   0.00000  Uiso   1.00
C53    C     0.59841   0.40512  -0.45898   0.00000  Uiso   1.00
C54    C     0.09841   0.90512  -0.45898   0.00000  Uiso   1.00
C55    C     0.40159   0.40512   0.45898   0.00000  Uiso   1.00
C56    C     0.90159   0.90512   0.45898   0.00000  Uiso   1.00
C57    C     0.42307   0.59769   0.56655   0.00000  Uiso   1.00
C58    C     0.92307   0.09769   0.56655   0.00000  Uiso   1.00
C59    C     0.57693   0.59769  -0.56655   0.00000  Uiso   1.00
C60    C     0.07693   0.09769  -0.56655   0.00000  Uiso   1.00
C61    C     0.57693   0.40231  -0.56655   0.00000  Uiso   1.00
C62    C     0.07693   0.90231  -0.56655   0.00000  Uiso   1.00
C63    C     0.42307   0.40231   0.56655   0.00000  Uiso   1.00
C64    C     0.92307   0.90231   0.56655   0.00000  Uiso   1.00
C65    C     0.43883   0.57515   0.54555   0.00000  Uiso   1.00
C66    C     0.93883   0.07515   0.54555   0.00000  Uiso   1.00
C67    C     0.56117   0.57515  -0.54555   0.00000  Uiso   1.00
C68    C     0.06117   0.07515  -0.54555   0.00000  Uiso   1.00
C69    C     0.56117   0.42485  -0.54555   0.00000  Uiso   1.00
C70    C     0.06117   0.92485  -0.54555   0.00000  Uiso   1.00
C71    C     0.43883   0.42485   0.54555   0.00000  Uiso   1.00
C72    C     0.93883   0.92485   0.54555   0.00000  Uiso   1.00
H73    H     0.47914   0.57006   0.12003   0.00000  Uiso   1.00
H74    H     0.97915   0.07006   0.12003   0.00000  Uiso   1.00
H75    H     0.52086   0.57006  -0.12003   0.00000  Uiso   1.00
H76    H     0.02086   0.07006  -0.12003   0.00000  Uiso   1.00
H77    H     0.52086   0.42994  -0.12003   0.00000  Uiso   1.00
H78    H     0.02086   0.92994  -0.12003   0.00000  Uiso   1.00
H79    H     0.47914   0.42994   0.12003   0.00000  Uiso   1.00
H80    H     0.97915   0.92994   0.12003   0.00000  Uiso   1.00
H81    H     0.40827   0.52868   0.16253   0.00000  Uiso   1.00
H82    H     0.90827   0.02867   0.16253   0.00000  Uiso   1.00
H83    H     0.59173   0.52868  -0.16253   0.00000  Uiso   1.00
H84    H     0.09173   0.02867  -0.16253   0.00000  Uiso   1.00
H85    H     0.59173   0.47132  -0.16253   0.00000  Uiso   1.00
H86    H     0.09173   0.97132  -0.16253   0.00000  Uiso   1.00
H87    H     0.40827   0.47132   0.16253   0.00000  Uiso   1.00
H88    H     0.90827   0.97132   0.16253   0.00000  Uiso   1.00
H89    H     0.38037   0.56721   0.22209   0.00000  Uiso   1.00
H90    H     0.88037   0.06721   0.22209   0.00000  Uiso   1.00
H91    H     0.61963   0.56721  -0.22209   0.00000  Uiso   1.00
H92    H     0.11963   0.06721  -0.22209   0.00000  Uiso   1.00
H93    H     0.61963   0.43278  -0.22209   0.00000  Uiso   1.00
H94    H     0.11963   0.93278  -0.22209   0.00000  Uiso   1.00
H95    H     0.38037   0.43278   0.22209   0.00000  Uiso   1.00
H96    H     0.88037   0.93278   0.22209   0.00000  Uiso   1.00
H97    H     0.42701   0.61709   0.67856   0.00000  Uiso   1.00
H98    H     0.92701   0.11709   0.67856   0.00000  Uiso   1.00
H99    H     0.57299   0.61709  -0.67856   0.00000  Uiso   1.00
H100   H     0.07299   0.11709  -0.67856   0.00000  Uiso   1.00
H101   H     0.57299   0.38291  -0.67856   0.00000  Uiso   1.00
H102   H     0.07299   0.88291  -0.67856   0.00000  Uiso   1.00
H103   H     0.42701   0.38291   0.67856   0.00000  Uiso   1.00
H104   H     0.92701   0.88291   0.67856   0.00000  Uiso   1.00
H105   H     0.45441   0.57720   0.65459   0.00000  Uiso   1.00
H106   H     0.95441   0.07720   0.65459   0.00000  Uiso   1.00
H107   H     0.54559   0.57720  -0.65459   0.00000  Uiso   1.00
H108   H     0.04559   0.07720  -0.65459   0.00000  Uiso   1.00
H109   H     0.54559   0.42280  -0.65459   0.00000  Uiso   1.00
H110   H     0.04559   0.92280  -0.65459   0.00000  Uiso   1.00
H111   H     0.45441   0.42280   0.65459   0.00000  Uiso   1.00
H112   H     0.95441   0.92280   0.65459   0.00000  Uiso   1.00
C113   C     0.15297   0.86069  -0.49822   0.00000  Uiso   1.00
C114   C     0.65297   0.36069  -0.49822   0.00000  Uiso   1.00
C115   C     0.84703   0.86069   0.49822   0.00000  Uiso   1.00
C116   C     0.34703   0.36069   0.49822   0.00000  Uiso   1.00
C117   C     0.84703   0.13931   0.49822   0.00000  Uiso   1.00
C118   C     0.34703   0.63931   0.49822   0.00000  Uiso   1.00
C119   C     0.15297   0.13931  -0.49822   0.00000  Uiso   1.00
C120   C     0.65297   0.63931  -0.49822   0.00000  Uiso   1.00
C121   C     0.14364   0.83660  -0.31282   0.00000  Uiso   1.00
C122   C     0.64364   0.33660  -0.31282   0.00000  Uiso   1.00
C123   C     0.85636   0.83660   0.31282   0.00000  Uiso   1.00
C124   C     0.35636   0.33660   0.31282   0.00000  Uiso   1.00
C125   C     0.85636   0.16340   0.31282   0.00000  Uiso   1.00
C126   C     0.35636   0.66340   0.31282   0.00000  Uiso   1.00
C127   C     0.14364   0.16340  -0.31282   0.00000  Uiso   1.00
C128   C     0.64364   0.66340  -0.31282   0.00000  Uiso   1.00
C129   C     0.15914   0.81610  -0.24257   0.00000  Uiso   1.00
C130   C     0.65914   0.31610  -0.24257   0.00000  Uiso   1.00
C131   C     0.84086   0.81610   0.24257   0.00000  Uiso   1.00
C132   C     0.34086   0.31610   0.24257   0.00000  Uiso   1.00
C133   C     0.84086   0.18390   0.24257   0.00000  Uiso   1.00
C134   C     0.34086   0.68390   0.24257   0.00000  Uiso   1.00
C135   C     0.15914   0.18390  -0.24257   0.00000  Uiso   1.00
C136   C     0.65914   0.68390  -0.24257   0.00000  Uiso   1.00
C137   C     0.18406   0.81948  -0.35839   0.00000  Uiso   1.00
C138   C     0.68406   0.31948  -0.35839   0.00000  Uiso   1.00
C139   C     0.81594   0.81948   0.35839   0.00000  Uiso   1.00
C140   C     0.31594   0.31948   0.35839   0.00000  Uiso   1.00
C141   C     0.81594   0.18052   0.35839   0.00000  Uiso   1.00
C142   C     0.31594   0.68052   0.35839   0.00000  Uiso   1.00
C143   C     0.18406   0.18052  -0.35839   0.00000  Uiso   1.00
C144   C     0.68406   0.68052  -0.35839   0.00000  Uiso   1.00
C145   C     0.19339   0.84307  -0.55106   0.00000  Uiso   1.00
C146   C     0.69339   0.34307  -0.55106   0.00000  Uiso   1.00
C147   C     0.80661   0.84307   0.55106   0.00000  Uiso   1.00
C148   C     0.30661   0.34307   0.55106   0.00000  Uiso   1.00
C149   C     0.80661   0.15693   0.55106   0.00000  Uiso   1.00
C150   C     0.30661   0.65693   0.55106   0.00000  Uiso   1.00
C151   C     0.19339   0.15693  -0.55106   0.00000  Uiso   1.00
C152   C     0.69339   0.65693  -0.55106   0.00000  Uiso   1.00
C153   C     0.17796   0.86358  -0.61987   0.00000  Uiso   1.00
C154   C     0.67796   0.36358  -0.61987   0.00000  Uiso   1.00
C155   C     0.82204   0.86358   0.61986   0.00000  Uiso   1.00
C156   C     0.32204   0.36358   0.61986   0.00000  Uiso   1.00
C157   C     0.82204   0.13642   0.61986   0.00000  Uiso   1.00
C158   C     0.32204   0.63642   0.61986   0.00000  Uiso   1.00
C159   C     0.17796   0.13642  -0.61987   0.00000  Uiso   1.00
C160   C     0.67796   0.63642  -0.61987   0.00000  Uiso   1.00
C161   C     0.20030   0.79983  -0.26319   0.00000  Uiso   1.00
C162   C     0.70030   0.29983  -0.26319   0.00000  Uiso   1.00
C163   C     0.79970   0.79983   0.26319   0.00000  Uiso   1.00
C164   C     0.29970   0.29983   0.26319   0.00000  Uiso   1.00
C165   C     0.79970   0.20017   0.26319   0.00000  Uiso   1.00
C166   C     0.29970   0.70017   0.26319   0.00000  Uiso   1.00
C167   C     0.20030   0.20017  -0.26319   0.00000  Uiso   1.00
C168   C     0.70030   0.70017  -0.26319   0.00000  Uiso   1.00
C169   C     0.21466   0.78446  -0.18221   0.00000  Uiso   1.00
C170   C     0.71465   0.28446  -0.18221   0.00000  Uiso   1.00
C171   C     0.78535   0.78446   0.18221   0.00000  Uiso   1.00
C172   C     0.28535   0.28446   0.18221   0.00000  Uiso   1.00
C173   C     0.78535   0.21554   0.18221   0.00000  Uiso   1.00
C174   C     0.28535   0.71554   0.18221   0.00000  Uiso   1.00
C175   C     0.21466   0.21554  -0.18221   0.00000  Uiso   1.00
C176   C     0.71465   0.71554  -0.18221   0.00000  Uiso   1.00
C177   C     0.23256   0.76711  -0.08658   0.00000  Uiso   1.00
C178   C     0.73256   0.26711  -0.08658   0.00000  Uiso   1.00
C179   C     0.76744   0.76711   0.08658   0.00000  Uiso   1.00
C180   C     0.26744   0.26711   0.08658   0.00000  Uiso   1.00
C181   C     0.76744   0.23289   0.08658   0.00000  Uiso   1.00
C182   C     0.26744   0.73289   0.08658   0.00000  Uiso   1.00
C183   C     0.23256   0.23289  -0.08658   0.00000  Uiso   1.00
C184   C     0.73256   0.73289  -0.08658   0.00000  Uiso   1.00
C185   C     0.25298   0.77911  -0.00724   0.00000  Uiso   1.00
C186   C     0.75297   0.27910  -0.00724   0.00000  Uiso   1.00
C187   C     0.74702   0.77911   0.00724   0.00000  Uiso   1.00
C188   C     0.24702   0.27910   0.00724   0.00000  Uiso   1.00
C189   C     0.74702   0.22089   0.00724   0.00000  Uiso   1.00
C190   C     0.24702   0.72090   0.00724   0.00000  Uiso   1.00
C191   C     0.25298   0.22089  -0.00724   0.00000  Uiso   1.00
C192   C     0.75297   0.72090  -0.00724   0.00000  Uiso   1.00
C193   C     0.27042   0.76163   0.07866   0.00000  Uiso   1.00
C194   C     0.77042   0.26163   0.07866   0.00000  Uiso   1.00
C195   C     0.72958   0.76163  -0.07867   0.00000  Uiso   1.00
C196   C     0.22958   0.26163  -0.07867   0.00000  Uiso   1.00
C197   C     0.72958   0.23836  -0.07867   0.00000  Uiso   1.00
C198   C     0.22958   0.73836  -0.07867   0.00000  Uiso   1.00
C199   C     0.27042   0.23836   0.07866   0.00000  Uiso   1.00
C200   C     0.77042   0.73836   0.07866   0.00000  Uiso   1.00
H201   H     0.12444   0.83429  -0.21122   0.00000  Uiso   1.00
H202   H     0.62444   0.33429  -0.21122   0.00000  Uiso   1.00
H203   H     0.87556   0.83429   0.21122   0.00000  Uiso   1.00
H204   H     0.37556   0.33429   0.21122   0.00000  Uiso   1.00
H205   H     0.87556   0.16571   0.21122   0.00000  Uiso   1.00
H206   H     0.37556   0.66571   0.21122   0.00000  Uiso   1.00
H207   H     0.12444   0.16571  -0.21122   0.00000  Uiso   1.00
H208   H     0.62444   0.66571  -0.21122   0.00000  Uiso   1.00
H209   H     0.15179   0.79810  -0.08862   0.00000  Uiso   1.00
H210   H     0.65179   0.29810  -0.08862   0.00000  Uiso   1.00
H211   H     0.84821   0.79810   0.08862   0.00000  Uiso   1.00
H212   H     0.34821   0.29810   0.08862   0.00000  Uiso   1.00
H213   H     0.84821   0.20190   0.08862   0.00000  Uiso   1.00
H214   H     0.34821   0.70190   0.08862   0.00000  Uiso   1.00
H215   H     0.15179   0.20190  -0.08862   0.00000  Uiso   1.00
H216   H     0.65179   0.70190  -0.08862   0.00000  Uiso   1.00
H217   H     0.21267   0.84565  -0.64378   0.00000  Uiso   1.00
H218   H     0.71267   0.34565  -0.64378   0.00000  Uiso   1.00
H219   H     0.78733   0.84565   0.64378   0.00000  Uiso   1.00
H220   H     0.28733   0.34565   0.64378   0.00000  Uiso   1.00
H221   H     0.78733   0.15435   0.64378   0.00000  Uiso   1.00
H222   H     0.28733   0.65435   0.64378   0.00000  Uiso   1.00
H223   H     0.21267   0.15435  -0.64378   0.00000  Uiso   1.00
H224   H     0.71267   0.65435  -0.64378   0.00000  Uiso   1.00
H225   H     0.18555   0.88187  -0.76513   0.00000  Uiso   1.00
H226   H     0.68555   0.38187  -0.76513   0.00000  Uiso   1.00
H227   H     0.81445   0.88187   0.76513   0.00000  Uiso   1.00
H228   H     0.31445   0.38187   0.76513   0.00000  Uiso   1.00
H229   H     0.81445   0.11813   0.76513   0.00000  Uiso   1.00
H230   H     0.31445   0.61813   0.76513   0.00000  Uiso   1.00
H231   H     0.18555   0.11813  -0.76513   0.00000  Uiso   1.00
H232   H     0.68555   0.61813  -0.76513   0.00000  Uiso   1.00
C233   C     0.13732   0.88398  -0.54288   0.00000  Uiso   1.00
C234   C     0.63732   0.38398  -0.54288   0.00000  Uiso   1.00
C235   C     0.86268   0.88398   0.54288   0.00000  Uiso   1.00
C236   C     0.36268   0.38398   0.54288   0.00000  Uiso   1.00
C237   C     0.86268   0.11602   0.54288   0.00000  Uiso   1.00
C238   C     0.36268   0.61602   0.54288   0.00000  Uiso   1.00
C239   C     0.13732   0.11602  -0.54288   0.00000  Uiso   1.00
C240   C     0.63732   0.61602  -0.54288   0.00000  Uiso   1.00
N241   N     0.11403   0.88177  -0.46887   0.00000  Uiso   1.00
N242   N     0.61403   0.38177  -0.46887   0.00000  Uiso   1.00
N243   N     0.88597   0.88177   0.46887   0.00000  Uiso   1.00
N244   N     0.38597   0.38177   0.46887   0.00000  Uiso   1.00
N245   N     0.88597   0.11823   0.46887   0.00000  Uiso   1.00
N246   N     0.38597   0.61823   0.46887   0.00000  Uiso   1.00
N247   N     0.11403   0.11823  -0.46887   0.00000  Uiso   1.00
N248   N     0.61403   0.61823  -0.46887   0.00000  Uiso   1.00
H249   H     0.85420   0.09635   0.62885   0.00000  Uiso   1.00
H250   H     0.35420   0.59635   0.62885   0.00000  Uiso   1.00
H251   H     0.14580   0.09635  -0.62885   0.00000  Uiso   1.00
H252   H     0.64580   0.59635  -0.62886   0.00000  Uiso   1.00
H253   H     0.14580   0.90365  -0.62885   0.00000  Uiso   1.00
H254   H     0.64580   0.40365  -0.62886   0.00000  Uiso   1.00
H255   H     0.85420   0.90365   0.62885   0.00000  Uiso   1.00
H256   H     0.35420   0.40365   0.62885   0.00000  Uiso   1.00
C257   C     0.43918   0.50000   0.45914   0.00000  Uiso   1.00
C258   C     0.93918   0.00000   0.45914   0.00000  Uiso   1.00
C259   C     0.56082   0.50000  -0.45914   0.00000  Uiso   1.00
C260   C     0.06082   0.00000  -0.45914   0.00000  Uiso   1.00
C261   C     0.51240   0.50000  -0.09222   0.00000  Uiso   1.00
C262   C     0.01240   0.00000  -0.09222   0.00000  Uiso   1.00
C263   C     0.48760   0.50000   0.09222   0.00000  Uiso   1.00
C264   C     0.98760   0.00000   0.09222   0.00000  Uiso   1.00
H265   H     0.42048   0.50000   0.60308   0.00000  Uiso   1.00
H266   H     0.92048   0.00000   0.60308   0.00000  Uiso   1.00
H267   H     0.57952   0.50000  -0.60309   0.00000  Uiso   1.00
H268   H     0.07952   0.00000  -0.60308   0.00000  Uiso   1.00
C269   C     0.22468   0.67905  -0.06881   0.00000  Uiso   1.00
O270   O     0.25495   0.80823  -0.01689   0.00000  Uiso   1.00
H271   H     0.28623   0.77013   0.14291   0.00000  Uiso   1.00
H272   H     0.22658   0.65626  -0.05711   0.00000  Uiso   1.00
H273   H     0.22382   0.68440  -0.34271   0.00000  Uiso   1.00
H274   H     0.20781   0.68516   0.12383   0.00000  Uiso   1.00
C275   C     0.72468   0.17905  -0.06881   0.00000  Uiso   1.00
O276   O     0.75495   0.30823  -0.01689   0.00000  Uiso   1.00
H277   H     0.78623   0.27013   0.14291   0.00000  Uiso   1.00
H278   H     0.72658   0.15626  -0.05711   0.00000  Uiso   1.00
H279   H     0.72382   0.18440  -0.34271   0.00000  Uiso   1.00
H280   H     0.70781   0.18516   0.12383   0.00000  Uiso   1.00
C281   C     0.77532   0.67905   0.06881   0.00000  Uiso   1.00
O282   O     0.74505   0.80823   0.01689   0.00000  Uiso   1.00
H283   H     0.71377   0.77013  -0.14291   0.00000  Uiso   1.00
H284   H     0.77342   0.65626   0.05711   0.00000  Uiso   1.00
H285   H     0.77618   0.68440   0.34271   0.00000  Uiso   1.00
H286   H     0.79219   0.68516  -0.12384   0.00000  Uiso   1.00
C287   C     0.27532   0.17905   0.06881   0.00000  Uiso   1.00
O288   O     0.24505   0.30823   0.01689   0.00000  Uiso   1.00
H289   H     0.21377   0.27013  -0.14291   0.00000  Uiso   1.00
H290   H     0.27342   0.15626   0.05711   0.00000  Uiso   1.00
H291   H     0.27618   0.18440   0.34271   0.00000  Uiso   1.00
H292   H     0.29219   0.18516  -0.12384   0.00000  Uiso   1.00
C293   C     0.77532   0.32095   0.06881   0.00000  Uiso   1.00
O294   O     0.74505   0.19177   0.01689   0.00000  Uiso   1.00
H295   H     0.71377   0.22987  -0.14291   0.00000  Uiso   1.00
H296   H     0.77342   0.34374   0.05711   0.00000  Uiso   1.00
H297   H     0.77618   0.31560   0.34271   0.00000  Uiso   1.00
H298   H     0.79219   0.31484  -0.12384   0.00000  Uiso   1.00
C299   C     0.27532   0.82095   0.06881   0.00000  Uiso   1.00
O300   O     0.24505   0.69177   0.01689   0.00000  Uiso   1.00
H301   H     0.21377   0.72987  -0.14291   0.00000  Uiso   1.00
H302   H     0.27342   0.84374   0.05711   0.00000  Uiso   1.00
H303   H     0.27618   0.81560   0.34271   0.00000  Uiso   1.00
H304   H     0.29219   0.81484  -0.12384   0.00000  Uiso   1.00
C305   C     0.22468   0.32095  -0.06881   0.00000  Uiso   1.00
O306   O     0.25495   0.19177  -0.01689   0.00000  Uiso   1.00
H307   H     0.28623   0.22987   0.14291   0.00000  Uiso   1.00
H308   H     0.22658   0.34374  -0.05711   0.00000  Uiso   1.00
H309   H     0.22382   0.31560  -0.34271   0.00000  Uiso   1.00
H310   H     0.20781   0.31484   0.12383   0.00000  Uiso   1.00
C311   C     0.72468   0.82095  -0.06881   0.00000  Uiso   1.00
O312   O     0.75495   0.69177  -0.01689   0.00000  Uiso   1.00
H313   H     0.78623   0.72987   0.14291   0.00000  Uiso   1.00
H314   H     0.72658   0.84374  -0.05711   0.00000  Uiso   1.00
H315   H     0.72382   0.81560  -0.34271   0.00000  Uiso   1.00
H316   H     0.70781   0.81484   0.12383   0.00000  Uiso   1.00
loop_
_geom_bond_atom_site_label_1
_geom_bond_atom_site_label_2
_geom_bond_distance
_geom_bond_site_symmetry_2
_ccdc_geom_bond_type
C1     C11     1.404   .     S
C1     C19     1.422   .     S
C1     C261    1.425   .     D
C2     C12     1.404   .     D
C2     C20     1.422   .     S
C2     C262    1.425   .     S
C3     C9      1.404   .     S
C3     C17     1.422   .     S
C3     C263    1.425   .     D
C4     C10     1.404   .     D
C4     C18     1.422   .     S
C4     C264    1.425   .     S
C5     C15     1.404   .     D
C5     C23     1.422   .     S
C5     C263    1.425   .     S
C6     C16     1.404   .     D
C6     C24     1.422   .     S
C6     C264    1.425   1_565 S
C7     C13     1.404   .     D
C7     C21     1.422   .     S
C7     C261    1.425   .     S
C8     C14     1.404   .     D
C8     C22     1.422   .     S
C8     C262    1.425   1_565 S
C9     C11     1.388   .     D
C9     H73     1.075   .     S
C10    C12     1.388   1_655 S
C10    H74     1.075   .     S
C11    H75     1.075   .     S
C12    C10     1.388   1_455 S
C12    H76     1.075   .     S
C13    C15     1.388   .     S
C13    H77     1.075   .     S
C14    C16     1.388   1_455 S
C14    H78     1.075   .     S
C15    H79     1.075   .     S
C16    C14     1.388   1_655 S
C16    H80     1.075   .     S
C17    C25     1.500   .     S
C17    C257    1.398   .     D
C18    C26     1.500   .     D
C18    C258    1.398   .     S
C19    C27     1.500   .     S
C19    C259    1.398   .     D
C20    C28     1.500   .     D
C20    C260    1.398   .     S
C21    C29     1.500   .     D
C21    C259    1.398   .     S
C22    C30     1.500   .     S
C22    C260    1.398   1_565 D
C23    C31     1.500   .     D
C23    C257    1.398   .     S
C24    C32     1.500   .     S
C24    C258    1.398   1_565 D
C25    C33     1.408   .     D
C25    C65     1.409   .     S
C26    C34     1.408   .     S
C26    C66     1.409   .     S
C27    C35     1.409   .     D
C27    C67     1.409   .     S
C28    C36     1.408   .     S
C28    C68     1.409   .     S
C29    C37     1.409   .     S
C29    C69     1.409   .     S
C30    C38     1.408   .     D
C30    C70     1.409   .     S
C31    C39     1.408   .     S
C31    C71     1.409   .     S
C32    C40     1.408   .     D
C32    C72     1.409   .     S
C33    C41     1.394   .     S
C33    H81     1.082   .     S
C34    C42     1.394   .     D
C34    H82     1.082   .     S
C35    C43     1.394   .     S
C35    H83     1.082   .     S
C36    C44     1.394   .     D
C36    H84     1.082   .     S
C37    C45     1.394   .     D
C37    H85     1.082   .     S
C38    C46     1.394   .     S
C38    H86     1.082   .     S
C39    C47     1.394   .     D
C39    H87     1.082   .     S
C40    C48     1.394   .     S
C40    H88     1.082   .     S
C41    C49     1.402   .     D
C41    H89     1.081   .     S
C42    C50     1.402   .     S
C42    H90     1.081   .     S
C43    C51     1.402   .     D
C43    H91     1.081   .     S
C44    C52     1.402   .     S
C44    H92     1.081   .     S
C45    C53     1.402   .     S
C45    H93     1.081   .     S
C46    C54     1.402   .     D
C46    H94     1.081   .     S
C47    C55     1.402   .     S
C47    H95     1.081   .     S
C48    C56     1.402   .     D
C48    H96     1.081   .     S
C49    C57     1.400   .     S
C49    N246    1.438   .     S
C50    C58     1.400   .     S
C50    N245    1.438   .     D
C51    C59     1.400   .     S
C51    N248    1.438   .     S
C52    C60     1.400   .     S
C52    N247    1.438   .     D
C53    C61     1.400   .     S
C53    N242    1.438   .     D
C54    C62     1.400   .     S
C54    N241    1.438   .     S
C55    C63     1.400   .     S
C55    N244    1.438   .     D
C56    C64     1.400   .     S
C56    N243    1.438   .     S
C57    C65     1.407   .     D
C57    H97     1.082   .     S
C58    C66     1.407   .     D
C58    H98     1.082   .     S
C59    C67     1.407   .     D
C59    H99     1.082   .     S
C60    C68     1.407   .     D
C60    H100    1.082   .     S
C61    C69     1.407   .     D
C61    H101    1.082   .     S
C62    C70     1.407   .     D
C62    H102    1.082   .     S
C63    C71     1.407   .     D
C63    H103    1.082   .     S
C64    C72     1.407   .     D
C64    H104    1.082   .     S
C65    H105    1.082   .     S
C66    H106    1.082   .     S
C67    H107    1.082   .     S
C68    H108    1.082   .     S
C69    H109    1.082   .     S
C70    H110    1.082   .     S
C71    H111    1.082   .     S
C72    H112    1.082   .     S
C113   C121    1.406   .     D
C113   C153    1.404   .     S
C113   C233    1.478   .     S
C114   C122    1.406   .     S
C114   C154    1.404   .     S
C114   C234    1.478   .     D
C115   C123    1.406   .     D
C115   C155    1.404   .     S
C115   C235    1.478   .     S
C116   C124    1.406   .     S
C116   C156    1.404   .     S
C116   C236    1.478   .     D
C117   C125    1.406   .     S
C117   C157    1.404   .     S
C117   C237    1.478   .     D
C118   C126    1.406   .     D
C118   C158    1.404   .     S
C118   C238    1.478   .     S
C119   C127    1.406   .     S
C119   C159    1.404   .     S
C119   C239    1.478   .     D
C120   C128    1.406   .     D
C120   C160    1.404   .     S
C120   C240    1.478   .     S
C121   C129    1.403   .     S
C121   H201    1.083   .     S
C122   C130    1.403   .     D
C122   H202    1.083   .     S
C123   C131    1.403   .     S
C123   H203    1.083   .     S
C124   C132    1.403   .     D
C124   H204    1.083   .     S
C125   C133    1.403   .     D
C125   H205    1.083   .     S
C126   C134    1.403   .     S
C126   H206    1.083   .     S
C127   C135    1.403   .     D
C127   H207    1.083   .     S
C128   C136    1.403   .     S
C128   H208    1.083   .     S
C129   C137    1.401   .     D
C129   H209    1.083   .     S
C130   C138    1.401   .     S
C130   H210    1.083   .     S
C131   C139    1.401   .     D
C131   H211    1.083   .     S
C132   C140    1.401   .     S
C132   H212    1.083   .     S
C133   C141    1.401   .     S
C133   H213    1.083   .     S
C134   C142    1.401   .     D
C134   H214    1.083   .     S
C135   C143    1.401   .     S
C135   H215    1.083   .     S
C136   C144    1.401   .     D
C136   H216    1.083   .     S
C137   C145    1.398   .     S
C137   C161    1.441   .     S
C138   C146    1.398   .     S
C138   C162    1.441   .     D
C139   C147    1.398   .     S
C139   C163    1.441   .     S
C140   C148    1.398   .     S
C140   C164    1.441   .     D
C141   C149    1.398   .     S
C141   C165    1.441   .     D
C142   C150    1.398   .     S
C142   C166    1.441   .     S
C143   C151    1.398   .     S
C143   C167    1.441   .     D
C144   C152    1.398   .     S
C144   C168    1.441   .     S
C145   C153    1.398   .     D
C145   H217    1.085   .     S
C146   C154    1.398   .     D
C146   H218    1.085   .     S
C147   C155    1.398   .     D
C147   H219    1.085   .     S
C148   C156    1.398   .     D
C148   H220    1.085   .     S
C149   C157    1.398   .     D
C149   H221    1.085   .     S
C150   C158    1.398   .     D
C150   H222    1.085   .     S
C151   C159    1.398   .     D
C151   H223    1.085   .     S
C152   C160    1.398   .     D
C152   H224    1.085   .     S
C153   H225    1.083   .     S
C154   H226    1.083   .     S
C155   H227    1.083   .     S
C156   H228    1.083   .     S
C157   H229    1.083   .     S
C158   H230    1.083   .     S
C159   H231    1.083   .     S
C160   H232    1.083   .     S
C161   C169    1.207   .     T
C162   C170    1.207   .     D
C163   C171    1.207   .     T
C164   C172    1.207   .     D
C165   C173    1.207   .     D
C166   C174    1.207   .     T
C167   C175    1.207   .     D
C168   C176    1.207   .     T
C169   C177    1.444   .     S
C170   C178    1.444   .     D
C171   C179    1.444   .     S
C172   C180    1.444   .     D
C173   C181    1.444   .     D
C174   C182    1.444   .     S
C175   C183    1.444   .     D
C176   C184    1.444   .     S
C177   C185    1.407   .     S
C177   C198    1.401   .     D
C178   C186    1.407   .     S
C178   C197    1.401   .     S
C179   C187    1.407   .     S
C179   C200    1.401   .     D
C180   C188    1.407   .     S
C180   C199    1.401   .     S
C181   C189    1.407   .     S
C181   C194    1.401   .     S
C182   C190    1.407   .     D
C182   C193    1.401   .     S
C183   C191    1.407   .     S
C183   C196    1.401   .     S
C184   C192    1.407   .     D
C184   C195    1.401   .     S
C185   C193    1.411   .     D
C185   O270    1.414   .     S
C186   C194    1.411   .     D
C186   O276    1.414   .     S
C187   C195    1.411   .     D
C187   O282    1.414   .     S
C188   C196    1.411   .     D
C188   O288    1.414   .     S
C189   C197    1.411   .     D
C189   O294    1.414   .     S
C190   C198    1.411   .     S
C190   O300    1.414   .     S
C191   C199    1.411   .     D
C191   O306    1.414   .     S
C192   C200    1.411   .     S
C192   O312    1.414   .     S
C193   H271    1.079   .     S
C194   H277    1.079   .     S
C195   H283    1.079   .     S
C196   H289    1.079   .     S
C197   H295    1.079   .     S
C198   H301    1.079   .     S
C199   H307    1.079   .     S
C200   H313    1.079   .     S
C233   N241    1.302   .     D
C233   H253    1.084   .     S
C234   N242    1.302   .     S
C234   H254    1.084   .     S
C235   N243    1.302   .     D
C235   H255    1.084   .     S
C236   N244    1.302   .     S
C236   H256    1.084   .     S
C237   N245    1.302   .     S
C237   H249    1.084   .     S
C238   N246    1.302   .     D
C238   H250    1.084   .     S
C239   N247    1.302   .     S
C239   H251    1.084   .     S
C240   N248    1.302   .     D
C240   H252    1.084   .     S
C257   H265    1.083   .     S
C258   C24     1.398   1_545 D
C258   H266    1.083   .     S
C259   H267    1.083   .     S
C260   C22     1.398   1_545 D
C260   H268    1.083   .     S
C261   C263    1.430   .     S
C262   C8      1.425   1_545 S
C262   C264    1.430   1_455 D
C264   C262    1.430   1_655 D
C264   C6      1.425   1_545 S
C269   H272    1.111   .     S
C269   H273    1.106   .     S
C269   H274    1.111   .     S
C269   O300    1.429   .     S
O270   C299    1.429   .     S
C275   H278    1.111   .     S
C275   H279    1.106   .     S
C275   H280    1.111   .     S
C275   O294    1.429   .     S
O276   C293    1.429   .     S
C281   H284    1.111   .     S
C281   H285    1.106   .     S
C281   H286    1.111   .     S
C281   O312    1.429   .     S
O282   C311    1.429   .     S
C287   H290    1.111   .     S
C287   H291    1.106   .     S
C287   H292    1.111   .     S
C287   O306    1.429   .     S
O288   C305    1.429   .     S
C293   H296    1.111   .     S
C293   H297    1.106   .     S
C293   H298    1.111   .     S
C299   H302    1.111   .     S
C299   H303    1.106   .     S
C299   H304    1.111   .     S
C305   H308    1.111   .     S
C305   H309    1.106   .     S
C305   H310    1.111   .     S
C311   H314    1.111   .     S
C311   H315    1.106   .     S
C311   H316    1.111   .     S
