data_391
_audit_creation_date              2023-09-08
_audit_creation_method            'Materials Studio'
_symmetry_space_group_name_H-M    'P1'
_symmetry_Int_Tables_number       1
_symmetry_cell_setting            triclinic
loop_
_symmetry_equiv_pos_as_xyz
  x,y,z
_cell_length_a                    51.6000
_cell_length_b                    53.0000
_cell_length_c                    3.8400
_cell_angle_alpha                 90.0000
_cell_angle_beta                  72.0000
_cell_angle_gamma                 90.0000
loop_
_atom_site_label
_atom_site_type_symbol
_atom_site_fract_x
_atom_site_fract_y
_atom_site_fract_z
_atom_site_U_iso_or_equiv
_atom_site_adp_type
_atom_site_occupancy
C1     C     0.97182   0.52342   0.49819   0.00000  Uiso   1.00
C2     C     0.47182   0.02342   0.49819   0.00000  Uiso   1.00
C3     C     0.02818   0.52342   0.50181   0.00000  Uiso   1.00
C4     C     0.52818   0.02342   0.50181   0.00000  Uiso   1.00
C5     C     0.02818   0.47658   0.50181   0.00000  Uiso   1.00
C6     C     0.52818   0.97658   0.50181   0.00000  Uiso   1.00
C7     C     0.97182   0.47658   0.49819   0.00000  Uiso   1.00
C8     C     0.47182   0.97658   0.49819   0.00000  Uiso   1.00
C9     C     0.01360   0.54581   0.49874   0.00000  Uiso   1.00
C10    C     0.51360   0.04580   0.49874   0.00000  Uiso   1.00
C11    C     0.98640   0.54581   0.50126   0.00000  Uiso   1.00
C12    C     0.48640   0.04580   0.50126   0.00000  Uiso   1.00
C13    C     0.98640   0.45420   0.50126   0.00000  Uiso   1.00
C14    C     0.48640   0.95420   0.50126   0.00000  Uiso   1.00
C15    C     0.01360   0.45420   0.49874   0.00000  Uiso   1.00
C16    C     0.51360   0.95420   0.49874   0.00000  Uiso   1.00
C17    C     0.94368   0.47631   0.50182   0.00000  Uiso   1.00
C18    C     0.44368   0.97631   0.50182   0.00000  Uiso   1.00
C19    C     0.05632   0.47631   0.49818   0.00000  Uiso   1.00
C20    C     0.55632   0.97631   0.49818   0.00000  Uiso   1.00
C21    C     0.05632   0.52369   0.49818   0.00000  Uiso   1.00
C22    C     0.55632   0.02369   0.49818   0.00000  Uiso   1.00
C23    C     0.94368   0.52369   0.50182   0.00000  Uiso   1.00
C24    C     0.44368   0.02369   0.50182   0.00000  Uiso   1.00
C25    C     0.07430   0.54750   0.47639   0.00000  Uiso   1.00
C26    C     0.57430   0.04750   0.47639   0.00000  Uiso   1.00
C27    C     0.92570   0.54750   0.52361   0.00000  Uiso   1.00
C28    C     0.42570   0.04750   0.52361   0.00000  Uiso   1.00
C29    C     0.92570   0.45250   0.52361   0.00000  Uiso   1.00
C30    C     0.42570   0.95250   0.52361   0.00000  Uiso   1.00
C31    C     0.07430   0.45250   0.47639   0.00000  Uiso   1.00
C32    C     0.57430   0.95250   0.47639   0.00000  Uiso   1.00
C33    C     0.89823   0.45233   0.75243   0.00000  Uiso   1.00
C34    C     0.39823   0.95233   0.75243   0.00000  Uiso   1.00
C35    C     0.10177   0.45233   0.24756   0.00000  Uiso   1.00
C36    C     0.60177   0.95233   0.24756   0.00000  Uiso   1.00
C37    C     0.10177   0.54767   0.24756   0.00000  Uiso   1.00
C38    C     0.60177   0.04767   0.24756   0.00000  Uiso   1.00
C39    C     0.89823   0.54767   0.75243   0.00000  Uiso   1.00
C40    C     0.39823   0.04767   0.75243   0.00000  Uiso   1.00
C41    C     0.88036   0.43184   0.75818   0.00000  Uiso   1.00
C42    C     0.38036   0.93184   0.75818   0.00000  Uiso   1.00
C43    C     0.11964   0.43184   0.24182   0.00000  Uiso   1.00
C44    C     0.61964   0.93184   0.24182   0.00000  Uiso   1.00
C45    C     0.11964   0.56816   0.24182   0.00000  Uiso   1.00
C46    C     0.61964   0.06816   0.24182   0.00000  Uiso   1.00
C47    C     0.88036   0.56816   0.75818   0.00000  Uiso   1.00
C48    C     0.38036   0.06816   0.75818   0.00000  Uiso   1.00
C49    C     0.88894   0.41019   0.54160   0.00000  Uiso   1.00
C50    C     0.38894   0.91019   0.54160   0.00000  Uiso   1.00
C51    C     0.11106   0.41019   0.45839   0.00000  Uiso   1.00
C52    C     0.61106   0.91019   0.45839   0.00000  Uiso   1.00
C53    C     0.11106   0.58981   0.45839   0.00000  Uiso   1.00
C54    C     0.61106   0.08981   0.45839   0.00000  Uiso   1.00
C55    C     0.88894   0.58981   0.54160   0.00000  Uiso   1.00
C56    C     0.38894   0.08981   0.54160   0.00000  Uiso   1.00
C57    C     0.08363   0.59003   0.68656   0.00000  Uiso   1.00
C58    C     0.58363   0.09003   0.68656   0.00000  Uiso   1.00
C59    C     0.91637   0.59003   0.31344   0.00000  Uiso   1.00
C60    C     0.41637   0.09003   0.31344   0.00000  Uiso   1.00
C61    C     0.91637   0.40997   0.31344   0.00000  Uiso   1.00
C62    C     0.41637   0.90997   0.31344   0.00000  Uiso   1.00
C63    C     0.08363   0.40997   0.68656   0.00000  Uiso   1.00
C64    C     0.58363   0.90997   0.68656   0.00000  Uiso   1.00
C65    C     0.93417   0.43075   0.30268   0.00000  Uiso   1.00
C66    C     0.43417   0.93075   0.30268   0.00000  Uiso   1.00
C67    C     0.06583   0.43075   0.69732   0.00000  Uiso   1.00
C68    C     0.56583   0.93075   0.69732   0.00000  Uiso   1.00
C69    C     0.06583   0.56925   0.69732   0.00000  Uiso   1.00
C70    C     0.56583   0.06925   0.69732   0.00000  Uiso   1.00
C71    C     0.93417   0.56925   0.30268   0.00000  Uiso   1.00
C72    C     0.43417   0.06925   0.30268   0.00000  Uiso   1.00
H73    H     0.02303   0.56397   0.49224   0.00000  Uiso   1.00
H74    H     0.52303   0.06397   0.49224   0.00000  Uiso   1.00
H75    H     0.97697   0.56397   0.50776   0.00000  Uiso   1.00
H76    H     0.47697   0.06397   0.50776   0.00000  Uiso   1.00
H77    H     0.97697   0.43603   0.50776   0.00000  Uiso   1.00
H78    H     0.47697   0.93603   0.50776   0.00000  Uiso   1.00
H79    H     0.02303   0.43603   0.49224   0.00000  Uiso   1.00
H80    H     0.52303   0.93603   0.49224   0.00000  Uiso   1.00
H81    H     0.89045   0.46819   0.93200   0.00000  Uiso   1.00
H82    H     0.39045   0.96819   0.93200   0.00000  Uiso   1.00
H83    H     0.10955   0.46819   0.06800   0.00000  Uiso   1.00
H84    H     0.60955   0.96819   0.06800   0.00000  Uiso   1.00
H85    H     0.10955   0.53181   0.06800   0.00000  Uiso   1.00
H86    H     0.60955   0.03181   0.06800   0.00000  Uiso   1.00
H87    H     0.89045   0.53181   0.93200   0.00000  Uiso   1.00
H88    H     0.39045   0.03181   0.93200   0.00000  Uiso   1.00
H89    H     0.85956   0.43259   0.93793   0.00000  Uiso   1.00
H90    H     0.35956   0.93259   0.93793   0.00000  Uiso   1.00
H91    H     0.14044   0.43259   0.06207   0.00000  Uiso   1.00
H92    H     0.64044   0.93259   0.06207   0.00000  Uiso   1.00
H93    H     0.14044   0.56741   0.06207   0.00000  Uiso   1.00
H94    H     0.64044   0.06741   0.06207   0.00000  Uiso   1.00
H95    H     0.85956   0.56741   0.93793   0.00000  Uiso   1.00
H96    H     0.35956   0.06741   0.93793   0.00000  Uiso   1.00
H97    H     0.07609   0.60572   0.86928   0.00000  Uiso   1.00
H98    H     0.57609   0.10572   0.86928   0.00000  Uiso   1.00
H99    H     0.92391   0.60572   0.13072   0.00000  Uiso   1.00
H100   H     0.42391   0.10572   0.13072   0.00000  Uiso   1.00
H101   H     0.92391   0.39428   0.13072   0.00000  Uiso   1.00
H102   H     0.42391   0.89428   0.13072   0.00000  Uiso   1.00
H103   H     0.07609   0.39428   0.86928   0.00000  Uiso   1.00
H104   H     0.57609   0.89428   0.86928   0.00000  Uiso   1.00
H105   H     0.04563   0.57002   0.88932   0.00000  Uiso   1.00
H106   H     0.54563   0.07002   0.88932   0.00000  Uiso   1.00
H107   H     0.95437   0.57002   0.11068   0.00000  Uiso   1.00
H108   H     0.45437   0.07002   0.11068   0.00000  Uiso   1.00
H109   H     0.95437   0.42998   0.11068   0.00000  Uiso   1.00
H110   H     0.45437   0.92998   0.11068   0.00000  Uiso   1.00
H111   H     0.04563   0.42998   0.88932   0.00000  Uiso   1.00
H112   H     0.54563   0.92998   0.88932   0.00000  Uiso   1.00
N113   N     0.36925   0.11023   0.55385   0.00000  Uiso   1.00
N114   N     0.86925   0.61023   0.55384   0.00000  Uiso   1.00
N115   N     0.63075   0.11023   0.44615   0.00000  Uiso   1.00
N116   N     0.13075   0.61023   0.44615   0.00000  Uiso   1.00
N117   N     0.63075   0.88977   0.44615   0.00000  Uiso   1.00
N118   N     0.13075   0.38977   0.44615   0.00000  Uiso   1.00
N119   N     0.36925   0.88977   0.55385   0.00000  Uiso   1.00
N120   N     0.86925   0.38977   0.55384   0.00000  Uiso   1.00
S121   S     0.18008   0.65299   0.50861   0.00000  Uiso   1.00
S122   S     0.68008   0.15299   0.50861   0.00000  Uiso   1.00
S123   S     0.81992   0.65299   0.49139   0.00000  Uiso   1.00
S124   S     0.31992   0.15299   0.49139   0.00000  Uiso   1.00
S125   S     0.81992   0.34701   0.49139   0.00000  Uiso   1.00
S126   S     0.31992   0.84701   0.49139   0.00000  Uiso   1.00
S127   S     0.18008   0.34701   0.50861   0.00000  Uiso   1.00
S128   S     0.68008   0.84701   0.50861   0.00000  Uiso   1.00
C129   C     0.18278   0.68598   0.51423   0.00000  Uiso   1.00
C130   C     0.68278   0.18598   0.51423   0.00000  Uiso   1.00
C131   C     0.81722   0.68598   0.48577   0.00000  Uiso   1.00
C132   C     0.31722   0.18598   0.48577   0.00000  Uiso   1.00
C133   C     0.81722   0.31402   0.48577   0.00000  Uiso   1.00
C134   C     0.31722   0.81402   0.48577   0.00000  Uiso   1.00
C135   C     0.18278   0.31402   0.51423   0.00000  Uiso   1.00
C136   C     0.68278   0.81402   0.51423   0.00000  Uiso   1.00
C137   C     0.15825   0.69700   0.52454   0.00000  Uiso   1.00
C138   C     0.65825   0.19700   0.52454   0.00000  Uiso   1.00
C139   C     0.84175   0.69700   0.47546   0.00000  Uiso   1.00
C140   C     0.34175   0.19700   0.47546   0.00000  Uiso   1.00
C141   C     0.84175   0.30300   0.47546   0.00000  Uiso   1.00
C142   C     0.34175   0.80300   0.47546   0.00000  Uiso   1.00
C143   C     0.15825   0.30300   0.52454   0.00000  Uiso   1.00
C144   C     0.65825   0.80300   0.52454   0.00000  Uiso   1.00
C145   C     0.13785   0.67979   0.53542   0.00000  Uiso   1.00
C146   C     0.63785   0.17979   0.53542   0.00000  Uiso   1.00
C147   C     0.86215   0.67979   0.46458   0.00000  Uiso   1.00
C148   C     0.36215   0.17979   0.46458   0.00000  Uiso   1.00
C149   C     0.86215   0.32021   0.46458   0.00000  Uiso   1.00
C150   C     0.36215   0.82021   0.46458   0.00000  Uiso   1.00
C151   C     0.13785   0.32021   0.53542   0.00000  Uiso   1.00
C152   C     0.63785   0.82021   0.53542   0.00000  Uiso   1.00
C153   C     0.20758   0.70211   0.51132   0.00000  Uiso   1.00
C154   C     0.70758   0.20211   0.51132   0.00000  Uiso   1.00
C155   C     0.79242   0.70211   0.48868   0.00000  Uiso   1.00
C156   C     0.29242   0.20211   0.48868   0.00000  Uiso   1.00
C157   C     0.79242   0.29789   0.48868   0.00000  Uiso   1.00
C158   C     0.29242   0.79789   0.48868   0.00000  Uiso   1.00
C159   C     0.20758   0.29789   0.51132   0.00000  Uiso   1.00
C160   C     0.70758   0.79789   0.51132   0.00000  Uiso   1.00
C161   C     0.23178   0.69447   0.56085   0.00000  Uiso   1.00
C162   C     0.73179   0.19447   0.56085   0.00000  Uiso   1.00
C163   C     0.76821   0.69447   0.43915   0.00000  Uiso   1.00
C164   C     0.26821   0.19447   0.43915   0.00000  Uiso   1.00
C165   C     0.76821   0.30553   0.43915   0.00000  Uiso   1.00
C166   C     0.26821   0.80553   0.43915   0.00000  Uiso   1.00
C167   C     0.23178   0.30553   0.56085   0.00000  Uiso   1.00
C168   C     0.73179   0.80553   0.56085   0.00000  Uiso   1.00
C169   C     0.25007   0.71323   0.55797   0.00000  Uiso   1.00
C170   C     0.75007   0.21323   0.55797   0.00000  Uiso   1.00
C171   C     0.74993   0.71323   0.44202   0.00000  Uiso   1.00
C172   C     0.24993   0.21323   0.44202   0.00000  Uiso   1.00
C173   C     0.74993   0.28677   0.44202   0.00000  Uiso   1.00
C174   C     0.24993   0.78677   0.44202   0.00000  Uiso   1.00
C175   C     0.25007   0.28677   0.55797   0.00000  Uiso   1.00
C176   C     0.75007   0.78677   0.55797   0.00000  Uiso   1.00
C177   C     0.24196   0.73762   0.50475   0.00000  Uiso   1.00
C178   C     0.74196   0.23762   0.50475   0.00000  Uiso   1.00
C179   C     0.75804   0.73762   0.49525   0.00000  Uiso   1.00
C180   C     0.25804   0.23762   0.49525   0.00000  Uiso   1.00
C181   C     0.75804   0.26238   0.49525   0.00000  Uiso   1.00
C182   C     0.25804   0.76238   0.49525   0.00000  Uiso   1.00
C183   C     0.24196   0.26238   0.50475   0.00000  Uiso   1.00
C184   C     0.74196   0.76238   0.50475   0.00000  Uiso   1.00
S185   S     0.20919   0.73503   0.45939   0.00000  Uiso   1.00
S186   S     0.70919   0.23503   0.45939   0.00000  Uiso   1.00
S187   S     0.79081   0.73503   0.54061   0.00000  Uiso   1.00
S188   S     0.29081   0.23503   0.54061   0.00000  Uiso   1.00
S189   S     0.79081   0.26497   0.54061   0.00000  Uiso   1.00
S190   S     0.29081   0.76497   0.54061   0.00000  Uiso   1.00
S191   S     0.20919   0.26497   0.45939   0.00000  Uiso   1.00
S192   S     0.70919   0.76497   0.45939   0.00000  Uiso   1.00
H193   H     0.11741   0.68546   0.54922   0.00000  Uiso   1.00
H194   H     0.61741   0.18546   0.54922   0.00000  Uiso   1.00
H195   H     0.88259   0.68546   0.45078   0.00000  Uiso   1.00
H196   H     0.38259   0.18546   0.45077   0.00000  Uiso   1.00
H197   H     0.88259   0.31454   0.45078   0.00000  Uiso   1.00
H198   H     0.38259   0.81454   0.45077   0.00000  Uiso   1.00
H199   H     0.11741   0.31454   0.54922   0.00000  Uiso   1.00
H200   H     0.61741   0.81454   0.54922   0.00000  Uiso   1.00
H201   H     0.65519   0.21723   0.52814   0.00000  Uiso   1.00
H202   H     0.15519   0.71723   0.52814   0.00000  Uiso   1.00
H203   H     0.34481   0.21723   0.47186   0.00000  Uiso   1.00
H204   H     0.84481   0.71723   0.47186   0.00000  Uiso   1.00
H205   H     0.34481   0.78277   0.47186   0.00000  Uiso   1.00
H206   H     0.84481   0.28277   0.47186   0.00000  Uiso   1.00
H207   H     0.65519   0.78277   0.52814   0.00000  Uiso   1.00
H208   H     0.15519   0.28277   0.52814   0.00000  Uiso   1.00
C209   C     0.87479   0.36638   0.43899   0.00000  Uiso   1.00
C210   C     0.37479   0.86638   0.43899   0.00000  Uiso   1.00
C211   C     0.12521   0.36638   0.56100   0.00000  Uiso   1.00
C212   C     0.62521   0.86638   0.56100   0.00000  Uiso   1.00
C213   C     0.12521   0.63362   0.56100   0.00000  Uiso   1.00
C214   C     0.62521   0.13362   0.56100   0.00000  Uiso   1.00
C215   C     0.87479   0.63362   0.43899   0.00000  Uiso   1.00
C216   C     0.37479   0.13362   0.43899   0.00000  Uiso   1.00
C217   C     0.85404   0.34519   0.47313   0.00000  Uiso   1.00
C218   C     0.35404   0.84520   0.47313   0.00000  Uiso   1.00
C219   C     0.14596   0.34519   0.52687   0.00000  Uiso   1.00
C220   C     0.64596   0.84520   0.52687   0.00000  Uiso   1.00
C221   C     0.14596   0.65481   0.52687   0.00000  Uiso   1.00
C222   C     0.64596   0.15481   0.52687   0.00000  Uiso   1.00
C223   C     0.85404   0.65481   0.47313   0.00000  Uiso   1.00
C224   C     0.35404   0.15481   0.47313   0.00000  Uiso   1.00
H225   H     0.89591   0.36068   0.33541   0.00000  Uiso   1.00
H226   H     0.39591   0.86068   0.33541   0.00000  Uiso   1.00
H227   H     0.10409   0.36068   0.66459   0.00000  Uiso   1.00
H228   H     0.60409   0.86068   0.66459   0.00000  Uiso   1.00
H229   H     0.10409   0.63932   0.66459   0.00000  Uiso   1.00
H230   H     0.60409   0.13932   0.66459   0.00000  Uiso   1.00
H231   H     0.89591   0.63932   0.33541   0.00000  Uiso   1.00
H232   H     0.39591   0.13932   0.33541   0.00000  Uiso   1.00
C233   C     0.72740   0.70096   0.35288   0.00000  Uiso   1.00
C234   C     0.22740   0.20096   0.35288   0.00000  Uiso   1.00
C235   C     0.72740   0.29904   0.35288   0.00000  Uiso   1.00
C236   C     0.22740   0.79904   0.35288   0.00000  Uiso   1.00
N237   N     0.73196   0.67563   0.30451   0.00000  Uiso   1.00
N238   N     0.23196   0.17563   0.30451   0.00000  Uiso   1.00
N239   N     0.73196   0.32437   0.30451   0.00000  Uiso   1.00
N240   N     0.23196   0.82437   0.30451   0.00000  Uiso   1.00
C241   C     0.75679   0.67120   0.34828   0.00000  Uiso   1.00
C242   C     0.25679   0.17120   0.34828   0.00000  Uiso   1.00
C243   C     0.75679   0.32880   0.34828   0.00000  Uiso   1.00
C244   C     0.25679   0.82880   0.34828   0.00000  Uiso   1.00
O245   O     0.70791   0.71131   0.30186   0.00000  Uiso   1.00
O246   O     0.20791   0.21131   0.30186   0.00000  Uiso   1.00
O247   O     0.70791   0.28869   0.30186   0.00000  Uiso   1.00
O248   O     0.20791   0.78869   0.30186   0.00000  Uiso   1.00
O249   O     0.76732   0.65049   0.31171   0.00000  Uiso   1.00
O250   O     0.26732   0.15049   0.31171   0.00000  Uiso   1.00
O251   O     0.76732   0.34951   0.31171   0.00000  Uiso   1.00
O252   O     0.26732   0.84951   0.31171   0.00000  Uiso   1.00
C253   C     0.71639   0.65790   0.15358   0.00000  Uiso   1.00
C254   C     0.21639   0.15790   0.15358   0.00000  Uiso   1.00
C255   C     0.71639   0.34210   0.15358   0.00000  Uiso   1.00
C256   C     0.21639   0.84210   0.15358   0.00000  Uiso   1.00
C257   C     0.69535   0.64392   0.45975   0.00000  Uiso   1.00
C258   C     0.19535   0.14392   0.45975   0.00000  Uiso   1.00
C259   C     0.69535   0.35608   0.45975   0.00000  Uiso   1.00
C260   C     0.19535   0.85608   0.45975   0.00000  Uiso   1.00
C261   C     0.67794   0.62426   0.34113   0.00000  Uiso   1.00
C262   C     0.17794   0.12426   0.34113   0.00000  Uiso   1.00
C263   C     0.67794   0.37574   0.34113   0.00000  Uiso   1.00
C264   C     0.17794   0.87574   0.34113   0.00000  Uiso   1.00
C265   C     0.69384   0.59984   0.20723   0.00000  Uiso   1.00
C266   C     0.19384   0.09984   0.20723   0.00000  Uiso   1.00
C267   C     0.69384   0.40016   0.20723   0.00000  Uiso   1.00
C268   C     0.19384   0.90016   0.20723   0.00000  Uiso   1.00
H269   H     0.70567   0.66882  -0.00595   0.00000  Uiso   1.00
H270   H     0.20567   0.16882  -0.00595   0.00000  Uiso   1.00
H271   H     0.70567   0.33118  -0.00595   0.00000  Uiso   1.00
H272   H     0.20567   0.83118  -0.00595   0.00000  Uiso   1.00
H273   H     0.73082   0.64422  -0.02773   0.00000  Uiso   1.00
H274   H     0.23082   0.14422  -0.02773   0.00000  Uiso   1.00
H275   H     0.73082   0.35578  -0.02773   0.00000  Uiso   1.00
H276   H     0.23082   0.85578  -0.02773   0.00000  Uiso   1.00
H277   H     0.70665   0.63393   0.61761   0.00000  Uiso   1.00
H278   H     0.20665   0.13393   0.61761   0.00000  Uiso   1.00
H279   H     0.70665   0.36607   0.61761   0.00000  Uiso   1.00
H280   H     0.20665   0.86607   0.61761   0.00000  Uiso   1.00
H281   H     0.68146   0.65834   0.63162   0.00000  Uiso   1.00
H282   H     0.18146   0.15834   0.63162   0.00000  Uiso   1.00
H283   H     0.68146   0.34166   0.63162   0.00000  Uiso   1.00
H284   H     0.18146   0.84166   0.63162   0.00000  Uiso   1.00
H285   H     0.66008   0.61942   0.58222   0.00000  Uiso   1.00
H286   H     0.16008   0.11942   0.58222   0.00000  Uiso   1.00
H287   H     0.66008   0.38058   0.58222   0.00000  Uiso   1.00
H288   H     0.16008   0.88058   0.58222   0.00000  Uiso   1.00
H289   H     0.66885   0.63219   0.13871   0.00000  Uiso   1.00
H290   H     0.16885   0.13219   0.13871   0.00000  Uiso   1.00
H291   H     0.66885   0.36781   0.13871   0.00000  Uiso   1.00
H292   H     0.16885   0.86781   0.13871   0.00000  Uiso   1.00
H293   H     0.71329   0.60320  -0.01363   0.00000  Uiso   1.00
H294   H     0.21329   0.10320  -0.01363   0.00000  Uiso   1.00
H295   H     0.71329   0.39681  -0.01363   0.00000  Uiso   1.00
H296   H     0.21329   0.89680  -0.01363   0.00000  Uiso   1.00
H297   H     0.69902   0.59032   0.43456   0.00000  Uiso   1.00
H298   H     0.19902   0.09032   0.43456   0.00000  Uiso   1.00
H299   H     0.69902   0.40968   0.43456   0.00000  Uiso   1.00
H300   H     0.19902   0.90968   0.43456   0.00000  Uiso   1.00
H301   H     0.68122   0.58660   0.10371   0.00000  Uiso   1.00
H302   H     0.18122   0.08660   0.10371   0.00000  Uiso   1.00
H303   H     0.68122   0.41340   0.10371   0.00000  Uiso   1.00
H304   H     0.18122   0.91340   0.10371   0.00000  Uiso   1.00
C305   C     0.51412   0.00000   0.50216   0.00000  Uiso   1.00
C306   C     0.56901   0.00000   0.50330   0.00000  Uiso   1.00
H307   H     0.58966   0.00000   0.51667   0.00000  Uiso   1.00
C308   C     0.01412   0.50000   0.50216   0.00000  Uiso   1.00
C309   C     0.06901   0.50000   0.50330   0.00000  Uiso   1.00
H310   H     0.08966   0.50000   0.51667   0.00000  Uiso   1.00
C311   C     0.48588   0.00000   0.49784   0.00000  Uiso   1.00
C312   C     0.43099   0.00000   0.49669   0.00000  Uiso   1.00
H313   H     0.41033   0.00000   0.48333   0.00000  Uiso   1.00
C314   C     0.98588   0.50000   0.49784   0.00000  Uiso   1.00
C315   C     0.93099   0.50000   0.49669   0.00000  Uiso   1.00
H316   H     0.91034   0.50000   0.48333   0.00000  Uiso   1.00
H317   H     1.23532   1.32532   0.59873   0.00000  Uiso   1.00
H318   H     1.26946   1.29134   0.59571   0.00000  Uiso   1.00
H319   H     1.23532   0.67468   0.59873   0.00000  Uiso   1.00
H320   H     1.26946   0.70866   0.59571   0.00000  Uiso   1.00
H321   H     0.73532   1.17468   0.59873   0.00000  Uiso   1.00
H322   H     0.76946   1.20866   0.59571   0.00000  Uiso   1.00
H323   H     0.73532   0.82532   0.59873   0.00000  Uiso   1.00
H324   H     0.76946   0.79134   0.59571   0.00000  Uiso   1.00
loop_
_geom_bond_atom_site_label_1
_geom_bond_atom_site_label_2
_geom_bond_distance
_geom_bond_site_symmetry_2
_ccdc_geom_bond_type
C1     C11     1.407   .     D
C1     C23     1.448   .     S
C1     C314    1.438   .     S
C2     C12     1.407   .     S
C2     C24     1.448   .     S
C2     C311    1.438   .     D
C3     C9      1.407   .     D
C3     C21     1.448   .     S
C3     C308    1.438   .     S
C4     C10     1.407   .     S
C4     C22     1.448   .     S
C4     C305    1.438   .     D
C5     C15     1.407   .     S
C5     C19     1.448   .     S
C5     C308    1.438   .     D
C6     C16     1.407   .     D
C6     C20     1.448   .     S
C6     C305    1.438   1_565 S
C7     C13     1.407   .     S
C7     C17     1.448   .     S
C7     C314    1.438   .     D
C8     C14     1.407   .     D
C8     C18     1.448   .     S
C8     C311    1.438   1_565 S
C9     C11     1.401   1_455 S
C9     H73     1.075   .     S
C10    C12     1.401   .     D
C10    H74     1.075   .     S
C11    C9      1.401   1_655 S
C11    H75     1.075   .     S
C12    H76     1.075   .     S
C13    C15     1.401   1_655 D
C13    H77     1.075   .     S
C14    C16     1.401   .     S
C14    H78     1.075   .     S
C15    C13     1.401   1_455 D
C15    H79     1.075   .     S
C16    H80     1.075   .     S
C17    C29     1.553   .     D
C17    C315    1.419   .     S
C18    C30     1.553   .     D
C18    C312    1.419   1_565 S
C19    C31     1.553   .     S
C19    C309    1.419   .     D
C20    C32     1.553   .     S
C20    C306    1.419   1_565 D
C21    C25     1.553   .     D
C21    C309    1.419   .     S
C22    C26     1.553   .     D
C22    C306    1.419   .     S
C23    C27     1.553   .     S
C23    C315    1.419   .     D
C24    C28     1.553   .     S
C24    C312    1.419   .     D
C25    C37     1.419   .     S
C25    C69     1.418   .     S
C26    C38     1.419   .     S
C26    C70     1.418   .     S
C27    C39     1.419   .     S
C27    C71     1.418   .     D
C28    C40     1.419   .     D
C28    C72     1.418   .     S
C29    C33     1.419   .     S
C29    C65     1.418   .     S
C30    C34     1.419   .     S
C30    C66     1.418   .     S
C31    C35     1.419   .     D
C31    C67     1.418   .     S
C32    C36     1.419   .     S
C32    C68     1.418   .     D
C33    C41     1.420   .     D
C33    H81     1.083   .     S
C34    C42     1.420   .     D
C34    H82     1.083   .     S
C35    C43     1.420   .     S
C35    H83     1.083   .     S
C36    C44     1.420   .     D
C36    H84     1.083   .     S
C37    C45     1.420   .     D
C37    H85     1.083   .     S
C38    C46     1.420   .     D
C38    H86     1.083   .     S
C39    C47     1.420   .     D
C39    H87     1.083   .     S
C40    C48     1.420   .     S
C40    H88     1.083   .     S
C41    C49     1.406   .     S
C41    H89     1.082   .     S
C42    C50     1.406   .     S
C42    H90     1.082   .     S
C43    C51     1.406   .     D
C43    H91     1.082   .     S
C44    C52     1.406   .     S
C44    H92     1.082   .     S
C45    C53     1.406   .     S
C45    H93     1.082   .     S
C46    C54     1.406   .     S
C46    H94     1.082   .     S
C47    C55     1.406   .     S
C47    H95     1.082   .     S
C48    C56     1.406   .     D
C48    H96     1.082   .     S
C49    C61     1.416   .     S
C49    N120    1.475   .     D
C50    C62     1.416   .     S
C50    N119    1.475   .     D
C51    C63     1.416   .     S
C51    N118    1.475   .     S
C52    C64     1.416   .     D
C52    N117    1.475   .     S
C53    C57     1.416   .     S
C53    N116    1.475   .     D
C54    C58     1.416   .     S
C54    N115    1.475   .     D
C55    C59     1.416   .     D
C55    N114    1.475   .     S
C56    C60     1.416   .     S
C56    N113    1.475   .     S
C57    C69     1.426   .     D
C57    H97     1.080   .     S
C58    C70     1.426   .     D
C58    H98     1.080   .     S
C59    C71     1.426   .     S
C59    H99     1.080   .     S
C60    C72     1.426   .     D
C60    H100    1.080   .     S
C61    C65     1.426   .     D
C61    H101    1.080   .     S
C62    C66     1.426   .     D
C62    H102    1.080   .     S
C63    C67     1.426   .     D
C63    H103    1.080   .     S
C64    C68     1.426   .     S
C64    H104    1.080   .     S
C65    H109    1.076   .     S
C66    H110    1.076   .     S
C67    H111    1.076   .     S
C68    H112    1.076   .     S
C69    H105    1.076   .     S
C70    H106    1.076   .     S
C71    H107    1.076   .     S
C72    H108    1.076   .     S
N113   C216    1.317   .     D
N114   C215    1.317   .     D
N115   C214    1.317   .     S
N116   C213    1.317   .     S
N117   C212    1.317   .     D
N118   C211    1.317   .     D
N119   C210    1.317   .     S
N120   C209    1.317   .     S
S121   C129    1.755   .     S
S121   C221    1.743   .     S
S122   C130    1.755   .     S
S122   C222    1.743   .     S
S123   C131    1.755   .     S
S123   C223    1.743   .     S
S124   C132    1.755   .     S
S124   C224    1.743   .     S
S125   C133    1.755   .     S
S125   C217    1.743   .     S
S126   C134    1.755   .     S
S126   C218    1.743   .     S
S127   C135    1.755   .     S
S127   C219    1.743   .     S
S128   C136    1.755   .     S
S128   C220    1.743   .     S
C129   C137    1.383   .     S
C129   C153    1.536   .     D
C130   C138    1.383   .     S
C130   C154    1.536   .     D
C131   C139    1.383   .     D
C131   C155    1.536   .     S
C132   C140    1.383   .     D
C132   C156    1.536   .     S
C133   C141    1.383   .     S
C133   C157    1.536   .     D
C134   C142    1.383   .     S
C134   C158    1.536   .     D
C135   C143    1.383   .     D
C135   C159    1.536   .     S
C136   C144    1.383   .     D
C136   C160    1.536   .     S
C137   C145    1.384   .     D
C137   H202    1.083   .     S
C138   C146    1.384   .     D
C138   H201    1.083   .     S
C139   C147    1.384   .     S
C139   H204    1.083   .     S
C140   C148    1.384   .     S
C140   H203    1.083   .     S
C141   C149    1.384   .     D
C141   H206    1.083   .     S
C142   C150    1.384   .     D
C142   H205    1.083   .     S
C143   C151    1.384   .     S
C143   H208    1.083   .     S
C144   C152    1.384   .     S
C144   H207    1.083   .     S
C145   H193    1.082   .     S
C145   C221    1.386   .     S
C146   H194    1.082   .     S
C146   C222    1.386   .     S
C147   H195    1.082   .     S
C147   C223    1.386   .     D
C148   H196    1.082   .     S
C148   C224    1.386   .     D
C149   H197    1.082   .     S
C149   C217    1.386   .     S
C150   H198    1.082   .     S
C150   C218    1.386   .     S
C151   H199    1.082   .     S
C151   C219    1.386   .     D
C152   H200    1.082   .     S
C152   C220    1.386   .     D
C153   C161    1.381   .     S
C153   S185    1.755   .     S
C154   C162    1.381   .     S
C154   S186    1.755   .     S
C155   C163    1.381   .     D
C155   S187    1.755   .     S
C156   C164    1.381   .     D
C156   S188    1.755   .     S
C157   C165    1.381   .     S
C157   S189    1.755   .     S
C158   C166    1.381   .     S
C158   S190    1.755   .     S
C159   C167    1.381   .     D
C159   S191    1.755   .     S
C160   C168    1.381   .     D
C160   S192    1.755   .     S
C161   C169    1.369   .     D
C161   H319    1.082   1_455 S
C162   C170    1.369   .     D
C162   H321    1.082   1_545 S
C163   C171    1.369   .     S
C163   C241    1.455   .     S
C164   C172    1.369   .     S
C164   C242    1.455   .     S
C165   C173    1.369   .     D
C165   C243    1.455   .     S
C166   C174    1.369   .     D
C166   C244    1.455   .     S
C167   C175    1.369   .     S
C167   H317    1.082   1_445 S
C168   C176    1.369   .     S
C168   H323    1.082   .     S
C169   C177    1.393   .     S
C169   H320    1.082   1_455 S
C170   C178    1.393   .     S
C170   H322    1.082   1_545 S
C171   C179    1.393   .     D
C171   C233    1.462   .     S
C172   C180    1.393   .     D
C172   C234    1.462   .     S
C173   C181    1.393   .     S
C173   C235    1.462   .     S
C174   C182    1.393   .     S
C174   C236    1.462   .     S
C175   C183    1.393   .     D
C175   H318    1.082   1_445 S
C176   C184    1.393   .     D
C176   H324    1.082   .     S
C177   C182    1.547   .     D
C177   S185    1.758   .     S
C178   C181    1.547   .     D
C178   S186    1.758   .     S
C179   C184    1.547   .     S
C179   S187    1.758   .     S
C180   C183    1.547   .     S
C180   S188    1.758   .     S
C181   S189    1.758   .     S
C182   S190    1.758   .     S
C183   S191    1.758   .     S
C184   S192    1.758   .     S
C209   C217    1.529   .     D
C209   H225    1.081   .     S
C210   C218    1.529   .     D
C210   H226    1.081   .     S
C211   C219    1.529   .     S
C211   H227    1.081   .     S
C212   C220    1.529   .     S
C212   H228    1.081   .     S
C213   C221    1.529   .     D
C213   H229    1.081   .     S
C214   C222    1.529   .     D
C214   H230    1.081   .     S
C215   C223    1.529   .     S
C215   H231    1.081   .     S
C216   C224    1.529   .     S
C216   H232    1.081   .     S
C233   N237    1.366   .     S
C233   O245    1.213   .     D
C234   N238    1.366   .     S
C234   O246    1.213   .     D
C235   N239    1.366   .     S
C235   O247    1.213   .     D
C236   N240    1.366   .     S
C236   O248    1.213   .     D
N237   C241    1.363   .     S
N237   C253    1.467   .     S
N238   C242    1.363   .     S
N238   C254    1.467   .     S
N239   C243    1.363   .     S
N239   C255    1.467   .     S
N240   C244    1.363   .     S
N240   C256    1.467   .     S
C241   O249    1.213   .     D
C242   O250    1.213   .     D
C243   O251    1.213   .     D
C244   O252    1.213   .     D
C253   C257    1.523   .     S
C253   H269    1.107   .     S
C253   H273    1.115   .     S
C254   C258    1.523   .     S
C254   H270    1.107   .     S
C254   H274    1.115   .     S
C255   C259    1.523   .     S
C255   H271    1.107   .     S
C255   H275    1.115   .     S
C256   C260    1.523   .     S
C256   H272    1.107   .     S
C256   H276    1.115   .     S
C257   C261    1.534   .     S
C257   H277    1.098   .     S
C257   H281    1.114   .     S
C258   C262    1.534   .     S
C258   H278    1.098   .     S
C258   H282    1.114   .     S
C259   C263    1.534   .     S
C259   H279    1.098   .     S
C259   H283    1.114   .     S
C260   C264    1.534   .     S
C260   H280    1.098   .     S
C260   H284    1.114   .     S
C261   C265    1.534   .     S
C261   H285    1.116   .     S
C261   H289    1.107   .     S
C262   C266    1.534   .     S
C262   H286    1.116   .     S
C262   H290    1.107   .     S
C263   C267    1.534   .     S
C263   H287    1.116   .     S
C263   H291    1.107   .     S
C264   C268    1.534   .     S
C264   H288    1.116   .     S
C264   H292    1.107   .     S
C265   H293    1.110   .     S
C265   H297    1.110   .     S
C265   H301    1.111   .     S
C266   H294    1.110   .     S
C266   H298    1.110   .     S
C266   H302    1.111   .     S
C267   H295    1.110   .     S
C267   H299    1.110   .     S
C267   H303    1.111   .     S
C268   H296    1.110   .     S
C268   H300    1.110   .     S
C268   H304    1.111   .     S
C305   C6      1.438   1_545 S
C305   C311    1.462   .     S
C306   C20     1.419   1_545 D
C306   H307    1.083   .     S
C308   C314    1.462   1_455 S
C309   H310    1.083   .     S
C311   C8      1.438   1_545 S
C312   C18     1.419   1_545 S
C312   H313    1.083   .     S
C314   C308    1.462   1_655 S
C315   H316    1.083   .     S
H317   C167    1.082   1_665 S
H318   C175    1.082   1_665 S
H319   C161    1.082   1_655 S
H320   C169    1.082   1_655 S
H321   C162    1.082   1_565 S
H322   C170    1.082   1_565 S
