data_392
_audit_creation_date              2023-09-08
_audit_creation_method            'Materials Studio'
_symmetry_space_group_name_H-M    'P1'
_symmetry_Int_Tables_number       1
_symmetry_cell_setting            triclinic
loop_
_symmetry_equiv_pos_as_xyz
  x,y,z
_cell_length_a                    47.6000
_cell_length_b                    51.0000
_cell_length_c                    3.8400
_cell_angle_alpha                 90.0000
_cell_angle_beta                  72.0000
_cell_angle_gamma                 90.0000
loop_
_atom_site_label
_atom_site_type_symbol
_atom_site_fract_x
_atom_site_fract_y
_atom_site_fract_z
_atom_site_U_iso_or_equiv
_atom_site_adp_type
_atom_site_occupancy
C1     C     0.03029   0.47592   0.48919   0.00000  Uiso   1.00
C2     C     0.53029   0.97592   0.48919   0.00000  Uiso   1.00
C3     C     0.96971   0.47592   0.51081   0.00000  Uiso   1.00
C4     C     0.46971   0.97592   0.51081   0.00000  Uiso   1.00
C5     C     0.96971   0.52408   0.51081   0.00000  Uiso   1.00
C6     C     0.46971   0.02408   0.51081   0.00000  Uiso   1.00
C7     C     0.03029   0.52408   0.48919   0.00000  Uiso   1.00
C8     C     0.53029   0.02408   0.48919   0.00000  Uiso   1.00
C9     C     0.01468   0.54745   0.49227   0.00000  Uiso   1.00
C10    C     0.51468   0.04744   0.49227   0.00000  Uiso   1.00
C11    C     0.98532   0.54745   0.50773   0.00000  Uiso   1.00
C12    C     0.48532   0.04744   0.50773   0.00000  Uiso   1.00
C13    C     0.98532   0.45255   0.50773   0.00000  Uiso   1.00
C14    C     0.48532   0.95255   0.50773   0.00000  Uiso   1.00
C15    C     0.01468   0.45255   0.49227   0.00000  Uiso   1.00
C16    C     0.51468   0.95255   0.49227   0.00000  Uiso   1.00
C17    C     0.93941   0.47599   0.52715   0.00000  Uiso   1.00
C18    C     0.43941   0.97599   0.52715   0.00000  Uiso   1.00
C19    C     0.06059   0.47599   0.47285   0.00000  Uiso   1.00
C20    C     0.56059   0.97599   0.47285   0.00000  Uiso   1.00
C21    C     0.06059   0.52401   0.47285   0.00000  Uiso   1.00
C22    C     0.56059   0.02401   0.47285   0.00000  Uiso   1.00
C23    C     0.93941   0.52401   0.52715   0.00000  Uiso   1.00
C24    C     0.43941   0.02401   0.52715   0.00000  Uiso   1.00
C25    C     0.92108   0.45178   0.55808   0.00000  Uiso   1.00
C26    C     0.42108   0.95178   0.55808   0.00000  Uiso   1.00
C27    C     0.07892   0.45178   0.44192   0.00000  Uiso   1.00
C28    C     0.57892   0.95178   0.44192   0.00000  Uiso   1.00
C29    C     0.07892   0.54822   0.44192   0.00000  Uiso   1.00
C30    C     0.57892   0.04822   0.44192   0.00000  Uiso   1.00
C31    C     0.92108   0.54822   0.55808   0.00000  Uiso   1.00
C32    C     0.42108   0.04822   0.55808   0.00000  Uiso   1.00
C33    C     0.89265   0.45044   0.81581   0.00000  Uiso   1.00
C34    C     0.39265   0.95044   0.81581   0.00000  Uiso   1.00
C35    C     0.10735   0.45044   0.18419   0.00000  Uiso   1.00
C36    C     0.60735   0.95044   0.18419   0.00000  Uiso   1.00
C37    C     0.10735   0.54956   0.18419   0.00000  Uiso   1.00
C38    C     0.60735   0.04956   0.18419   0.00000  Uiso   1.00
C39    C     0.89265   0.54956   0.81581   0.00000  Uiso   1.00
C40    C     0.39265   0.04956   0.81581   0.00000  Uiso   1.00
C41    C     0.87548   0.42772   0.84660   0.00000  Uiso   1.00
C42    C     0.37548   0.92772   0.84660   0.00000  Uiso   1.00
C43    C     0.12452   0.42772   0.15340   0.00000  Uiso   1.00
C44    C     0.62452   0.92772   0.15340   0.00000  Uiso   1.00
C45    C     0.12452   0.57228   0.15340   0.00000  Uiso   1.00
C46    C     0.62452   0.07228   0.15340   0.00000  Uiso   1.00
C47    C     0.87548   0.57228   0.84660   0.00000  Uiso   1.00
C48    C     0.37548   0.07228   0.84660   0.00000  Uiso   1.00
C49    C     0.11329   0.59413   0.37082   0.00000  Uiso   1.00
C50    C     0.61329   0.09413   0.37082   0.00000  Uiso   1.00
C51    C     0.88671   0.59413   0.62918   0.00000  Uiso   1.00
C52    C     0.38671   0.09413   0.62918   0.00000  Uiso   1.00
C53    C     0.88671   0.40587   0.62918   0.00000  Uiso   1.00
C54    C     0.38671   0.90587   0.62918   0.00000  Uiso   1.00
C55    C     0.11329   0.40587   0.37082   0.00000  Uiso   1.00
C56    C     0.61329   0.90587   0.37082   0.00000  Uiso   1.00
C57    C     0.91449   0.40744   0.36351   0.00000  Uiso   1.00
C58    C     0.41449   0.90744   0.36351   0.00000  Uiso   1.00
C59    C     0.08551   0.40744   0.63649   0.00000  Uiso   1.00
C60    C     0.58551   0.90744   0.63649   0.00000  Uiso   1.00
C61    C     0.08551   0.59256   0.63649   0.00000  Uiso   1.00
C62    C     0.58551   0.09256   0.63649   0.00000  Uiso   1.00
C63    C     0.91449   0.59256   0.36351   0.00000  Uiso   1.00
C64    C     0.41449   0.09256   0.36351   0.00000  Uiso   1.00
C65    C     0.93106   0.43034   0.32420   0.00000  Uiso   1.00
C66    C     0.43106   0.93034   0.32420   0.00000  Uiso   1.00
C67    C     0.06894   0.43034   0.67580   0.00000  Uiso   1.00
C68    C     0.56894   0.93034   0.67580   0.00000  Uiso   1.00
C69    C     0.06894   0.56966   0.67580   0.00000  Uiso   1.00
C70    C     0.56894   0.06966   0.67580   0.00000  Uiso   1.00
C71    C     0.93106   0.56966   0.32420   0.00000  Uiso   1.00
C72    C     0.43106   0.06966   0.32420   0.00000  Uiso   1.00
H73    H     0.02462   0.56646   0.47914   0.00000  Uiso   1.00
H74    H     0.52462   0.06646   0.47914   0.00000  Uiso   1.00
H75    H     0.97538   0.56646   0.52086   0.00000  Uiso   1.00
H76    H     0.47538   0.06646   0.52086   0.00000  Uiso   1.00
H77    H     0.97538   0.43354   0.52086   0.00000  Uiso   1.00
H78    H     0.47538   0.93354   0.52086   0.00000  Uiso   1.00
H79    H     0.02462   0.43354   0.47914   0.00000  Uiso   1.00
H80    H     0.52462   0.93354   0.47914   0.00000  Uiso   1.00
H81    H     0.11592   0.53333   0.00012   0.00000  Uiso   1.00
H82    H     0.61592   0.03333   0.00012   0.00000  Uiso   1.00
H83    H     0.88408   0.53333   0.99988   0.00000  Uiso   1.00
H84    H     0.38408   0.03333   0.99988   0.00000  Uiso   1.00
H85    H     0.88408   0.46667   0.99988   0.00000  Uiso   1.00
H86    H     0.38408   0.96667   0.99988   0.00000  Uiso   1.00
H87    H     0.11592   0.46667   0.00012   0.00000  Uiso   1.00
H88    H     0.61592   0.96667   0.00012   0.00000  Uiso   1.00
H89    H     0.14619   0.57343  -0.04821   0.00000  Uiso   1.00
H90    H     0.64619   0.07343  -0.04821   0.00000  Uiso   1.00
H91    H     0.85381   0.57343   1.04821   0.00000  Uiso   1.00
H92    H     0.35381   0.07343   1.04821   0.00000  Uiso   1.00
H93    H     0.85381   0.42657   1.04821   0.00000  Uiso   1.00
H94    H     0.35381   0.92657   1.04821   0.00000  Uiso   1.00
H95    H     0.14619   0.42657  -0.04821   0.00000  Uiso   1.00
H96    H     0.64619   0.92657  -0.04821   0.00000  Uiso   1.00
H97    H     0.92283   0.39136   0.17657   0.00000  Uiso   1.00
H98    H     0.42283   0.89136   0.17657   0.00000  Uiso   1.00
H99    H     0.07717   0.39136   0.82343   0.00000  Uiso   1.00
H100   H     0.57717   0.89136   0.82343   0.00000  Uiso   1.00
H101   H     0.07717   0.60864   0.82343   0.00000  Uiso   1.00
H102   H     0.57717   0.10864   0.82343   0.00000  Uiso   1.00
H103   H     0.92283   0.60864   0.17657   0.00000  Uiso   1.00
H104   H     0.42283   0.10864   0.17657   0.00000  Uiso   1.00
H105   H     0.95183   0.43122   0.11119   0.00000  Uiso   1.00
H106   H     0.45183   0.93122   0.11119   0.00000  Uiso   1.00
H107   H     0.04817   0.43122   0.88881   0.00000  Uiso   1.00
H108   H     0.54817   0.93122   0.88881   0.00000  Uiso   1.00
H109   H     0.04817   0.56878   0.88881   0.00000  Uiso   1.00
H110   H     0.54817   0.06878   0.88881   0.00000  Uiso   1.00
H111   H     0.95183   0.56878   0.11119   0.00000  Uiso   1.00
H112   H     0.45183   0.06878   0.11119   0.00000  Uiso   1.00
N113   N     0.63102   0.88278   0.33197   0.00000  Uiso   1.00
N114   N     0.13102   0.38278   0.33197   0.00000  Uiso   1.00
N115   N     0.36898   0.88278   0.66803   0.00000  Uiso   1.00
N116   N     0.86898   0.38278   0.66803   0.00000  Uiso   1.00
N117   N     0.36898   0.11722   0.66803   0.00000  Uiso   1.00
N118   N     0.86898   0.61722   0.66803   0.00000  Uiso   1.00
N119   N     0.63102   0.11722   0.33197   0.00000  Uiso   1.00
N120   N     0.13102   0.61722   0.33197   0.00000  Uiso   1.00
S121   S     0.17644   0.66005   0.33489   0.00000  Uiso   1.00
S122   S     0.67644   0.16005   0.33489   0.00000  Uiso   1.00
S123   S     0.82356   0.66005   0.66511   0.00000  Uiso   1.00
S124   S     0.32356   0.16005   0.66511   0.00000  Uiso   1.00
S125   S     0.82356   0.33995   0.66511   0.00000  Uiso   1.00
S126   S     0.32356   0.83995   0.66511   0.00000  Uiso   1.00
S127   S     0.17644   0.33995   0.33489   0.00000  Uiso   1.00
S128   S     0.67644   0.83995   0.33489   0.00000  Uiso   1.00
C129   C     0.17808   0.69330   0.38354   0.00000  Uiso   1.00
C130   C     0.67808   0.19330   0.38354   0.00000  Uiso   1.00
C131   C     0.82192   0.69330   0.61646   0.00000  Uiso   1.00
C132   C     0.32192   0.19330   0.61646   0.00000  Uiso   1.00
C133   C     0.82192   0.30670   0.61646   0.00000  Uiso   1.00
C134   C     0.32192   0.80670   0.61646   0.00000  Uiso   1.00
C135   C     0.17808   0.30670   0.38354   0.00000  Uiso   1.00
C136   C     0.67808   0.80670   0.38354   0.00000  Uiso   1.00
C137   C     0.20495   0.70741   0.38886   0.00000  Uiso   1.00
C138   C     0.70495   0.20741   0.38886   0.00000  Uiso   1.00
C139   C     0.79505   0.70741   0.61114   0.00000  Uiso   1.00
C140   C     0.29505   0.20741   0.61114   0.00000  Uiso   1.00
C141   C     0.79505   0.29259   0.61114   0.00000  Uiso   1.00
C142   C     0.29505   0.79259   0.61114   0.00000  Uiso   1.00
C143   C     0.20495   0.29259   0.38886   0.00000  Uiso   1.00
C144   C     0.70495   0.79259   0.38886   0.00000  Uiso   1.00
C145   C     0.23351   0.69908   0.22679   0.00000  Uiso   1.00
C146   C     0.73351   0.19908   0.22679   0.00000  Uiso   1.00
C147   C     0.76649   0.69908   0.77321   0.00000  Uiso   1.00
C148   C     0.26649   0.19908   0.77321   0.00000  Uiso   1.00
C149   C     0.76649   0.30093   0.77321   0.00000  Uiso   1.00
C150   C     0.26649   0.80093   0.77321   0.00000  Uiso   1.00
C151   C     0.23351   0.30093   0.22679   0.00000  Uiso   1.00
C152   C     0.73351   0.80093   0.22679   0.00000  Uiso   1.00
C153   C     0.25383   0.71667   0.25364   0.00000  Uiso   1.00
C154   C     0.75383   0.21667   0.25364   0.00000  Uiso   1.00
C155   C     0.74617   0.71667   0.74636   0.00000  Uiso   1.00
C156   C     0.24617   0.21667   0.74636   0.00000  Uiso   1.00
C157   C     0.74617   0.28333   0.74636   0.00000  Uiso   1.00
C158   C     0.24617   0.78334   0.74636   0.00000  Uiso   1.00
C159   C     0.25383   0.28333   0.25364   0.00000  Uiso   1.00
C160   C     0.75383   0.78334   0.25364   0.00000  Uiso   1.00
C161   C     0.24163   0.73885   0.45465   0.00000  Uiso   1.00
C162   C     0.74163   0.23885   0.45465   0.00000  Uiso   1.00
C163   C     0.75837   0.73885   0.54534   0.00000  Uiso   1.00
C164   C     0.25837   0.23885   0.54535   0.00000  Uiso   1.00
C165   C     0.75837   0.26115   0.54534   0.00000  Uiso   1.00
C166   C     0.25837   0.76116   0.54535   0.00000  Uiso   1.00
C167   C     0.24163   0.26115   0.45465   0.00000  Uiso   1.00
C168   C     0.74163   0.76116   0.45465   0.00000  Uiso   1.00
S169   S     0.20359   0.73774   0.58860   0.00000  Uiso   1.00
S170   S     0.70359   0.23774   0.58860   0.00000  Uiso   1.00
S171   S     0.79641   0.73774   0.41140   0.00000  Uiso   1.00
S172   S     0.29641   0.23774   0.41140   0.00000  Uiso   1.00
S173   S     0.79641   0.26226   0.41140   0.00000  Uiso   1.00
S174   S     0.29641   0.76226   0.41140   0.00000  Uiso   1.00
S175   S     0.20359   0.26226   0.58860   0.00000  Uiso   1.00
S176   S     0.70359   0.76226   0.58860   0.00000  Uiso   1.00
C177   C     0.18834   0.17519   1.38279   0.00000  Uiso   1.00
C178   C     0.68834   0.67519   1.38279   0.00000  Uiso   1.00
C179   C     0.81166   0.17519  -0.38279   0.00000  Uiso   1.00
C180   C     0.31166   0.67519  -0.38279   0.00000  Uiso   1.00
O181   O     0.16380   0.19180   1.52714   0.00000  Uiso   1.00
O182   O     0.66380   0.69180   1.52714   0.00000  Uiso   1.00
O183   O     0.83620   0.19180  -0.52714   0.00000  Uiso   1.00
O184   O     0.33620   0.69180  -0.52714   0.00000  Uiso   1.00
O185   O     0.18745   0.15236   1.48031   0.00000  Uiso   1.00
O186   O     0.68745   0.65236   1.48031   0.00000  Uiso   1.00
O187   O     0.81255   0.15236  -0.48031   0.00000  Uiso   1.00
O188   O     0.31255   0.65236  -0.48031   0.00000  Uiso   1.00
C189   C     0.13920   0.18053   1.79918   0.00000  Uiso   1.00
C190   C     0.63920   0.68053   1.79918   0.00000  Uiso   1.00
C191   C     0.86080   0.18053  -0.79918   0.00000  Uiso   1.00
C192   C     0.36080   0.68053  -0.79918   0.00000  Uiso   1.00
C193   C     0.11876   0.20280   1.97740   0.00000  Uiso   1.00
C194   C     0.61876   0.70280   1.97740   0.00000  Uiso   1.00
C195   C     0.88124   0.20280  -0.97740   0.00000  Uiso   1.00
C196   C     0.38124   0.70280  -0.97740   0.00000  Uiso   1.00
H197   H     0.14642   0.16992   2.01135   0.00000  Uiso   1.00
H198   H     0.64642   0.66992   2.01135   0.00000  Uiso   1.00
H199   H     0.85358   0.16992  -1.01135   0.00000  Uiso   1.00
H200   H     0.35358   0.66992  -1.01135   0.00000  Uiso   1.00
H201   H     0.12757   0.16616   1.67354   0.00000  Uiso   1.00
H202   H     0.62757   0.66616   1.67354   0.00000  Uiso   1.00
H203   H     0.87243   0.16616  -0.67353   0.00000  Uiso   1.00
H204   H     0.37243   0.66616  -0.67354   0.00000  Uiso   1.00
H205   H     0.09950   0.19520   2.19841   0.00000  Uiso   1.00
H206   H     0.59950   0.69520   2.19842   0.00000  Uiso   1.00
H207   H     0.90051   0.19520  -1.19842   0.00000  Uiso   1.00
H208   H     0.40050   0.69520  -1.19842   0.00000  Uiso   1.00
H209   H     0.11108   0.21319   1.77029   0.00000  Uiso   1.00
H210   H     0.61108   0.71319   1.77029   0.00000  Uiso   1.00
H211   H     0.88892   0.21319  -0.77029   0.00000  Uiso   1.00
H212   H     0.38892   0.71319  -0.77029   0.00000  Uiso   1.00
H213   H     0.13132   0.21690   2.09338   0.00000  Uiso   1.00
H214   H     0.63132   0.71690   2.09338   0.00000  Uiso   1.00
H215   H     0.86868   0.21690  -1.09338   0.00000  Uiso   1.00
H216   H     0.36868   0.71690  -1.09338   0.00000  Uiso   1.00
H217   H     0.19661   0.22081   0.99904   0.00000  Uiso   1.00
H218   H     0.69661   0.72081   0.99904   0.00000  Uiso   1.00
H219   H     0.80339   0.22081   0.00096   0.00000  Uiso   1.00
H220   H     0.30339   0.72081   0.00096   0.00000  Uiso   1.00
C221   C     0.87970   0.35922   0.60685   0.00000  Uiso   1.00
C222   C     0.37970   0.85922   0.60685   0.00000  Uiso   1.00
C223   C     0.12030   0.35922   0.39315   0.00000  Uiso   1.00
C224   C     0.62030   0.85922   0.39315   0.00000  Uiso   1.00
C225   C     0.12030   0.64078   0.39315   0.00000  Uiso   1.00
C226   C     0.62030   0.14078   0.39315   0.00000  Uiso   1.00
C227   C     0.87970   0.64078   0.60685   0.00000  Uiso   1.00
C228   C     0.37970   0.14078   0.60685   0.00000  Uiso   1.00
C229   C     0.86029   0.33678   0.61784   0.00000  Uiso   1.00
C230   C     0.36029   0.83678   0.61784   0.00000  Uiso   1.00
C231   C     0.13971   0.33678   0.38216   0.00000  Uiso   1.00
C232   C     0.63971   0.83678   0.38216   0.00000  Uiso   1.00
C233   C     0.13971   0.66322   0.38216   0.00000  Uiso   1.00
C234   C     0.63971   0.16322   0.38216   0.00000  Uiso   1.00
C235   C     0.86029   0.66322   0.61784   0.00000  Uiso   1.00
C236   C     0.36029   0.16322   0.61784   0.00000  Uiso   1.00
C237   C     0.84861   0.29415   0.56597   0.00000  Uiso   1.00
C238   C     0.34861   0.79415   0.56598   0.00000  Uiso   1.00
C239   C     0.15139   0.29415   0.43402   0.00000  Uiso   1.00
C240   C     0.65139   0.79415   0.43403   0.00000  Uiso   1.00
C241   C     0.15139   0.70585   0.43402   0.00000  Uiso   1.00
C242   C     0.65139   0.20585   0.43403   0.00000  Uiso   1.00
C243   C     0.84861   0.70585   0.56597   0.00000  Uiso   1.00
C244   C     0.34861   0.20585   0.56598   0.00000  Uiso   1.00
C245   C     0.87061   0.31139   0.56703   0.00000  Uiso   1.00
C246   C     0.37061   0.81139   0.56703   0.00000  Uiso   1.00
C247   C     0.12940   0.31139   0.43297   0.00000  Uiso   1.00
C248   C     0.62940   0.81139   0.43297   0.00000  Uiso   1.00
C249   C     0.12940   0.68861   0.43297   0.00000  Uiso   1.00
C250   C     0.62940   0.18861   0.43297   0.00000  Uiso   1.00
C251   C     0.87061   0.68861   0.56703   0.00000  Uiso   1.00
C252   C     0.37061   0.18861   0.56703   0.00000  Uiso   1.00
H253   H     0.90321   0.35575   0.54188   0.00000  Uiso   1.00
H254   H     0.40321   0.85575   0.54188   0.00000  Uiso   1.00
H255   H     0.09679   0.35575   0.45812   0.00000  Uiso   1.00
H256   H     0.59679   0.85575   0.45812   0.00000  Uiso   1.00
H257   H     0.09679   0.64425   0.45812   0.00000  Uiso   1.00
H258   H     0.59679   0.14425   0.45812   0.00000  Uiso   1.00
H259   H     0.90321   0.64425   0.54188   0.00000  Uiso   1.00
H260   H     0.40321   0.14425   0.54188   0.00000  Uiso   1.00
H261   H     0.89326   0.30572   0.52897   0.00000  Uiso   1.00
H262   H     0.39326   0.80572   0.52897   0.00000  Uiso   1.00
H263   H     0.10674   0.30572   0.47103   0.00000  Uiso   1.00
H264   H     0.60674   0.80572   0.47103   0.00000  Uiso   1.00
H265   H     0.10674   0.69428   0.47103   0.00000  Uiso   1.00
H266   H     0.60674   0.19428   0.47103   0.00000  Uiso   1.00
H267   H     0.89326   0.69428   0.52897   0.00000  Uiso   1.00
H268   H     0.39326   0.19428   0.52897   0.00000  Uiso   1.00
H269   H     0.35177   0.77318   0.52982   0.00000  Uiso   1.00
H270   H     0.85177   0.27318   0.52982   0.00000  Uiso   1.00
H271   H     0.64823   0.77318   0.47018   0.00000  Uiso   1.00
H272   H     0.14823   0.27318   0.47018   0.00000  Uiso   1.00
H273   H     0.64823   0.22682   0.47018   0.00000  Uiso   1.00
H274   H     0.14823   0.72682   0.47018   0.00000  Uiso   1.00
H275   H     0.35177   0.22682   0.52982   0.00000  Uiso   1.00
H276   H     0.85177   0.72682   0.52982   0.00000  Uiso   1.00
C277   C     0.28374   0.70908   0.04146   0.00000  Uiso   1.00
C278   C     0.78374   0.20908   0.04146   0.00000  Uiso   1.00
C279   C     0.71626   0.70908   0.95854   0.00000  Uiso   1.00
C280   C     0.21626   0.20908   0.95854   0.00000  Uiso   1.00
C281   C     0.28435   0.68599  -0.12434   0.00000  Uiso   1.00
C282   C     0.78435   0.18599  -0.12434   0.00000  Uiso   1.00
C283   C     0.71565   0.68599   1.12434   0.00000  Uiso   1.00
C284   C     0.21565   0.18599   1.12434   0.00000  Uiso   1.00
S285   S     0.24835   0.67045  -0.04068   0.00000  Uiso   1.00
S286   S     0.74835   0.17045  -0.04068   0.00000  Uiso   1.00
S287   S     0.75165   0.67045   1.04068   0.00000  Uiso   1.00
S288   S     0.25165   0.17045   1.04068   0.00000  Uiso   1.00
C289   C     0.57476   0.00000   0.47309   0.00000  Uiso   1.00
H290   H     0.59750   0.00000   0.47429   0.00000  Uiso   1.00
C291   C     0.51515   0.00000   0.49617   0.00000  Uiso   1.00
C292   C     0.07476   0.50000   0.47309   0.00000  Uiso   1.00
H293   H     0.09750   0.50000   0.47430   0.00000  Uiso   1.00
C294   C     0.01515   0.50000   0.49617   0.00000  Uiso   1.00
C295   C     0.42524   0.00000   0.52691   0.00000  Uiso   1.00
H296   H     0.40250   0.00000   0.52571   0.00000  Uiso   1.00
C297   C     0.48485   0.00000   0.50383   0.00000  Uiso   1.00
C298   C     0.92524   0.50000   0.52691   0.00000  Uiso   1.00
H299   H     0.90250   0.50000   0.52570   0.00000  Uiso   1.00
C300   C     0.98485   0.50000   0.50383   0.00000  Uiso   1.00
H301   H     0.76211   1.32095   0.91133   0.00000  Uiso   1.00
H302   H     0.72167   1.28745   0.88193   0.00000  Uiso   1.00
H303   H     1.23788   1.32095   0.08867   0.00000  Uiso   1.00
H304   H     1.27833   1.28745   0.11807   0.00000  Uiso   1.00
H305   H     0.73788   0.82095   0.08867   0.00000  Uiso   1.00
H306   H     0.77833   0.78745   0.11807   0.00000  Uiso   1.00
H307   H     1.26211   0.82095   0.91133   0.00000  Uiso   1.00
H308   H     1.22167   0.78745   0.88193   0.00000  Uiso   1.00
loop_
_geom_bond_atom_site_label_1
_geom_bond_atom_site_label_2
_geom_bond_distance
_geom_bond_site_symmetry_2
_ccdc_geom_bond_type
C1     C15     1.402   .     S
C1     C19     1.424   .     S
C1     C294    1.420   .     D
C2     C16     1.402   .     D
C2     C20     1.424   .     S
C2     C291    1.420   1_565 S
C3     C13     1.402   .     S
C3     C17     1.424   .     S
C3     C300    1.420   .     D
C4     C14     1.402   .     D
C4     C18     1.424   .     S
C4     C297    1.420   1_565 S
C5     C11     1.402   .     D
C5     C23     1.424   .     S
C5     C300    1.420   .     S
C6     C12     1.402   .     D
C6     C24     1.424   .     S
C6     C297    1.420   .     S
C7     C9      1.402   .     D
C7     C21     1.424   .     S
C7     C294    1.420   .     S
C8     C10     1.402   .     D
C8     C22     1.424   .     S
C8     C291    1.420   .     S
C9     C11     1.381   1_455 S
C9     H73     1.073   .     S
C10    C12     1.381   .     S
C10    H74     1.073   .     S
C11    C9      1.381   1_655 S
C11    H75     1.073   .     S
C12    H76     1.073   .     S
C13    C15     1.381   1_655 D
C13    H77     1.073   .     S
C14    C16     1.381   .     S
C14    H78     1.073   .     S
C15    C13     1.381   1_455 D
C15    H79     1.073   .     S
C16    H80     1.073   .     S
C17    C25     1.495   .     D
C17    C298    1.398   .     S
C18    C26     1.495   .     S
C18    C295    1.398   1_565 D
C19    C27     1.495   .     D
C19    C292    1.398   .     S
C20    C28     1.495   .     S
C20    C289    1.398   1_565 D
C21    C29     1.495   .     S
C21    C292    1.398   .     D
C22    C30     1.495   .     D
C22    C289    1.398   .     S
C23    C31     1.495   .     S
C23    C298    1.398   .     D
C24    C32     1.495   .     D
C24    C295    1.398   .     S
C25    C33     1.410   .     S
C25    C65     1.401   .     S
C26    C34     1.410   .     S
C26    C66     1.401   .     D
C27    C35     1.410   .     S
C27    C67     1.401   .     S
C28    C36     1.410   .     S
C28    C68     1.401   .     D
C29    C37     1.410   .     S
C29    C69     1.401   .     D
C30    C38     1.410   .     S
C30    C70     1.401   .     S
C31    C39     1.410   .     S
C31    C71     1.401   .     D
C32    C40     1.410   .     S
C32    C72     1.401   .     S
C33    C41     1.402   .     D
C33    H85     1.083   .     S
C34    C42     1.402   .     D
C34    H86     1.083   .     S
C35    C43     1.402   .     D
C35    H87     1.083   .     S
C36    C44     1.402   .     D
C36    H88     1.083   .     S
C37    C45     1.402   .     D
C37    H81     1.083   .     S
C38    C46     1.402   .     D
C38    H82     1.083   .     S
C39    C47     1.402   .     D
C39    H83     1.083   .     S
C40    C48     1.402   .     D
C40    H84     1.083   .     S
C41    C53     1.396   .     S
C41    H93     1.083   .     S
C42    C54     1.396   .     S
C42    H94     1.083   .     S
C43    C55     1.396   .     S
C43    H95     1.083   .     S
C44    C56     1.396   .     S
C44    H96     1.083   .     S
C45    C49     1.396   .     S
C45    H89     1.083   .     S
C46    C50     1.396   .     S
C46    H90     1.083   .     S
C47    C51     1.396   .     S
C47    H91     1.083   .     S
C48    C52     1.396   .     S
C48    H92     1.083   .     S
C49    C61     1.401   .     D
C49    N120    1.429   .     S
C50    C62     1.401   .     S
C50    N119    1.429   .     D
C51    C63     1.401   .     D
C51    N118    1.429   .     S
C52    C64     1.401   .     S
C52    N117    1.429   .     D
C53    C57     1.401   .     S
C53    N116    1.429   .     D
C54    C58     1.401   .     D
C54    N115    1.429   .     S
C55    C59     1.401   .     S
C55    N114    1.429   .     D
C56    C60     1.401   .     D
C56    N113    1.429   .     S
C57    C65     1.391   .     D
C57    H97     1.081   .     S
C58    C66     1.391   .     S
C58    H98     1.081   .     S
C59    C67     1.391   .     D
C59    H99     1.081   .     S
C60    C68     1.391   .     S
C60    H100    1.081   .     S
C61    C69     1.391   .     S
C61    H101    1.081   .     S
C62    C70     1.391   .     D
C62    H102    1.081   .     S
C63    C71     1.391   .     S
C63    H103    1.081   .     S
C64    C72     1.391   .     D
C64    H104    1.081   .     S
C65    H105    1.072   .     S
C66    H106    1.072   .     S
C67    H107    1.072   .     S
C68    H108    1.072   .     S
C69    H109    1.072   .     S
C70    H110    1.072   .     S
C71    H111    1.072   .     S
C72    H112    1.072   .     S
N113   C224    1.298   .     D
N114   C223    1.298   .     S
N115   C222    1.298   .     D
N116   C221    1.298   .     S
N117   C228    1.298   .     S
N118   C227    1.298   .     D
N119   C226    1.298   .     S
N120   C225    1.298   .     D
S121   C129    1.711   .     S
S121   C233    1.709   .     S
S122   C130    1.711   .     S
S122   C234    1.709   .     S
S123   C131    1.711   .     S
S123   C235    1.709   .     S
S124   C132    1.711   .     S
S124   C236    1.709   .     S
S125   C133    1.711   .     S
S125   C229    1.709   .     S
S126   C134    1.711   .     S
S126   C230    1.709   .     S
S127   C135    1.711   .     S
S127   C231    1.709   .     S
S128   C136    1.711   .     S
S128   C232    1.709   .     S
C129   C137    1.473   .     S
C129   C241    1.382   .     D
C130   C138    1.473   .     D
C130   C242    1.382   .     S
C131   C139    1.473   .     S
C131   C243    1.382   .     D
C132   C140    1.473   .     D
C132   C244    1.382   .     S
C133   C141    1.473   .     D
C133   C237    1.382   .     S
C134   C142    1.473   .     S
C134   C238    1.382   .     D
C135   C143    1.473   .     D
C135   C239    1.382   .     S
C136   C144    1.473   .     S
C136   C240    1.382   .     D
C137   C145    1.376   .     D
C137   S169    1.719   .     S
C138   C146    1.376   .     S
C138   S170    1.719   .     S
C139   C147    1.376   .     D
C139   S171    1.719   .     S
C140   C148    1.376   .     S
C140   S172    1.719   .     S
C141   C149    1.376   .     S
C141   S173    1.719   .     S
C142   C150    1.376   .     D
C142   S174    1.719   .     S
C143   C151    1.376   .     S
C143   S175    1.719   .     S
C144   C152    1.376   .     D
C144   S176    1.719   .     S
C145   C153    1.346   .     S
C145   S285    1.799   .     S
C146   C154    1.346   .     D
C146   S286    1.799   .     S
C147   C155    1.346   .     S
C147   S287    1.799   .     S
C148   C156    1.346   .     D
C148   S288    1.799   .     S
C149   C157    1.346   .     D
C149   H301    1.140   1_545 S
C150   C158    1.346   .     S
C150   H307    1.140   1_455 S
C151   C159    1.346   .     D
C151   H303    1.140   1_445 S
C152   C160    1.346   .     S
C152   H305    1.140   .     S
C153   C161    1.391   .     D
C153   C277    1.457   .     S
C154   C162    1.391   .     S
C154   C278    1.457   .     S
C155   C163    1.391   .     D
C155   C279    1.457   .     S
C156   C164    1.391   .     S
C156   C280    1.457   .     S
C157   C165    1.391   .     S
C157   H302    1.140   1_545 S
C158   C166    1.391   .     D
C158   H308    1.140   1_455 S
C159   C167    1.391   .     S
C159   H304    1.140   1_445 S
C160   C168    1.391   .     D
C160   H306    1.140   .     S
C161   C166    1.491   .     S
C161   S169    1.724   .     S
C162   C165    1.491   .     D
C162   S170    1.724   .     S
C163   C168    1.491   .     S
C163   S171    1.724   .     S
C164   C167    1.491   .     D
C164   S172    1.724   .     S
C165   S173    1.724   .     S
C166   S174    1.724   .     S
C167   S175    1.724   .     S
C168   S176    1.724   .     S
C177   O181    1.410   .     S
C177   O185    1.220   .     D
C177   C284    1.477   .     S
C178   O182    1.410   .     S
C178   O186    1.220   .     D
C178   C283    1.477   .     S
C179   O183    1.410   .     S
C179   O187    1.220   .     D
C179   C282    1.477   .     S
C180   O184    1.410   .     S
C180   O188    1.220   .     D
C180   C281    1.477   .     S
O181   C189    1.427   .     S
O182   C190    1.427   .     S
O183   C191    1.427   .     S
O184   C192    1.427   .     S
C189   C193    1.514   .     S
C189   H197    1.117   .     S
C189   H201    1.115   .     S
C190   C194    1.514   .     S
C190   H198    1.117   .     S
C190   H202    1.115   .     S
C191   C195    1.514   .     S
C191   H199    1.117   .     S
C191   H203    1.115   .     S
C192   C196    1.514   .     S
C192   H200    1.117   .     S
C192   H204    1.115   .     S
C193   H205    1.109   .     S
C193   H209    1.108   .     S
C193   H213    1.112   .     S
C194   H206    1.109   .     S
C194   H210    1.108   .     S
C194   H214    1.112   .     S
C195   H207    1.109   .     S
C195   H211    1.108   .     S
C195   H215    1.112   .     S
C196   H208    1.109   .     S
C196   H212    1.108   .     S
C196   H216    1.112   .     S
H217   C280    1.080   .     S
H218   C279    1.080   .     S
H219   C278    1.080   .     S
H220   C277    1.080   .     S
C221   C229    1.463   .     D
C221   H253    1.083   .     S
C222   C230    1.463   .     S
C222   H254    1.083   .     S
C223   C231    1.463   .     D
C223   H255    1.083   .     S
C224   C232    1.463   .     S
C224   H256    1.083   .     S
C225   C233    1.463   .     S
C225   H257    1.083   .     S
C226   C234    1.463   .     D
C226   H258    1.083   .     S
C227   C235    1.463   .     S
C227   H259    1.083   .     S
C228   C236    1.463   .     D
C228   H260    1.083   .     S
C229   C245    1.377   .     S
C230   C246    1.377   .     D
C231   C247    1.377   .     S
C232   C248    1.377   .     D
C233   C249    1.377   .     D
C234   C250    1.377   .     S
C235   C251    1.377   .     D
C236   C252    1.377   .     S
C237   C245    1.368   .     D
C237   H270    1.083   .     S
C238   C246    1.368   .     S
C238   H269    1.083   .     S
C239   C247    1.368   .     D
C239   H272    1.083   .     S
C240   C248    1.368   .     S
C240   H271    1.083   .     S
C241   C249    1.368   .     S
C241   H274    1.083   .     S
C242   C250    1.368   .     D
C242   H273    1.083   .     S
C243   C251    1.368   .     S
C243   H276    1.083   .     S
C244   C252    1.368   .     D
C244   H275    1.083   .     S
C245   H261    1.082   .     S
C246   H262    1.082   .     S
C247   H263    1.082   .     S
C248   H264    1.082   .     S
C249   H265    1.082   .     S
C250   H266    1.082   .     S
C251   H267    1.082   .     S
C252   H268    1.082   .     S
C277   C281    1.335   .     D
C278   C282    1.335   .     D
C279   C283    1.335   .     D
C280   C284    1.335   .     D
C281   S285    1.824   .     S
C282   S286    1.824   .     S
C283   S287    1.824   .     S
C284   S288    1.824   .     S
C289   C20     1.398   1_545 D
C289   H290    1.084   .     S
C291   C2      1.420   1_545 S
C291   C297    1.433   .     D
C292   H293    1.084   .     S
C294   C300    1.433   1_455 S
C295   C18     1.398   1_545 D
C295   H296    1.084   .     S
C297   C4      1.420   1_545 S
C298   H299    1.084   .     S
C300   C294    1.433   1_655 S
H301   C149    1.140   1_565 S
H302   C157    1.140   1_565 S
H303   C151    1.140   1_665 S
H304   C159    1.140   1_665 S
H307   C150    1.140   1_655 S
H308   C158    1.140   1_655 S
