data_393
_audit_creation_date              2023-09-08
_audit_creation_method            'Materials Studio'
_symmetry_space_group_name_H-M    'P1'
_symmetry_Int_Tables_number       1
_symmetry_cell_setting            triclinic
loop_
_symmetry_equiv_pos_as_xyz
  x,y,z
_cell_length_a                    45.9000
_cell_length_b                    50.1000
_cell_length_c                    3.8800
_cell_angle_alpha                 90.0000
_cell_angle_beta                  75.0000
_cell_angle_gamma                 90.0000
loop_
_atom_site_label
_atom_site_type_symbol
_atom_site_fract_x
_atom_site_fract_y
_atom_site_fract_z
_atom_site_U_iso_or_equiv
_atom_site_adp_type
_atom_site_occupancy
C1     C     0.97025   0.47553   0.45247   0.00000  Uiso   1.00
C2     C     0.47024   0.97553   0.45247   0.00000  Uiso   1.00
C3     C     0.02976   0.47553   0.54753   0.00000  Uiso   1.00
C4     C     0.52976   0.97553   0.54753   0.00000  Uiso   1.00
C5     C     0.02976   0.52447   0.54753   0.00000  Uiso   1.00
C6     C     0.52976   0.02447   0.54753   0.00000  Uiso   1.00
C7     C     0.97025   0.52447   0.45247   0.00000  Uiso   1.00
C8     C     0.47024   0.02447   0.45247   0.00000  Uiso   1.00
C9     C     0.01443   0.45171   0.52226   0.00000  Uiso   1.00
C10    C     0.51443   0.95171   0.52226   0.00000  Uiso   1.00
C11    C     0.98557   0.45171   0.47774   0.00000  Uiso   1.00
C12    C     0.48557   0.95171   0.47774   0.00000  Uiso   1.00
C13    C     0.98557   0.54829   0.47774   0.00000  Uiso   1.00
C14    C     0.48557   0.04829   0.47774   0.00000  Uiso   1.00
C15    C     0.01443   0.54829   0.52226   0.00000  Uiso   1.00
C16    C     0.51443   0.04829   0.52226   0.00000  Uiso   1.00
C17    C     0.94022   0.47568   0.41716   0.00000  Uiso   1.00
C18    C     0.44022   0.97568   0.41715   0.00000  Uiso   1.00
C19    C     0.05978   0.47568   0.58285   0.00000  Uiso   1.00
C20    C     0.55978   0.97568   0.58285   0.00000  Uiso   1.00
C21    C     0.05978   0.52432   0.58285   0.00000  Uiso   1.00
C22    C     0.55978   0.02432   0.58285   0.00000  Uiso   1.00
C23    C     0.94022   0.52432   0.41716   0.00000  Uiso   1.00
C24    C     0.44022   0.02432   0.41715   0.00000  Uiso   1.00
C25    C     0.92111   0.45141   0.45601   0.00000  Uiso   1.00
C26    C     0.42111   0.95141   0.45600   0.00000  Uiso   1.00
C27    C     0.07889   0.45141   0.54400   0.00000  Uiso   1.00
C28    C     0.57889   0.95141   0.54400   0.00000  Uiso   1.00
C29    C     0.07889   0.54859   0.54400   0.00000  Uiso   1.00
C30    C     0.57889   0.04859   0.54400   0.00000  Uiso   1.00
C31    C     0.92111   0.54859   0.45601   0.00000  Uiso   1.00
C32    C     0.42111   0.04859   0.45600   0.00000  Uiso   1.00
C33    C     0.89296   0.45101   0.70972   0.00000  Uiso   1.00
C34    C     0.39296   0.95101   0.70973   0.00000  Uiso   1.00
C35    C     0.10704   0.45101   0.29027   0.00000  Uiso   1.00
C36    C     0.60704   0.95101   0.29028   0.00000  Uiso   1.00
C37    C     0.10704   0.54899   0.29027   0.00000  Uiso   1.00
C38    C     0.60704   0.04899   0.29028   0.00000  Uiso   1.00
C39    C     0.89296   0.54899   0.70972   0.00000  Uiso   1.00
C40    C     0.39296   0.04899   0.70973   0.00000  Uiso   1.00
C41    C     0.87587   0.42761   0.77006   0.00000  Uiso   1.00
C42    C     0.37587   0.92761   0.77006   0.00000  Uiso   1.00
C43    C     0.12413   0.42761   0.22994   0.00000  Uiso   1.00
C44    C     0.62413   0.92761   0.22994   0.00000  Uiso   1.00
C45    C     0.12413   0.57239   0.22994   0.00000  Uiso   1.00
C46    C     0.62413   0.07239   0.22994   0.00000  Uiso   1.00
C47    C     0.87587   0.57239   0.77006   0.00000  Uiso   1.00
C48    C     0.37587   0.07239   0.77006   0.00000  Uiso   1.00
C49    C     0.88713   0.40434   0.58649   0.00000  Uiso   1.00
C50    C     0.38713   0.90434   0.58649   0.00000  Uiso   1.00
C51    C     0.11287   0.40434   0.41351   0.00000  Uiso   1.00
C52    C     0.61287   0.90434   0.41351   0.00000  Uiso   1.00
C53    C     0.11287   0.59566   0.41351   0.00000  Uiso   1.00
C54    C     0.61287   0.09566   0.41351   0.00000  Uiso   1.00
C55    C     0.88713   0.59566   0.58649   0.00000  Uiso   1.00
C56    C     0.38713   0.09566   0.58649   0.00000  Uiso   1.00
C57    C     0.08579   0.40501   0.68093   0.00000  Uiso   1.00
C58    C     0.58579   0.90501   0.68093   0.00000  Uiso   1.00
C59    C     0.91421   0.40501   0.31907   0.00000  Uiso   1.00
C60    C     0.41421   0.90501   0.31907   0.00000  Uiso   1.00
C61    C     0.91421   0.59499   0.31907   0.00000  Uiso   1.00
C62    C     0.41421   0.09499   0.31907   0.00000  Uiso   1.00
C63    C     0.08579   0.59499   0.68093   0.00000  Uiso   1.00
C64    C     0.58579   0.09499   0.68093   0.00000  Uiso   1.00
C65    C     0.06939   0.42859   0.75129   0.00000  Uiso   1.00
C66    C     0.56939   0.92859   0.75129   0.00000  Uiso   1.00
C67    C     0.93062   0.42859   0.24871   0.00000  Uiso   1.00
C68    C     0.43062   0.92859   0.24871   0.00000  Uiso   1.00
C69    C     0.93062   0.57141   0.24871   0.00000  Uiso   1.00
C70    C     0.43062   0.07141   0.24871   0.00000  Uiso   1.00
C71    C     0.06939   0.57141   0.75129   0.00000  Uiso   1.00
C72    C     0.56939   0.07141   0.75129   0.00000  Uiso   1.00
H73    H     0.02420   0.43237   0.53300   0.00000  Uiso   1.00
H74    H     0.52420   0.93237   0.53300   0.00000  Uiso   1.00
H75    H     0.97580   0.43237   0.46700   0.00000  Uiso   1.00
H76    H     0.47580   0.93237   0.46700   0.00000  Uiso   1.00
H77    H     0.97580   0.56763   0.46700   0.00000  Uiso   1.00
H78    H     0.47580   0.06763   0.46700   0.00000  Uiso   1.00
H79    H     0.02420   0.56763   0.53300   0.00000  Uiso   1.00
H80    H     0.52420   0.06763   0.53300   0.00000  Uiso   1.00
H81    H     0.88489   0.46842   0.87183   0.00000  Uiso   1.00
H82    H     0.38489   0.96842   0.87183   0.00000  Uiso   1.00
H83    H     0.11511   0.46842   0.12817   0.00000  Uiso   1.00
H84    H     0.61511   0.96842   0.12817   0.00000  Uiso   1.00
H85    H     0.11511   0.53158   0.12817   0.00000  Uiso   1.00
H86    H     0.61511   0.03158   0.12817   0.00000  Uiso   1.00
H87    H     0.88489   0.53158   0.87183   0.00000  Uiso   1.00
H88    H     0.38489   0.03158   0.87183   0.00000  Uiso   1.00
H89    H     0.85468   0.42700   0.97322   0.00000  Uiso   1.00
H90    H     0.35468   0.92700   0.97323   0.00000  Uiso   1.00
H91    H     0.14532   0.42700   0.02678   0.00000  Uiso   1.00
H92    H     0.64532   0.92700   0.02678   0.00000  Uiso   1.00
H93    H     0.14532   0.57300   0.02678   0.00000  Uiso   1.00
H94    H     0.64532   0.07300   0.02678   0.00000  Uiso   1.00
H95    H     0.85468   0.57300   0.97322   0.00000  Uiso   1.00
H96    H     0.35468   0.07300   0.97323   0.00000  Uiso   1.00
H97    H     0.07773   0.38742   0.83844   0.00000  Uiso   1.00
H98    H     0.57773   0.88742   0.83844   0.00000  Uiso   1.00
H99    H     0.92227   0.38742   0.16156   0.00000  Uiso   1.00
H100   H     0.42227   0.88742   0.16156   0.00000  Uiso   1.00
H101   H     0.92227   0.61258   0.16156   0.00000  Uiso   1.00
H102   H     0.42227   0.11258   0.16156   0.00000  Uiso   1.00
H103   H     0.07773   0.61258   0.83844   0.00000  Uiso   1.00
H104   H     0.57773   0.11258   0.83844   0.00000  Uiso   1.00
H105   H     0.04872   0.42872   0.95863   0.00000  Uiso   1.00
H106   H     0.54873   0.92871   0.95863   0.00000  Uiso   1.00
H107   H     0.95128   0.42872   0.04137   0.00000  Uiso   1.00
H108   H     0.45128   0.92871   0.04137   0.00000  Uiso   1.00
H109   H     0.95128   0.57129   0.04137   0.00000  Uiso   1.00
H110   H     0.45128   0.07129   0.04137   0.00000  Uiso   1.00
H111   H     0.04872   0.57129   0.95863   0.00000  Uiso   1.00
H112   H     0.54873   0.07129   0.95863   0.00000  Uiso   1.00
C113   C     0.92626   0.50000   0.38840   0.00000  Uiso   1.00
C114   C     0.42626   0.00000   0.38840   0.00000  Uiso   1.00
C115   C     0.07374   0.50000   0.61160   0.00000  Uiso   1.00
C116   C     0.57374   0.00000   0.61160   0.00000  Uiso   1.00
C117   C     0.01483   0.50000   0.52631   0.00000  Uiso   1.00
C118   C     0.51483   0.00000   0.52631   0.00000  Uiso   1.00
C119   C     0.98517   0.50000   0.47369   0.00000  Uiso   1.00
C120   C     0.48517   0.00000   0.47369   0.00000  Uiso   1.00
H121   H     0.90340   0.50000   0.35897   0.00000  Uiso   1.00
H122   H     0.40340   0.00000   0.35897   0.00000  Uiso   1.00
H123   H     0.09660   0.50000   0.64103   0.00000  Uiso   1.00
H124   H     0.59660   0.00000   0.64103   0.00000  Uiso   1.00
N125   N     0.62958   0.11975   0.33028   0.00000  Uiso   1.00
N126   N     0.12958   0.61975   0.33028   0.00000  Uiso   1.00
N127   N     0.37043   0.11975   0.66972   0.00000  Uiso   1.00
N128   N     0.87043   0.61975   0.66972   0.00000  Uiso   1.00
N129   N     0.37043   0.88025   0.66972   0.00000  Uiso   1.00
N130   N     0.87043   0.38025   0.66972   0.00000  Uiso   1.00
N131   N     0.62958   0.88025   0.33028   0.00000  Uiso   1.00
N132   N     0.12958   0.38025   0.33028   0.00000  Uiso   1.00
C133   C     0.11725   0.64297   0.32415   0.00000  Uiso   1.00
C134   C     0.61725   0.14297   0.32415   0.00000  Uiso   1.00
C135   C     0.88275   0.64297   0.67585   0.00000  Uiso   1.00
C136   C     0.38275   0.14297   0.67585   0.00000  Uiso   1.00
C137   C     0.88275   0.35703   0.67585   0.00000  Uiso   1.00
C138   C     0.38275   0.85703   0.67585   0.00000  Uiso   1.00
C139   C     0.11725   0.35703   0.32415   0.00000  Uiso   1.00
C140   C     0.61725   0.85703   0.32415   0.00000  Uiso   1.00
C141   C     0.20235   0.71335   0.26494   0.00000  Uiso   1.00
C142   C     0.70235   0.21335   0.26494   0.00000  Uiso   1.00
C143   C     0.79765   0.71335   0.73506   0.00000  Uiso   1.00
C144   C     0.29765   0.21335   0.73506   0.00000  Uiso   1.00
C145   C     0.79765   0.28665   0.73506   0.00000  Uiso   1.00
C146   C     0.29765   0.78665   0.73506   0.00000  Uiso   1.00
C147   C     0.20235   0.28665   0.26494   0.00000  Uiso   1.00
C148   C     0.70235   0.78665   0.26494   0.00000  Uiso   1.00
C149   C     0.22961   0.70035   0.19296   0.00000  Uiso   1.00
C150   C     0.72961   0.20035   0.19296   0.00000  Uiso   1.00
C151   C     0.77039   0.70035   0.80704   0.00000  Uiso   1.00
C152   C     0.27039   0.20035   0.80704   0.00000  Uiso   1.00
C153   C     0.77039   0.29965   0.80704   0.00000  Uiso   1.00
C154   C     0.27039   0.79965   0.80704   0.00000  Uiso   1.00
C155   C     0.22961   0.29965   0.19296   0.00000  Uiso   1.00
C156   C     0.72961   0.79965   0.19296   0.00000  Uiso   1.00
C157   C     0.25159   0.71473   0.28859   0.00000  Uiso   1.00
C158   C     0.75159   0.21473   0.28859   0.00000  Uiso   1.00
C159   C     0.74841   0.71473   0.71141   0.00000  Uiso   1.00
C160   C     0.24841   0.21473   0.71141   0.00000  Uiso   1.00
C161   C     0.74841   0.28527   0.71141   0.00000  Uiso   1.00
C162   C     0.24841   0.78527   0.71141   0.00000  Uiso   1.00
C163   C     0.25159   0.28527   0.28859   0.00000  Uiso   1.00
C164   C     0.75159   0.78527   0.28859   0.00000  Uiso   1.00
C165   C     0.24097   0.73968   0.43245   0.00000  Uiso   1.00
C166   C     0.74097   0.23968   0.43245   0.00000  Uiso   1.00
C167   C     0.75904   0.73968   0.56755   0.00000  Uiso   1.00
C168   C     0.25903   0.23968   0.56755   0.00000  Uiso   1.00
C169   C     0.75904   0.26032   0.56755   0.00000  Uiso   1.00
C170   C     0.25903   0.76032   0.56755   0.00000  Uiso   1.00
C171   C     0.24097   0.26032   0.43245   0.00000  Uiso   1.00
C172   C     0.74097   0.76032   0.43245   0.00000  Uiso   1.00
S173   S     0.20335   0.74405   0.45014   0.00000  Uiso   1.00
S174   S     0.70335   0.24405   0.45013   0.00000  Uiso   1.00
S175   S     0.79665   0.74405   0.54987   0.00000  Uiso   1.00
S176   S     0.29665   0.24405   0.54986   0.00000  Uiso   1.00
S177   S     0.79665   0.25595   0.54987   0.00000  Uiso   1.00
S178   S     0.29665   0.75595   0.54986   0.00000  Uiso   1.00
S179   S     0.20335   0.25595   0.45014   0.00000  Uiso   1.00
S180   S     0.70335   0.75595   0.45013   0.00000  Uiso   1.00
H181   H     0.09310   0.64501   0.36434   0.00000  Uiso   1.00
H182   H     0.59310   0.14501   0.36434   0.00000  Uiso   1.00
H183   H     0.90690   0.64501   0.63566   0.00000  Uiso   1.00
H184   H     0.40690   0.14501   0.63566   0.00000  Uiso   1.00
H185   H     0.90690   0.35499   0.63566   0.00000  Uiso   1.00
H186   H     0.40690   0.85499   0.63566   0.00000  Uiso   1.00
H187   H     0.09310   0.35499   0.36434   0.00000  Uiso   1.00
H188   H     0.59310   0.85499   0.36434   0.00000  Uiso   1.00
H189   H     0.23311   0.68041   0.08311   0.00000  Uiso   1.00
H190   H     0.73311   0.18041   0.08311   0.00000  Uiso   1.00
H191   H     0.76689   0.68041   0.91689   0.00000  Uiso   1.00
H192   H     0.26689   0.18041   0.91689   0.00000  Uiso   1.00
H193   H     0.76665   0.31953   0.91907   0.00000  Uiso   1.00
H194   H     0.26664   0.81953   0.91907   0.00000  Uiso   1.00
H195   H     0.23336   0.31953   0.08093   0.00000  Uiso   1.00
H196   H     0.73335   0.81953   0.08093   0.00000  Uiso   1.00
C197   C     0.71766   0.70279   0.75259   0.00000  Uiso   1.00
C198   C     0.21766   0.20279   0.75259   0.00000  Uiso   1.00
C199   C     0.28234   0.70279   0.24741   0.00000  Uiso   1.00
C200   C     0.78234   0.20279   0.24741   0.00000  Uiso   1.00
C201   C     0.86390   0.66678   0.72802   0.00000  Uiso   1.00
C202   C     0.36390   0.16677   0.72802   0.00000  Uiso   1.00
C203   C     0.13610   0.66678   0.27198   0.00000  Uiso   1.00
C204   C     0.63610   0.16677   0.27198   0.00000  Uiso   1.00
C205   C     0.13610   0.33323   0.27198   0.00000  Uiso   1.00
C206   C     0.63610   0.83323   0.27198   0.00000  Uiso   1.00
C207   C     0.86390   0.33323   0.72802   0.00000  Uiso   1.00
C208   C     0.36390   0.83323   0.72802   0.00000  Uiso   1.00
S209   S     0.82712   0.66548   0.71877   0.00000  Uiso   1.00
S210   S     0.32712   0.16548   0.71877   0.00000  Uiso   1.00
S211   S     0.17288   0.66548   0.28123   0.00000  Uiso   1.00
S212   S     0.67288   0.16548   0.28123   0.00000  Uiso   1.00
S213   S     0.17288   0.33452   0.28123   0.00000  Uiso   1.00
S214   S     0.67288   0.83452   0.28123   0.00000  Uiso   1.00
S215   S     0.82712   0.33452   0.71877   0.00000  Uiso   1.00
S216   S     0.32712   0.83452   0.71877   0.00000  Uiso   1.00
C217   C     0.82554   0.69950   0.75770   0.00000  Uiso   1.00
C218   C     0.32554   0.19950   0.75770   0.00000  Uiso   1.00
C219   C     0.17446   0.69950   0.24230   0.00000  Uiso   1.00
C220   C     0.67446   0.19950   0.24230   0.00000  Uiso   1.00
C221   C     0.17446   0.30050   0.24230   0.00000  Uiso   1.00
C222   C     0.67446   0.80050   0.24230   0.00000  Uiso   1.00
C223   C     0.82554   0.30050   0.75770   0.00000  Uiso   1.00
C224   C     0.32554   0.80050   0.75770   0.00000  Uiso   1.00
C225   C     0.85271   0.71097   0.78310   0.00000  Uiso   1.00
C226   C     0.35271   0.21097   0.78310   0.00000  Uiso   1.00
C227   C     0.14729   0.71097   0.21690   0.00000  Uiso   1.00
C228   C     0.64729   0.21097   0.21690   0.00000  Uiso   1.00
C229   C     0.14729   0.28903   0.21690   0.00000  Uiso   1.00
C230   C     0.64729   0.78903   0.21690   0.00000  Uiso   1.00
C231   C     0.85271   0.28903   0.78310   0.00000  Uiso   1.00
C232   C     0.35271   0.78903   0.78310   0.00000  Uiso   1.00
C233   C     0.87455   0.69196   0.76372   0.00000  Uiso   1.00
C234   C     0.37455   0.19196   0.76372   0.00000  Uiso   1.00
C235   C     0.12545   0.69196   0.23628   0.00000  Uiso   1.00
C236   C     0.62545   0.19196   0.23628   0.00000  Uiso   1.00
C237   C     0.12545   0.30804   0.23628   0.00000  Uiso   1.00
C238   C     0.62545   0.80804   0.23628   0.00000  Uiso   1.00
C239   C     0.87455   0.30804   0.76372   0.00000  Uiso   1.00
C240   C     0.37455   0.80804   0.76372   0.00000  Uiso   1.00
C241   C     0.85911   0.26031   0.84419   0.00000  Uiso   1.00
C242   C     0.35911   0.76031   0.84419   0.00000  Uiso   1.00
C243   C     0.14089   0.26031   0.15581   0.00000  Uiso   1.00
C244   C     0.64089   0.76031   0.15581   0.00000  Uiso   1.00
H245   H     0.89744   0.69637   0.77148   0.00000  Uiso   1.00
H246   H     0.39744   0.19637   0.77148   0.00000  Uiso   1.00
H247   H     0.10256   0.69637   0.22852   0.00000  Uiso   1.00
H248   H     0.60256   0.19637   0.22852   0.00000  Uiso   1.00
H249   H     0.10265   0.30375   0.22364   0.00000  Uiso   1.00
H250   H     0.60265   0.80375   0.22364   0.00000  Uiso   1.00
H251   H     0.89735   0.30375   0.77636   0.00000  Uiso   1.00
H252   H     0.39735   0.80375   0.77636   0.00000  Uiso   1.00
H253   H     0.37791   0.75276   0.62614   0.00000  Uiso   1.00
H254   H     0.36566   0.75868   1.09767   0.00000  Uiso   1.00
H255   H     0.33915   0.74751   0.87041   0.00000  Uiso   1.00
H256   H     0.29954   0.71543   0.06775   0.00000  Uiso   1.00
H257   H     0.28728   0.70135   0.51087   0.00000  Uiso   1.00
H258   H     0.28392   0.68241   0.13186   0.00000  Uiso   1.00
H259   H     0.87791   0.25276   0.62614   0.00000  Uiso   1.00
H260   H     0.86566   0.25868   1.09767   0.00000  Uiso   1.00
H261   H     0.83915   0.24751   0.87041   0.00000  Uiso   1.00
H262   H     0.79954   0.21543   0.06775   0.00000  Uiso   1.00
H263   H     0.78728   0.20135   0.51087   0.00000  Uiso   1.00
H264   H     0.78392   0.18241   0.13186   0.00000  Uiso   1.00
H265   H     0.62209   0.75276   0.37386   0.00000  Uiso   1.00
H266   H     0.63434   0.75868  -0.09767   0.00000  Uiso   1.00
H267   H     0.66085   0.74751   0.12959   0.00000  Uiso   1.00
H268   H     0.70046   0.71543   0.93225   0.00000  Uiso   1.00
H269   H     0.71272   0.70135   0.48913   0.00000  Uiso   1.00
H270   H     0.71608   0.68241   0.86814   0.00000  Uiso   1.00
H271   H     0.12209   0.25276   0.37386   0.00000  Uiso   1.00
H272   H     0.13434   0.25868  -0.09767   0.00000  Uiso   1.00
H273   H     0.16085   0.24751   0.12959   0.00000  Uiso   1.00
H274   H     0.20046   0.21543   0.93225   0.00000  Uiso   1.00
H275   H     0.21272   0.20135   0.48913   0.00000  Uiso   1.00
H276   H     0.21608   0.18241   0.86814   0.00000  Uiso   1.00
H277   H     0.64402   1.23222   0.19293   0.00000  Uiso   1.00
H278   H     0.72547   1.29208   0.74547   0.00000  Uiso   1.00
H279   H     1.35598   1.23222   0.80707   0.00000  Uiso   1.00
H280   H     1.27453   1.29208   0.25453   0.00000  Uiso   1.00
H281   H     0.85598   0.73222   0.80707   0.00000  Uiso   1.00
H282   H     0.77453   0.79208   0.25453   0.00000  Uiso   1.00
H283   H     1.14402   0.73222   0.19293   0.00000  Uiso   1.00
H284   H     1.22547   0.79208   0.74547   0.00000  Uiso   1.00
loop_
_geom_bond_atom_site_label_1
_geom_bond_atom_site_label_2
_geom_bond_distance
_geom_bond_site_symmetry_2
_ccdc_geom_bond_type
C1     C11     1.402   .     S
C1     C17     1.420   .     S
C1     C119    1.417   .     D
C2     C12     1.402   .     D
C2     C18     1.420   .     S
C2     C120    1.417   1_565 S
C3     C9      1.402   .     S
C3     C19     1.420   .     S
C3     C117    1.417   .     D
C4     C10     1.402   .     D
C4     C20     1.420   .     S
C4     C118    1.417   1_565 S
C5     C15     1.402   .     D
C5     C21     1.420   .     S
C5     C117    1.417   .     S
C6     C16     1.402   .     S
C6     C22     1.420   .     S
C6     C118    1.417   .     D
C7     C13     1.402   .     D
C7     C23     1.420   .     S
C7     C119    1.417   .     S
C8     C14     1.402   .     S
C8     C24     1.420   .     S
C8     C120    1.417   .     D
C9     C11     1.379   1_455 D
C9     H73     1.073   .     S
C10    C12     1.379   .     S
C10    H74     1.073   .     S
C11    C9      1.379   1_655 D
C11    H75     1.073   .     S
C12    H76     1.073   .     S
C13    C15     1.379   1_655 S
C13    H77     1.073   .     S
C14    C16     1.379   .     D
C14    H78     1.073   .     S
C15    C13     1.379   1_455 S
C15    H79     1.073   .     S
C16    H80     1.073   .     S
C17    C25     1.484   .     D
C17    C113    1.394   .     S
C18    C26     1.484   .     S
C18    C114    1.394   1_565 D
C19    C27     1.484   .     D
C19    C115    1.394   .     S
C20    C28     1.484   .     S
C20    C116    1.394   1_565 D
C21    C29     1.484   .     S
C21    C115    1.394   .     D
C22    C30     1.484   .     D
C22    C116    1.394   .     S
C23    C31     1.484   .     S
C23    C113    1.394   .     D
C24    C32     1.484   .     D
C24    C114    1.394   .     S
C25    C33     1.407   .     S
C25    C67     1.401   .     S
C26    C34     1.407   .     S
C26    C68     1.401   .     D
C27    C35     1.407   .     S
C27    C65     1.401   .     S
C28    C36     1.407   .     S
C28    C66     1.401   .     D
C29    C37     1.407   .     S
C29    C71     1.401   .     D
C30    C38     1.407   .     S
C30    C72     1.401   .     S
C31    C39     1.407   .     S
C31    C69     1.401   .     D
C32    C40     1.407   .     S
C32    C70     1.401   .     S
C33    C41     1.396   .     D
C33    H81     1.083   .     S
C34    C42     1.396   .     D
C34    H82     1.083   .     S
C35    C43     1.396   .     D
C35    H83     1.083   .     S
C36    C44     1.396   .     D
C36    H84     1.083   .     S
C37    C45     1.396   .     D
C37    H85     1.083   .     S
C38    C46     1.396   .     D
C38    H86     1.083   .     S
C39    C47     1.396   .     D
C39    H87     1.083   .     S
C40    C48     1.396   .     D
C40    H88     1.083   .     S
C41    C49     1.394   .     S
C41    H89     1.082   .     S
C42    C50     1.394   .     S
C42    H90     1.082   .     S
C43    C51     1.394   .     S
C43    H91     1.082   .     S
C44    C52     1.394   .     S
C44    H92     1.082   .     S
C45    C53     1.394   .     S
C45    H93     1.082   .     S
C46    C54     1.394   .     S
C46    H94     1.082   .     S
C47    C55     1.394   .     S
C47    H95     1.082   .     S
C48    C56     1.394   .     S
C48    H96     1.082   .     S
C49    C59     1.399   .     S
C49    N130    1.421   .     D
C50    C60     1.399   .     D
C50    N129    1.421   .     S
C51    C57     1.399   .     S
C51    N132    1.421   .     D
C52    C58     1.399   .     D
C52    N131    1.421   .     S
C53    C63     1.399   .     D
C53    N126    1.421   .     S
C54    C64     1.399   .     S
C54    N125    1.421   .     D
C55    C61     1.399   .     D
C55    N128    1.421   .     S
C56    C62     1.399   .     S
C56    N127    1.421   .     D
C57    C65     1.389   .     D
C57    H97     1.082   .     S
C58    C66     1.389   .     S
C58    H98     1.082   .     S
C59    C67     1.389   .     D
C59    H99     1.082   .     S
C60    C68     1.389   .     S
C60    H100    1.082   .     S
C61    C69     1.389   .     S
C61    H101    1.082   .     S
C62    C70     1.389   .     D
C62    H102    1.082   .     S
C63    C71     1.389   .     S
C63    H103    1.082   .     S
C64    C72     1.389   .     D
C64    H104    1.082   .     S
C65    H105    1.073   .     S
C66    H106    1.073   .     S
C67    H107    1.073   .     S
C68    H108    1.073   .     S
C69    H109    1.073   .     S
C70    H110    1.073   .     S
C71    H111    1.073   .     S
C72    H112    1.073   .     S
C113   H121    1.084   .     S
C114   C18     1.394   1_545 D
C114   H122    1.084   .     S
C115   H123    1.084   .     S
C116   C20     1.394   1_545 D
C116   H124    1.084   .     S
C117   C119    1.428   1_455 S
C118   C4      1.417   1_545 S
C118   C120    1.428   .     S
C119   C117    1.428   1_655 S
C120   C2      1.417   1_545 S
N125   C134    1.296   .     S
N126   C133    1.296   .     D
N127   C136    1.296   .     S
N128   C135    1.296   .     D
N129   C138    1.296   .     D
N130   C137    1.296   .     S
N131   C140    1.296   .     D
N132   C139    1.296   .     S
C133   H181    1.083   .     S
C133   C203    1.457   .     S
C134   H182    1.083   .     S
C134   C204    1.457   .     D
C135   H183    1.083   .     S
C135   C201    1.457   .     S
C136   H184    1.083   .     S
C136   C202    1.457   .     D
C137   H185    1.083   .     S
C137   C207    1.457   .     D
C138   H186    1.083   .     S
C138   C208    1.457   .     S
C139   H187    1.083   .     S
C139   C205    1.457   .     D
C140   H188    1.083   .     S
C140   C206    1.457   .     S
C141   C149    1.374   .     D
C141   S173    1.703   .     S
C141   C219    1.478   .     S
C142   C150    1.374   .     S
C142   S174    1.703   .     S
C142   C220    1.478   .     D
C143   C151    1.374   .     D
C143   S175    1.703   .     S
C143   C217    1.478   .     S
C144   C152    1.374   .     S
C144   S176    1.703   .     S
C144   C218    1.478   .     D
C145   C153    1.374   .     S
C145   S177    1.703   .     S
C145   C223    1.478   .     D
C146   C154    1.374   .     D
C146   S178    1.703   .     S
C146   C224    1.478   .     S
C147   C155    1.374   .     S
C147   S179    1.703   .     S
C147   C221    1.478   .     D
C148   C156    1.374   .     D
C148   S180    1.703   .     S
C148   C222    1.478   .     S
C149   C157    1.367   .     S
C149   H189    1.082   .     S
C150   C158    1.367   .     D
C150   H190    1.082   .     S
C151   C159    1.367   .     S
C151   H191    1.082   .     S
C152   C160    1.367   .     D
C152   H192    1.082   .     S
C153   C161    1.367   .     D
C153   H193    1.082   .     S
C154   C162    1.367   .     S
C154   H194    1.082   .     S
C155   C163    1.367   .     D
C155   H195    1.082   .     S
C156   C164    1.367   .     S
C156   H196    1.082   .     S
C157   C165    1.404   .     D
C157   C199    1.503   .     S
C158   C166    1.404   .     S
C158   C200    1.503   .     S
C159   C167    1.404   .     D
C159   C197    1.503   .     S
C160   C168    1.404   .     S
C160   C198    1.503   .     S
C161   C169    1.404   .     S
C161   H278    1.082   1_545 S
C162   C170    1.404   .     D
C162   H284    1.082   1_455 S
C163   C171    1.404   .     S
C163   H280    1.082   1_445 S
C164   C172    1.404   .     D
C164   H282    1.082   .     S
C165   C170    1.502   .     S
C165   S173    1.724   .     S
C166   C169    1.502   .     D
C166   S174    1.724   .     S
C167   C172    1.502   .     S
C167   S175    1.724   .     S
C168   C171    1.502   .     D
C168   S176    1.724   .     S
C169   S177    1.724   .     S
C170   S178    1.724   .     S
C171   S179    1.724   .     S
C172   S180    1.724   .     S
C197   H268    1.107   .     S
C197   H269    1.105   .     S
C197   H270    1.110   .     S
C198   H274    1.107   .     S
C198   H275    1.105   .     S
C198   H276    1.110   .     S
C199   H256    1.107   .     S
C199   H257    1.105   .     S
C199   H258    1.110   .     S
C200   H262    1.107   .     S
C200   H263    1.105   .     S
C200   H264    1.110   .     S
C201   S209    1.699   .     S
C201   C233    1.373   .     D
C202   S210    1.699   .     S
C202   C234    1.373   .     S
C203   S211    1.699   .     S
C203   C235    1.373   .     D
C204   S212    1.699   .     S
C204   C236    1.373   .     S
C205   S213    1.699   .     S
C205   C237    1.373   .     S
C206   S214    1.699   .     S
C206   C238    1.373   .     D
C207   S215    1.699   .     S
C207   C239    1.373   .     S
C208   S216    1.699   .     S
C208   C240    1.373   .     D
S209   C217    1.711   .     S
S210   C218    1.711   .     S
S211   C219    1.711   .     S
S212   C220    1.711   .     S
S213   C221    1.711   .     S
S214   C222    1.711   .     S
S215   C223    1.711   .     S
S216   C224    1.711   .     S
C217   C225    1.400   .     D
C218   C226    1.400   .     S
C219   C227    1.400   .     D
C220   C228    1.400   .     S
C221   C229    1.400   .     S
C222   C230    1.400   .     D
C223   C231    1.400   .     S
C224   C232    1.400   .     D
C225   C233    1.371   .     S
C225   H281    1.082   .     S
C226   C234    1.371   .     D
C226   H279    1.082   1_445 S
C227   C235    1.371   .     S
C227   H283    1.082   1_455 S
C228   C236    1.371   .     D
C228   H277    1.082   1_545 S
C229   C237    1.371   .     D
C229   C243    1.500   .     S
C230   C238    1.371   .     S
C230   C244    1.500   .     S
C231   C239    1.371   .     D
C231   C241    1.500   .     S
C232   C240    1.371   .     S
C232   C242    1.500   .     S
C233   H245    1.082   .     S
C234   H246    1.082   .     S
C235   H247    1.082   .     S
C236   H248    1.082   .     S
C237   H249    1.082   .     S
C238   H250    1.082   .     S
C239   H251    1.082   .     S
C240   H252    1.082   .     S
C241   H259    1.107   .     S
C241   H260    1.103   .     S
C241   H261    1.101   .     S
C242   H253    1.107   .     S
C242   H254    1.103   .     S
C242   H255    1.101   .     S
C243   H271    1.107   .     S
C243   H272    1.103   .     S
C243   H273    1.101   .     S
C244   H265    1.107   .     S
C244   H266    1.103   .     S
C244   H267    1.101   .     S
H277   C228    1.082   1_565 S
H278   C161    1.082   1_565 S
H279   C226    1.082   1_665 S
H280   C163    1.082   1_665 S
H283   C227    1.082   1_655 S
H284   C162    1.082   1_655 S
