data_394
_audit_creation_date              2023-09-08
_audit_creation_method            'Materials Studio'
_symmetry_space_group_name_H-M    'P1'
_symmetry_Int_Tables_number       1
_symmetry_cell_setting            triclinic
loop_
_symmetry_equiv_pos_as_xyz
  x,y,z
_cell_length_a                    48.0000
_cell_length_b                    51.4000
_cell_length_c                    3.8800
_cell_angle_alpha                 90.0000
_cell_angle_beta                  72.0000
_cell_angle_gamma                 90.0000
loop_
_atom_site_label
_atom_site_type_symbol
_atom_site_fract_x
_atom_site_fract_y
_atom_site_fract_z
_atom_site_U_iso_or_equiv
_atom_site_adp_type
_atom_site_occupancy
C1     C     0.96993   0.47606   0.50941   0.00000  Uiso   1.00
C2     C     0.46993   0.97606   0.50941   0.00000  Uiso   1.00
C3     C     0.03007   0.47606   0.49059   0.00000  Uiso   1.00
C4     C     0.53007   0.97606   0.49059   0.00000  Uiso   1.00
C5     C     0.03007   0.52394   0.49059   0.00000  Uiso   1.00
C6     C     0.53007   0.02394   0.49059   0.00000  Uiso   1.00
C7     C     0.96993   0.52394   0.50941   0.00000  Uiso   1.00
C8     C     0.46993   0.02394   0.50941   0.00000  Uiso   1.00
C9     C     0.01459   0.45288   0.49260   0.00000  Uiso   1.00
C10    C     0.51459   0.95288   0.49260   0.00000  Uiso   1.00
C11    C     0.98541   0.45288   0.50740   0.00000  Uiso   1.00
C12    C     0.48541   0.95288   0.50740   0.00000  Uiso   1.00
C13    C     0.98541   0.54712   0.50740   0.00000  Uiso   1.00
C14    C     0.48541   0.04712   0.50740   0.00000  Uiso   1.00
C15    C     0.01459   0.54712   0.49260   0.00000  Uiso   1.00
C16    C     0.51459   0.04712   0.49260   0.00000  Uiso   1.00
C17    C     0.93986   0.47609   0.52392   0.00000  Uiso   1.00
C18    C     0.43986   0.97609   0.52392   0.00000  Uiso   1.00
C19    C     0.06014   0.47609   0.47608   0.00000  Uiso   1.00
C20    C     0.56014   0.97609   0.47608   0.00000  Uiso   1.00
C21    C     0.06014   0.52391   0.47608   0.00000  Uiso   1.00
C22    C     0.56014   0.02391   0.47608   0.00000  Uiso   1.00
C23    C     0.93986   0.52391   0.52392   0.00000  Uiso   1.00
C24    C     0.43986   0.02391   0.52392   0.00000  Uiso   1.00
C25    C     0.92155   0.45197   0.55302   0.00000  Uiso   1.00
C26    C     0.42155   0.95197   0.55302   0.00000  Uiso   1.00
C27    C     0.07845   0.45197   0.44698   0.00000  Uiso   1.00
C28    C     0.57845   0.95197   0.44698   0.00000  Uiso   1.00
C29    C     0.07845   0.54803   0.44698   0.00000  Uiso   1.00
C30    C     0.57845   0.04803   0.44698   0.00000  Uiso   1.00
C31    C     0.92155   0.54803   0.55302   0.00000  Uiso   1.00
C32    C     0.42155   0.04803   0.55302   0.00000  Uiso   1.00
C33    C     0.89322   0.45074   0.80573   0.00000  Uiso   1.00
C34    C     0.39322   0.95074   0.80573   0.00000  Uiso   1.00
C35    C     0.10678   0.45074   0.19427   0.00000  Uiso   1.00
C36    C     0.60678   0.95074   0.19427   0.00000  Uiso   1.00
C37    C     0.10678   0.54926   0.19427   0.00000  Uiso   1.00
C38    C     0.60678   0.04926   0.19427   0.00000  Uiso   1.00
C39    C     0.89322   0.54926   0.80573   0.00000  Uiso   1.00
C40    C     0.39322   0.04926   0.80573   0.00000  Uiso   1.00
C41    C     0.87577   0.42846   0.83193   0.00000  Uiso   1.00
C42    C     0.37577   0.92846   0.83193   0.00000  Uiso   1.00
C43    C     0.12423   0.42846   0.16807   0.00000  Uiso   1.00
C44    C     0.62423   0.92846   0.16807   0.00000  Uiso   1.00
C45    C     0.12423   0.57154   0.16807   0.00000  Uiso   1.00
C46    C     0.62423   0.07154   0.16807   0.00000  Uiso   1.00
C47    C     0.87577   0.57154   0.83193   0.00000  Uiso   1.00
C48    C     0.37577   0.07154   0.83193   0.00000  Uiso   1.00
C49    C     0.88649   0.40675   0.61442   0.00000  Uiso   1.00
C50    C     0.38649   0.90675   0.61442   0.00000  Uiso   1.00
C51    C     0.11351   0.40675   0.38559   0.00000  Uiso   1.00
C52    C     0.61351   0.90675   0.38559   0.00000  Uiso   1.00
C53    C     0.11351   0.59325   0.38559   0.00000  Uiso   1.00
C54    C     0.61351   0.09325   0.38559   0.00000  Uiso   1.00
C55    C     0.88649   0.59325   0.61442   0.00000  Uiso   1.00
C56    C     0.38649   0.09325   0.61442   0.00000  Uiso   1.00
C57    C     0.08570   0.40811   0.64479   0.00000  Uiso   1.00
C58    C     0.58570   0.90811   0.64479   0.00000  Uiso   1.00
C59    C     0.91430   0.40811   0.35521   0.00000  Uiso   1.00
C60    C     0.41430   0.90811   0.35521   0.00000  Uiso   1.00
C61    C     0.91430   0.59189   0.35521   0.00000  Uiso   1.00
C62    C     0.41430   0.09189   0.35521   0.00000  Uiso   1.00
C63    C     0.08570   0.59189   0.64479   0.00000  Uiso   1.00
C64    C     0.58570   0.09189   0.64479   0.00000  Uiso   1.00
C65    C     0.06874   0.43062   0.67898   0.00000  Uiso   1.00
C66    C     0.56874   0.93062   0.67898   0.00000  Uiso   1.00
C67    C     0.93126   0.43062   0.32102   0.00000  Uiso   1.00
C68    C     0.43126   0.93062   0.32102   0.00000  Uiso   1.00
C69    C     0.93126   0.56938   0.32102   0.00000  Uiso   1.00
C70    C     0.43126   0.06938   0.32102   0.00000  Uiso   1.00
C71    C     0.06874   0.56938   0.67898   0.00000  Uiso   1.00
C72    C     0.56874   0.06938   0.67898   0.00000  Uiso   1.00
H73    H     0.02459   0.43405   0.47954   0.00000  Uiso   1.00
H74    H     0.52459   0.93405   0.47954   0.00000  Uiso   1.00
H75    H     0.97541   0.43405   0.52046   0.00000  Uiso   1.00
H76    H     0.47541   0.93405   0.52046   0.00000  Uiso   1.00
H77    H     0.97541   0.56595   0.52046   0.00000  Uiso   1.00
H78    H     0.47541   0.06595   0.52046   0.00000  Uiso   1.00
H79    H     0.02459   0.56595   0.47954   0.00000  Uiso   1.00
H80    H     0.52459   0.06595   0.47954   0.00000  Uiso   1.00
H81    H     0.88485   0.46682   0.98891   0.00000  Uiso   1.00
H82    H     0.38485   0.96682   0.98891   0.00000  Uiso   1.00
H83    H     0.11515   0.46682   0.01109   0.00000  Uiso   1.00
H84    H     0.61515   0.96682   0.01109   0.00000  Uiso   1.00
H85    H     0.11515   0.53318   0.01109   0.00000  Uiso   1.00
H86    H     0.61515   0.03318   0.01109   0.00000  Uiso   1.00
H87    H     0.88485   0.53318   0.98891   0.00000  Uiso   1.00
H88    H     0.38485   0.03318   0.98891   0.00000  Uiso   1.00
H89    H     0.85424   0.42757   1.03049   0.00000  Uiso   1.00
H90    H     0.35424   0.92757   1.03049   0.00000  Uiso   1.00
H91    H     0.14576   0.42757  -0.03049   0.00000  Uiso   1.00
H92    H     0.64576   0.92757  -0.03049   0.00000  Uiso   1.00
H93    H     0.14576   0.57243  -0.03049   0.00000  Uiso   1.00
H94    H     0.64576   0.07243  -0.03049   0.00000  Uiso   1.00
H95    H     0.85424   0.57243   1.03049   0.00000  Uiso   1.00
H96    H     0.35424   0.07243   1.03049   0.00000  Uiso   1.00
H97    H     0.07761   0.39213   0.82997   0.00000  Uiso   1.00
H98    H     0.57761   0.89213   0.82997   0.00000  Uiso   1.00
H99    H     0.92239   0.39213   0.17003   0.00000  Uiso   1.00
H100   H     0.42239   0.89213   0.17003   0.00000  Uiso   1.00
H101   H     0.92239   0.60787   0.17003   0.00000  Uiso   1.00
H102   H     0.42239   0.10787   0.17003   0.00000  Uiso   1.00
H103   H     0.07761   0.60787   0.82997   0.00000  Uiso   1.00
H104   H     0.57761   0.10787   0.82997   0.00000  Uiso   1.00
H105   H     0.04799   0.43133   0.88812   0.00000  Uiso   1.00
H106   H     0.54799   0.93134   0.88812   0.00000  Uiso   1.00
H107   H     0.95201   0.43133   0.11188   0.00000  Uiso   1.00
H108   H     0.45201   0.93134   0.11188   0.00000  Uiso   1.00
H109   H     0.95201   0.56867   0.11188   0.00000  Uiso   1.00
H110   H     0.45201   0.06867   0.11188   0.00000  Uiso   1.00
H111   H     0.04799   0.56867   0.88812   0.00000  Uiso   1.00
H112   H     0.54799   0.06867   0.88812   0.00000  Uiso   1.00
C113   C     0.92585   0.50000   0.52341   0.00000  Uiso   1.00
C114   C     0.42585   0.00000   0.52341   0.00000  Uiso   1.00
C115   C     0.07415   0.50000   0.47659   0.00000  Uiso   1.00
C116   C     0.57415   0.00000   0.47659   0.00000  Uiso   1.00
C117   C     0.01504   0.50000   0.49686   0.00000  Uiso   1.00
C118   C     0.51504   0.00000   0.49686   0.00000  Uiso   1.00
C119   C     0.98496   0.50000   0.50314   0.00000  Uiso   1.00
C120   C     0.48496   0.00000   0.50314   0.00000  Uiso   1.00
H121   H     0.90332   0.50000   0.52137   0.00000  Uiso   1.00
H122   H     0.40332   0.00000   0.52137   0.00000  Uiso   1.00
H123   H     0.09668   0.50000   0.47863   0.00000  Uiso   1.00
H124   H     0.59668   0.00000   0.47863   0.00000  Uiso   1.00
N125   N     0.63148   0.11608   0.34832   0.00000  Uiso   1.00
N126   N     0.13148   0.61608   0.34832   0.00000  Uiso   1.00
N127   N     0.36852   0.11608   0.65168   0.00000  Uiso   1.00
N128   N     0.86852   0.61608   0.65168   0.00000  Uiso   1.00
N129   N     0.36852   0.88392   0.65168   0.00000  Uiso   1.00
N130   N     0.86852   0.38392   0.65168   0.00000  Uiso   1.00
N131   N     0.63148   0.88392   0.34832   0.00000  Uiso   1.00
N132   N     0.13148   0.38392   0.34832   0.00000  Uiso   1.00
C133   C     0.12102   0.63961   0.39639   0.00000  Uiso   1.00
C134   C     0.62102   0.13961   0.39639   0.00000  Uiso   1.00
C135   C     0.87898   0.63961   0.60361   0.00000  Uiso   1.00
C136   C     0.37898   0.13961   0.60361   0.00000  Uiso   1.00
C137   C     0.87898   0.36039   0.60361   0.00000  Uiso   1.00
C138   C     0.37898   0.86039   0.60361   0.00000  Uiso   1.00
C139   C     0.12102   0.36039   0.39639   0.00000  Uiso   1.00
C140   C     0.62102   0.86039   0.39639   0.00000  Uiso   1.00
C141   C     0.20388   0.70881   0.37806   0.00000  Uiso   1.00
C142   C     0.70388   0.20881   0.37806   0.00000  Uiso   1.00
C143   C     0.79612   0.70881   0.62194   0.00000  Uiso   1.00
C144   C     0.29612   0.20881   0.62194   0.00000  Uiso   1.00
C145   C     0.79612   0.29119   0.62194   0.00000  Uiso   1.00
C146   C     0.29612   0.79119   0.62194   0.00000  Uiso   1.00
C147   C     0.20388   0.29119   0.37806   0.00000  Uiso   1.00
C148   C     0.70388   0.79119   0.37806   0.00000  Uiso   1.00
C149   C     0.22993   0.69637   0.34585   0.00000  Uiso   1.00
C150   C     0.72993   0.19637   0.34585   0.00000  Uiso   1.00
C151   C     0.77007   0.69637   0.65415   0.00000  Uiso   1.00
C152   C     0.27007   0.19637   0.65415   0.00000  Uiso   1.00
C153   C     0.77007   0.30363   0.65415   0.00000  Uiso   1.00
C154   C     0.27007   0.80363   0.65415   0.00000  Uiso   1.00
C155   C     0.22993   0.30363   0.34585   0.00000  Uiso   1.00
C156   C     0.72993   0.80363   0.34585   0.00000  Uiso   1.00
C157   C     0.25155   0.71270   0.38901   0.00000  Uiso   1.00
C158   C     0.75155   0.21270   0.38901   0.00000  Uiso   1.00
C159   C     0.74845   0.71270   0.61099   0.00000  Uiso   1.00
C160   C     0.24845   0.21270   0.61099   0.00000  Uiso   1.00
C161   C     0.74845   0.28730   0.61099   0.00000  Uiso   1.00
C162   C     0.24845   0.78730   0.61099   0.00000  Uiso   1.00
C163   C     0.25155   0.28730   0.38901   0.00000  Uiso   1.00
C164   C     0.75155   0.78730   0.38901   0.00000  Uiso   1.00
C165   C     0.24142   0.73849   0.46203   0.00000  Uiso   1.00
C166   C     0.74142   0.23849   0.46203   0.00000  Uiso   1.00
C167   C     0.75858   0.73849   0.53797   0.00000  Uiso   1.00
C168   C     0.25858   0.23849   0.53797   0.00000  Uiso   1.00
C169   C     0.75858   0.26151   0.53797   0.00000  Uiso   1.00
C170   C     0.25858   0.76151   0.53797   0.00000  Uiso   1.00
C171   C     0.24142   0.26151   0.46203   0.00000  Uiso   1.00
C172   C     0.74142   0.76151   0.46203   0.00000  Uiso   1.00
S173   S     0.20575   0.74131   0.45866   0.00000  Uiso   1.00
S174   S     0.70575   0.24131   0.45866   0.00000  Uiso   1.00
S175   S     0.79425   0.74131   0.54134   0.00000  Uiso   1.00
S176   S     0.29425   0.24131   0.54134   0.00000  Uiso   1.00
S177   S     0.79425   0.25869   0.54134   0.00000  Uiso   1.00
S178   S     0.29425   0.75869   0.54134   0.00000  Uiso   1.00
S179   S     0.20575   0.25869   0.45866   0.00000  Uiso   1.00
S180   S     0.70575   0.75869   0.45866   0.00000  Uiso   1.00
H181   H     0.09780   0.64293   0.44888   0.00000  Uiso   1.00
H182   H     0.59780   0.14293   0.44888   0.00000  Uiso   1.00
H183   H     0.90220   0.64293   0.55112   0.00000  Uiso   1.00
H184   H     0.40220   0.14293   0.55112   0.00000  Uiso   1.00
H185   H     0.90220   0.35707   0.55112   0.00000  Uiso   1.00
H186   H     0.40220   0.85707   0.55112   0.00000  Uiso   1.00
H187   H     0.09780   0.35707   0.44888   0.00000  Uiso   1.00
H188   H     0.59780   0.85707   0.44888   0.00000  Uiso   1.00
H189   H     0.23329   0.67572   0.29661   0.00000  Uiso   1.00
H190   H     0.73329   0.17572   0.29661   0.00000  Uiso   1.00
H191   H     0.76725   0.67575   0.70533   0.00000  Uiso   1.00
H192   H     0.26725   0.17575   0.70533   0.00000  Uiso   1.00
H193   H     0.76725   0.32425   0.70533   0.00000  Uiso   1.00
H194   H     0.26725   0.82425   0.70533   0.00000  Uiso   1.00
H195   H     0.23329   0.32428   0.29661   0.00000  Uiso   1.00
H196   H     0.73329   0.82428   0.29661   0.00000  Uiso   1.00
C197   C     0.71782   0.70320   0.64181   0.00000  Uiso   1.00
C198   C     0.21782   0.20320   0.64181   0.00000  Uiso   1.00
C199   C     0.71782   0.29680   0.64181   0.00000  Uiso   1.00
C200   C     0.21782   0.79680   0.64181   0.00000  Uiso   1.00
H201   H     0.71383   0.70716   0.38085   0.00000  Uiso   1.00
H202   H     0.21383   0.20716   0.38085   0.00000  Uiso   1.00
H203   H     0.71383   0.29284   0.38085   0.00000  Uiso   1.00
H204   H     0.21383   0.79284   0.38085   0.00000  Uiso   1.00
H205   H     0.70189   0.71487   0.85492   0.00000  Uiso   1.00
H206   H     0.20189   0.21487   0.85492   0.00000  Uiso   1.00
H207   H     0.70189   0.28513   0.85492   0.00000  Uiso   1.00
H208   H     0.20189   0.78514   0.85492   0.00000  Uiso   1.00
C209   C     0.86001   0.66253   0.62659   0.00000  Uiso   1.00
C210   C     0.36001   0.16253   0.62659   0.00000  Uiso   1.00
C211   C     0.13999   0.66253   0.37341   0.00000  Uiso   1.00
C212   C     0.63999   0.16253   0.37341   0.00000  Uiso   1.00
C213   C     0.13999   0.33747   0.37341   0.00000  Uiso   1.00
C214   C     0.63999   0.83747   0.37341   0.00000  Uiso   1.00
C215   C     0.86001   0.33747   0.62659   0.00000  Uiso   1.00
C216   C     0.36001   0.83747   0.62659   0.00000  Uiso   1.00
S217   S     0.82414   0.66116   0.63992   0.00000  Uiso   1.00
S218   S     0.32414   0.16116   0.63992   0.00000  Uiso   1.00
S219   S     0.17586   0.66116   0.36008   0.00000  Uiso   1.00
S220   S     0.67586   0.16116   0.36008   0.00000  Uiso   1.00
S221   S     0.17586   0.33884   0.36008   0.00000  Uiso   1.00
S222   S     0.67586   0.83884   0.36008   0.00000  Uiso   1.00
S223   S     0.82414   0.33884   0.63992   0.00000  Uiso   1.00
S224   S     0.32414   0.83884   0.63992   0.00000  Uiso   1.00
C225   C     0.82312   0.69472   0.63473   0.00000  Uiso   1.00
C226   C     0.32312   0.19472   0.63473   0.00000  Uiso   1.00
C227   C     0.17688   0.69472   0.36527   0.00000  Uiso   1.00
C228   C     0.67688   0.19472   0.36527   0.00000  Uiso   1.00
C229   C     0.17688   0.30528   0.36527   0.00000  Uiso   1.00
C230   C     0.67688   0.80528   0.36527   0.00000  Uiso   1.00
C231   C     0.82312   0.30528   0.63473   0.00000  Uiso   1.00
C232   C     0.32312   0.80528   0.63473   0.00000  Uiso   1.00
C233   C     0.84981   0.70614   0.62975   0.00000  Uiso   1.00
C234   C     0.34981   0.20614   0.62975   0.00000  Uiso   1.00
C235   C     0.15019   0.70614   0.37025   0.00000  Uiso   1.00
C236   C     0.65019   0.20614   0.37025   0.00000  Uiso   1.00
C237   C     0.15019   0.29386   0.37025   0.00000  Uiso   1.00
C238   C     0.65019   0.79386   0.37025   0.00000  Uiso   1.00
C239   C     0.84981   0.29386   0.62975   0.00000  Uiso   1.00
C240   C     0.34981   0.79386   0.62975   0.00000  Uiso   1.00
C241   C     0.87059   0.68741   0.62153   0.00000  Uiso   1.00
C242   C     0.37059   0.18741   0.62153   0.00000  Uiso   1.00
C243   C     0.12941   0.68741   0.37847   0.00000  Uiso   1.00
C244   C     0.62941   0.18741   0.37847   0.00000  Uiso   1.00
C245   C     0.12941   0.31259   0.37847   0.00000  Uiso   1.00
C246   C     0.62941   0.81259   0.37847   0.00000  Uiso   1.00
C247   C     0.87059   0.31259   0.62153   0.00000  Uiso   1.00
C248   C     0.37059   0.81259   0.62153   0.00000  Uiso   1.00
C249   C     0.14455   0.73513   0.35974   0.00000  Uiso   1.00
C250   C     0.64455   0.23513   0.35974   0.00000  Uiso   1.00
C251   C     0.14455   0.26487   0.35974   0.00000  Uiso   1.00
C252   C     0.64455   0.76487   0.35974   0.00000  Uiso   1.00
H253   H     0.89282   0.69197   0.61227   0.00000  Uiso   1.00
H254   H     0.39282   0.19197   0.61227   0.00000  Uiso   1.00
H255   H     0.10710   0.69143   0.38783   0.00000  Uiso   1.00
H256   H     0.60710   0.19143   0.38783   0.00000  Uiso   1.00
H257   H     0.10710   0.30858   0.38783   0.00000  Uiso   1.00
H258   H     0.60710   0.80858   0.38783   0.00000  Uiso   1.00
H259   H     0.89282   0.30803   0.61227   0.00000  Uiso   1.00
H260   H     0.39282   0.80803   0.61227   0.00000  Uiso   1.00
C261   C     0.21194   0.82584   0.73054   0.00000  Uiso   1.00
C262   C     0.71194   0.32584   0.73054   0.00000  Uiso   1.00
C263   C     0.21194   0.17416   0.73054   0.00000  Uiso   1.00
C264   C     0.71194   0.67416   0.73054   0.00000  Uiso   1.00
C265   C     0.18004   0.83234   0.76740   0.00000  Uiso   1.00
C266   C     0.68004   0.33234   0.76740   0.00000  Uiso   1.00
C267   C     0.18004   0.16766   0.76740   0.00000  Uiso   1.00
C268   C     0.68004   0.66766   0.76740   0.00000  Uiso   1.00
C269   C     0.17421   0.86122   0.85259   0.00000  Uiso   1.00
C270   C     0.67421   0.36122   0.85259   0.00000  Uiso   1.00
C271   C     0.17421   0.13878   0.85259   0.00000  Uiso   1.00
C272   C     0.67421   0.63878   0.85259   0.00000  Uiso   1.00
C273   C     0.11395   0.74273   0.34395   0.00000  Uiso   1.00
C274   C     0.61395   0.24273   0.34395   0.00000  Uiso   1.00
C275   C     0.11395   0.25727   0.34395   0.00000  Uiso   1.00
C276   C     0.61395   0.75727   0.34395   0.00000  Uiso   1.00
C277   C     0.11216   0.77220   0.29848   0.00000  Uiso   1.00
C278   C     0.61216   0.27220   0.29848   0.00000  Uiso   1.00
C279   C     0.11216   0.22780   0.29848   0.00000  Uiso   1.00
C280   C     0.61216   0.72780   0.29848   0.00000  Uiso   1.00
C281   C     0.08175   0.77979   0.28466   0.00000  Uiso   1.00
C282   C     0.58175   0.27979   0.28466   0.00000  Uiso   1.00
C283   C     0.08175   0.22021   0.28466   0.00000  Uiso   1.00
C284   C     0.58175   0.72021   0.28466   0.00000  Uiso   1.00
H285   H     0.16158   0.74338   0.12235   0.00000  Uiso   1.00
H286   H     0.66158   0.24338   0.12235   0.00000  Uiso   1.00
H287   H     0.16158   0.25662   0.12235   0.00000  Uiso   1.00
H288   H     0.66158   0.75662   0.12235   0.00000  Uiso   1.00
H289   H     0.14776   0.74427   0.60195   0.00000  Uiso   1.00
H290   H     0.64776   0.24427   0.60195   0.00000  Uiso   1.00
H291   H     0.14776   0.25573   0.60195   0.00000  Uiso   1.00
H292   H     0.64776   0.75573   0.60195   0.00000  Uiso   1.00
H293   H     0.22693   0.83803   0.51411   0.00000  Uiso   1.00
H294   H     0.72693   0.33803   0.51411   0.00000  Uiso   1.00
H295   H     0.22693   0.16197   0.51411   0.00000  Uiso   1.00
H296   H     0.72693   0.66197   0.51411   0.00000  Uiso   1.00
H297   H     0.21637   0.83070   0.98690   0.00000  Uiso   1.00
H298   H     0.71637   0.33070   0.98690   0.00000  Uiso   1.00
H299   H     0.21637   0.16930   0.98690   0.00000  Uiso   1.00
H300   H     0.71637   0.66930   0.98690   0.00000  Uiso   1.00
H301   H     0.16482   0.82033   0.98402   0.00000  Uiso   1.00
H302   H     0.66482   0.32033   0.98402   0.00000  Uiso   1.00
H303   H     0.16482   0.17967   0.98402   0.00000  Uiso   1.00
H304   H     0.66482   0.67967   0.98402   0.00000  Uiso   1.00
H305   H     0.17523   0.82744   0.51304   0.00000  Uiso   1.00
H306   H     0.67523   0.32745   0.51304   0.00000  Uiso   1.00
H307   H     0.17523   0.17256   0.51304   0.00000  Uiso   1.00
H308   H     0.67523   0.67256   0.51304   0.00000  Uiso   1.00
H309   H     0.18999   0.87355   0.64749   0.00000  Uiso   1.00
H310   H     0.68999   0.37355   0.64749   0.00000  Uiso   1.00
H311   H     0.18999   0.12645   0.64749   0.00000  Uiso   1.00
H312   H     0.68999   0.62645   0.64749   0.00000  Uiso   1.00
H313   H     0.17634   0.86598   1.12171   0.00000  Uiso   1.00
H314   H     0.67634   0.36598   1.12171   0.00000  Uiso   1.00
H315   H     0.17634   0.13402   1.12171   0.00000  Uiso   1.00
H316   H     0.67634   0.63402   1.12171   0.00000  Uiso   1.00
H317   H     0.15162   0.86631   0.85576   0.00000  Uiso   1.00
H318   H     0.65162   0.36631   0.85576   0.00000  Uiso   1.00
H319   H     0.15162   0.13369   0.85576   0.00000  Uiso   1.00
H320   H     0.65162   0.63369   0.85576   0.00000  Uiso   1.00
H321   H     0.09679   0.73641   0.59470   0.00000  Uiso   1.00
H322   H     0.59679   0.23641   0.59470   0.00000  Uiso   1.00
H323   H     0.09679   0.26359   0.59470   0.00000  Uiso   1.00
H324   H     0.59679   0.76359   0.59470   0.00000  Uiso   1.00
H325   H     0.10945   0.73264   0.11391   0.00000  Uiso   1.00
H326   H     0.60945   0.23264   0.11391   0.00000  Uiso   1.00
H327   H     0.10945   0.26736   0.11391   0.00000  Uiso   1.00
H328   H     0.60945   0.76736   0.11391   0.00000  Uiso   1.00
H329   H     0.12921   0.77861   0.04655   0.00000  Uiso   1.00
H330   H     0.62921   0.27861   0.04655   0.00000  Uiso   1.00
H331   H     0.12921   0.22139   0.04655   0.00000  Uiso   1.00
H332   H     0.62921   0.72139   0.04655   0.00000  Uiso   1.00
H333   H     0.11681   0.78263   0.52575   0.00000  Uiso   1.00
H334   H     0.61681   0.28263   0.52575   0.00000  Uiso   1.00
H335   H     0.11681   0.21737   0.52575   0.00000  Uiso   1.00
H336   H     0.61681   0.71737   0.52575   0.00000  Uiso   1.00
H337   H     0.06479   0.77627   0.54888   0.00000  Uiso   1.00
H338   H     0.56479   0.27627   0.54888   0.00000  Uiso   1.00
H339   H     0.06479   0.22373   0.54888   0.00000  Uiso   1.00
H340   H     0.56479   0.72373   0.54888   0.00000  Uiso   1.00
H341   H     0.07578   0.76831   0.07624   0.00000  Uiso   1.00
H342   H     0.57578   0.26831   0.07624   0.00000  Uiso   1.00
H343   H     0.07578   0.23169   0.07624   0.00000  Uiso   1.00
H344   H     0.57578   0.73169   0.07624   0.00000  Uiso   1.00
H345   H     0.08131   0.80077   0.21721   0.00000  Uiso   1.00
H346   H     0.58131   0.30077   0.21721   0.00000  Uiso   1.00
H347   H     0.08131   0.19923   0.21721   0.00000  Uiso   1.00
H348   H     0.58131   0.69923   0.21721   0.00000  Uiso   1.00
H349   H     1.27335   1.29354   0.37662   0.00000  Uiso   1.00
H350   H     1.35354   1.22692   0.62652   0.00000  Uiso   1.00
H351   H     1.35354   0.77308   0.62652   0.00000  Uiso   1.00
H352   H     1.27335   0.70646   0.37662   0.00000  Uiso   1.00
H353   H     0.85354   0.72692   0.62652   0.00000  Uiso   1.00
H354   H     0.77335   0.79354   0.37662   0.00000  Uiso   1.00
H355   H     0.77335   1.20646   0.37662   0.00000  Uiso   1.00
H356   H     0.85354   1.27308   0.62652   0.00000  Uiso   1.00
loop_
_geom_bond_atom_site_label_1
_geom_bond_atom_site_label_2
_geom_bond_distance
_geom_bond_site_symmetry_2
_ccdc_geom_bond_type
C1     C11     1.403   .     S
C1     C17     1.427   .     S
C1     C119    1.423   .     D
C2     C12     1.403   .     S
C2     C18     1.427   .     S
C2     C120    1.423   1_565 D
C3     C9      1.403   .     S
C3     C19     1.427   .     S
C3     C117    1.423   .     D
C4     C10     1.403   .     S
C4     C20     1.427   .     S
C4     C118    1.423   1_565 D
C5     C15     1.403   .     D
C5     C21     1.427   .     S
C5     C117    1.423   .     S
C6     C16     1.403   .     D
C6     C22     1.427   .     S
C6     C118    1.423   .     S
C7     C13     1.403   .     D
C7     C23     1.427   .     S
C7     C119    1.423   .     S
C8     C14     1.403   .     D
C8     C24     1.427   .     S
C8     C120    1.423   .     S
C9     C11     1.384   1_455 D
C9     H73     1.074   .     S
C10    C12     1.384   .     D
C10    H74     1.074   .     S
C11    C9      1.384   1_655 D
C11    H75     1.074   .     S
C12    H76     1.074   .     S
C13    C15     1.384   1_655 S
C13    H77     1.074   .     S
C14    C16     1.384   .     S
C14    H78     1.074   .     S
C15    C13     1.384   1_455 S
C15    H79     1.074   .     S
C16    H80     1.074   .     S
C17    C25     1.504   .     S
C17    C113    1.401   .     D
C18    C26     1.504   .     S
C18    C114    1.401   1_565 D
C19    C27     1.504   .     D
C19    C115    1.401   .     S
C20    C28     1.504   .     D
C20    C116    1.401   1_565 S
C21    C29     1.504   .     S
C21    C115    1.401   .     D
C22    C30     1.504   .     S
C22    C116    1.401   .     D
C23    C31     1.504   .     D
C23    C113    1.401   .     S
C24    C32     1.504   .     D
C24    C114    1.401   .     S
C25    C33     1.411   .     S
C25    C67     1.404   .     D
C26    C34     1.411   .     S
C26    C68     1.404   .     D
C27    C35     1.411   .     S
C27    C65     1.404   .     S
C28    C36     1.411   .     S
C28    C66     1.404   .     S
C29    C37     1.411   .     S
C29    C71     1.404   .     D
C30    C38     1.411   .     S
C30    C72     1.404   .     D
C31    C39     1.411   .     S
C31    C69     1.404   .     S
C32    C40     1.411   .     S
C32    C70     1.404   .     S
C33    C41     1.404   .     D
C33    H81     1.083   .     S
C34    C42     1.404   .     D
C34    H82     1.083   .     S
C35    C43     1.404   .     D
C35    H83     1.083   .     S
C36    C44     1.404   .     D
C36    H84     1.083   .     S
C37    C45     1.404   .     D
C37    H85     1.083   .     S
C38    C46     1.404   .     D
C38    H86     1.083   .     S
C39    C47     1.404   .     D
C39    H87     1.083   .     S
C40    C48     1.404   .     D
C40    H88     1.083   .     S
C41    C49     1.398   .     S
C41    H89     1.082   .     S
C42    C50     1.398   .     S
C42    H90     1.082   .     S
C43    C51     1.398   .     S
C43    H91     1.082   .     S
C44    C52     1.398   .     S
C44    H92     1.082   .     S
C45    C53     1.398   .     S
C45    H93     1.082   .     S
C46    C54     1.398   .     S
C46    H94     1.082   .     S
C47    C55     1.398   .     S
C47    H95     1.082   .     S
C48    C56     1.398   .     S
C48    H96     1.082   .     S
C49    C59     1.403   .     D
C49    N130    1.437   .     S
C50    C60     1.403   .     D
C50    N129    1.437   .     S
C51    C57     1.403   .     S
C51    N132    1.437   .     D
C52    C58     1.403   .     S
C52    N131    1.437   .     D
C53    C63     1.403   .     D
C53    N126    1.437   .     S
C54    C64     1.403   .     D
C54    N125    1.437   .     S
C55    C61     1.403   .     S
C55    N128    1.437   .     D
C56    C62     1.403   .     S
C56    N127    1.437   .     D
C57    C65     1.397   .     D
C57    H97     1.081   .     S
C58    C66     1.397   .     D
C58    H98     1.081   .     S
C59    C67     1.397   .     S
C59    H99     1.081   .     S
C60    C68     1.397   .     S
C60    H100    1.081   .     S
C61    C69     1.397   .     D
C61    H101    1.081   .     S
C62    C70     1.397   .     D
C62    H102    1.081   .     S
C63    C71     1.397   .     S
C63    H103    1.081   .     S
C64    C72     1.397   .     S
C64    H104    1.081   .     S
C65    H105    1.073   .     S
C66    H106    1.073   .     S
C67    H107    1.073   .     S
C68    H108    1.073   .     S
C69    H109    1.073   .     S
C70    H110    1.073   .     S
C71    H111    1.073   .     S
C72    H112    1.073   .     S
C113   H121    1.084   .     S
C114   C18     1.401   1_545 D
C114   H122    1.084   .     S
C115   H123    1.084   .     S
C116   C20     1.401   1_545 S
C116   H124    1.084   .     S
C117   C119    1.437   1_455 S
C118   C4      1.423   1_545 D
C118   C120    1.437   .     S
C119   C117    1.437   1_655 S
C120   C2      1.423   1_545 D
N125   C134    1.301   .     D
N126   C133    1.301   .     D
N127   C136    1.301   .     S
N128   C135    1.301   .     S
N129   C138    1.301   .     D
N130   C137    1.301   .     D
N131   C140    1.301   .     S
N132   C139    1.301   .     S
C133   H181    1.083   .     S
C133   C211    1.475   .     S
C134   H182    1.083   .     S
C134   C212    1.475   .     S
C135   H183    1.083   .     S
C135   C209    1.475   .     D
C136   H184    1.083   .     S
C136   C210    1.475   .     D
C137   H185    1.083   .     S
C137   C215    1.475   .     S
C138   H186    1.083   .     S
C138   C216    1.475   .     S
C139   H187    1.083   .     S
C139   C213    1.475   .     D
C140   H188    1.083   .     S
C140   C214    1.475   .     D
C141   C149    1.375   .     D
C141   S173    1.707   .     S
C141   C227    1.499   .     S
C142   C150    1.375   .     D
C142   S174    1.707   .     S
C142   C228    1.499   .     S
C143   C151    1.375   .     S
C143   S175    1.707   .     S
C143   C225    1.499   .     D
C144   C152    1.375   .     S
C144   S176    1.707   .     S
C144   C226    1.499   .     D
C145   C153    1.375   .     D
C145   S177    1.707   .     S
C145   C231    1.499   .     S
C146   C154    1.375   .     D
C146   S178    1.707   .     S
C146   C232    1.499   .     S
C147   C155    1.375   .     S
C147   S179    1.707   .     S
C147   C229    1.499   .     D
C148   C156    1.375   .     S
C148   S180    1.707   .     S
C148   C230    1.499   .     D
C149   C157    1.385   .     S
C149   H189    1.082   .     S
C150   C158    1.385   .     S
C150   H190    1.082   .     S
C151   C159    1.385   .     D
C151   H191    1.079   .     S
C152   C160    1.385   .     D
C152   H192    1.079   .     S
C153   C161    1.385   .     S
C153   H193    1.079   .     S
C154   C162    1.385   .     S
C154   H194    1.079   .     S
C155   C163    1.385   .     D
C155   H195    1.082   .     S
C156   C164    1.385   .     D
C156   H196    1.082   .     S
C157   C165    1.410   .     D
C157   H352    1.081   1_455 S
C158   C166    1.410   .     D
C158   H355    1.081   1_545 S
C159   C167    1.410   .     S
C159   C197    1.518   .     S
C160   C168    1.410   .     S
C160   C198    1.518   .     S
C161   C169    1.410   .     D
C161   C199    1.518   .     S
C162   C170    1.410   .     D
C162   C200    1.518   .     S
C163   C171    1.410   .     S
C163   H349    1.081   1_445 S
C164   C172    1.410   .     S
C164   H354    1.081   .     S
C165   C170    1.521   .     S
C165   S173    1.722   .     S
C166   C169    1.521   .     S
C166   S174    1.722   .     S
C167   C172    1.521   .     D
C167   S175    1.722   .     S
C168   C171    1.521   .     D
C168   S176    1.722   .     S
C169   S177    1.722   .     S
C170   S178    1.722   .     S
C171   S179    1.722   .     S
C172   S180    1.722   .     S
C197   H201    1.106   .     S
C197   H205    1.112   .     S
C197   C264    1.538   .     S
C198   H202    1.106   .     S
C198   H206    1.112   .     S
C198   C263    1.538   .     S
C199   H203    1.106   .     S
C199   H207    1.112   .     S
C199   C262    1.538   .     S
C200   H204    1.106   .     S
C200   H208    1.112   .     S
C200   C261    1.538   .     S
C209   S217    1.708   .     S
C209   C241    1.374   .     S
C210   S218    1.708   .     S
C210   C242    1.374   .     S
C211   S219    1.708   .     S
C211   C243    1.374   .     D
C212   S220    1.708   .     S
C212   C244    1.374   .     D
C213   S221    1.708   .     S
C213   C245    1.374   .     S
C214   S222    1.708   .     S
C214   C246    1.374   .     S
C215   S223    1.708   .     S
C215   C247    1.374   .     D
C216   S224    1.708   .     S
C216   C248    1.374   .     D
S217   C225    1.726   .     S
S218   C226    1.726   .     S
S219   C227    1.726   .     S
S220   C228    1.726   .     S
S221   C229    1.726   .     S
S222   C230    1.726   .     S
S223   C231    1.726   .     S
S224   C232    1.726   .     S
C225   C233    1.404   .     S
C226   C234    1.404   .     S
C227   C235    1.404   .     D
C228   C236    1.404   .     D
C229   C237    1.404   .     S
C230   C238    1.404   .     S
C231   C239    1.404   .     D
C232   C240    1.404   .     D
C233   C241    1.380   .     D
C233   H353    1.082   .     S
C234   C242    1.380   .     D
C234   H350    1.082   1_445 S
C235   C243    1.380   .     S
C235   C249    1.517   .     S
C236   C244    1.380   .     S
C236   C250    1.517   .     S
C237   C245    1.380   .     D
C237   C251    1.517   .     S
C238   C246    1.380   .     D
C238   C252    1.517   .     S
C239   C247    1.380   .     S
C239   H356    1.082   1_545 S
C240   C248    1.380   .     S
C240   H351    1.082   1_455 S
C241   H253    1.082   .     S
C242   H254    1.082   .     S
C243   H255    1.080   .     S
C244   H256    1.080   .     S
C245   H257    1.080   .     S
C246   H258    1.080   .     S
C247   H259    1.082   .     S
C248   H260    1.082   .     S
C249   C273    1.539   .     S
C249   H285    1.109   .     S
C249   H289    1.103   .     S
C250   C274    1.539   .     S
C250   H286    1.109   .     S
C250   H290    1.103   .     S
C251   C275    1.539   .     S
C251   H287    1.109   .     S
C251   H291    1.103   .     S
C252   C276    1.539   .     S
C252   H288    1.109   .     S
C252   H292    1.103   .     S
C261   C265    1.530   .     S
C261   H293    1.114   .     S
C261   H297    1.108   .     S
C262   C266    1.530   .     S
C262   H294    1.114   .     S
C262   H298    1.108   .     S
C263   C267    1.530   .     S
C263   H295    1.114   .     S
C263   H299    1.108   .     S
C264   C268    1.530   .     S
C264   H296    1.114   .     S
C264   H300    1.108   .     S
C265   C269    1.528   .     S
C265   H301    1.114   .     S
C265   H305    1.110   .     S
C266   C270    1.528   .     S
C266   H302    1.114   .     S
C266   H306    1.110   .     S
C267   C271    1.528   .     S
C267   H303    1.114   .     S
C267   H307    1.110   .     S
C268   C272    1.528   .     S
C268   H304    1.114   .     S
C268   H308    1.110   .     S
C269   H309    1.112   .     S
C269   H313    1.108   .     S
C269   H317    1.111   .     S
C270   H310    1.112   .     S
C270   H314    1.108   .     S
C270   H318    1.111   .     S
C271   H311    1.112   .     S
C271   H315    1.108   .     S
C271   H319    1.111   .     S
C272   H312    1.112   .     S
C272   H316    1.108   .     S
C272   H320    1.111   .     S
C273   C277    1.530   .     S
C273   H321    1.111   .     S
C273   H325    1.110   .     S
C274   C278    1.530   .     S
C274   H322    1.111   .     S
C274   H326    1.110   .     S
C275   C279    1.530   .     S
C275   H323    1.111   .     S
C275   H327    1.110   .     S
C276   C280    1.530   .     S
C276   H324    1.111   .     S
C276   H328    1.110   .     S
C277   C281    1.528   .     S
C277   H329    1.113   .     S
C277   H333    1.112   .     S
C278   C282    1.528   .     S
C278   H330    1.113   .     S
C278   H334    1.112   .     S
C279   C283    1.528   .     S
C279   H331    1.113   .     S
C279   H335    1.112   .     S
C280   C284    1.528   .     S
C280   H332    1.113   .     S
C280   H336    1.112   .     S
C281   H337    1.109   .     S
C281   H341    1.108   .     S
C281   H345    1.112   .     S
C282   H338    1.109   .     S
C282   H342    1.108   .     S
C282   H346    1.112   .     S
C283   H339    1.109   .     S
C283   H343    1.108   .     S
C283   H347    1.112   .     S
C284   H340    1.109   .     S
C284   H344    1.108   .     S
C284   H348    1.112   .     S
H349   C163    1.081   1_665 S
H350   C234    1.082   1_665 S
H351   C240    1.082   1_655 S
H352   C157    1.081   1_655 S
H355   C158    1.081   1_565 S
H356   C239    1.082   1_565 S
