data_395
_audit_creation_date              2023-09-08
_audit_creation_method            'Materials Studio'
_symmetry_space_group_name_H-M    'P1'
_symmetry_Int_Tables_number       1
_symmetry_cell_setting            triclinic
loop_
_symmetry_equiv_pos_as_xyz
  x,y,z
_cell_length_a                    38.4173
_cell_length_b                    44.4373
_cell_length_c                    3.9932
_cell_angle_alpha                 66.7500
_cell_angle_beta                  90.0000
_cell_angle_gamma                 90.0000
loop_
_atom_site_label
_atom_site_type_symbol
_atom_site_fract_x
_atom_site_fract_y
_atom_site_fract_z
_atom_site_U_iso_or_equiv
_atom_site_adp_type
_atom_site_occupancy
C1     C     0.96771   0.43085   0.16647   0.00000  Uiso   1.00
C2     C     0.46771   0.93085   0.16647   0.00000  Uiso   1.00
C3     C     0.96771   0.56915  -0.16647   0.00000  Uiso   1.00
C4     C     0.46771   0.06915  -0.16647   0.00000  Uiso   1.00
C5     C     0.03229   0.56915  -0.16647   0.00000  Uiso   1.00
C6     C     0.53229   0.06915  -0.16647   0.00000  Uiso   1.00
C7     C     0.03229   0.43085   0.16647   0.00000  Uiso   1.00
C8     C     0.53229   0.93085   0.16647   0.00000  Uiso   1.00
C9     C     0.93521   0.40991   0.20922   0.00000  Uiso   1.00
C10    C     0.43521   0.90991   0.20922   0.00000  Uiso   1.00
C11    C     0.93521   0.59009  -0.20922   0.00000  Uiso   1.00
C12    C     0.43521   0.09009  -0.20922   0.00000  Uiso   1.00
C13    C     0.06479   0.59009  -0.20922   0.00000  Uiso   1.00
C14    C     0.56479   0.09009  -0.20922   0.00000  Uiso   1.00
C15    C     0.06479   0.40991   0.20922   0.00000  Uiso   1.00
C16    C     0.56479   0.90991   0.20922   0.00000  Uiso   1.00
C17    C     0.90400   0.41560   0.36056   0.00000  Uiso   1.00
C18    C     0.40400   0.91560   0.36056   0.00000  Uiso   1.00
C19    C     0.90400   0.58440  -0.36056   0.00000  Uiso   1.00
C20    C     0.40400   0.08440  -0.36056   0.00000  Uiso   1.00
C21    C     0.09600   0.58440  -0.36056   0.00000  Uiso   1.00
C22    C     0.59600   0.08440  -0.36056   0.00000  Uiso   1.00
C23    C     0.09600   0.41560   0.36056   0.00000  Uiso   1.00
C24    C     0.59600   0.91560   0.36056   0.00000  Uiso   1.00
C25    C     0.87389   0.39721   0.37711   0.00000  Uiso   1.00
C26    C     0.37390   0.89721   0.37711   0.00000  Uiso   1.00
C27    C     0.87389   0.60279  -0.37711   0.00000  Uiso   1.00
C28    C     0.37390   0.10279  -0.37711   0.00000  Uiso   1.00
C29    C     0.12610   0.60279  -0.37711   0.00000  Uiso   1.00
C30    C     0.62611   0.10279  -0.37711   0.00000  Uiso   1.00
C31    C     0.12610   0.39721   0.37711   0.00000  Uiso   1.00
C32    C     0.62611   0.89721   0.37711   0.00000  Uiso   1.00
C33    C     0.87446   0.37064   0.27120   0.00000  Uiso   1.00
C34    C     0.37446   0.87064   0.27120   0.00000  Uiso   1.00
C35    C     0.87446   0.62936  -0.27120   0.00000  Uiso   1.00
C36    C     0.37446   0.12936  -0.27120   0.00000  Uiso   1.00
C37    C     0.12554   0.62936  -0.27120   0.00000  Uiso   1.00
C38    C     0.62554   0.12936  -0.27120   0.00000  Uiso   1.00
C39    C     0.12554   0.37064   0.27120   0.00000  Uiso   1.00
C40    C     0.62554   0.87064   0.27120   0.00000  Uiso   1.00
C41    C     0.09392   0.36264   0.15189   0.00000  Uiso   1.00
C42    C     0.59392   0.86264   0.15189   0.00000  Uiso   1.00
C43    C     0.09392   0.63736  -0.15189   0.00000  Uiso   1.00
C44    C     0.59392   0.13736  -0.15189   0.00000  Uiso   1.00
C45    C     0.90608   0.63736  -0.15189   0.00000  Uiso   1.00
C46    C     0.40608   0.13736  -0.15189   0.00000  Uiso   1.00
C47    C     0.90608   0.36264   0.15189   0.00000  Uiso   1.00
C48    C     0.40608   0.86264   0.15189   0.00000  Uiso   1.00
C49    C     0.06416   0.38227   0.11553   0.00000  Uiso   1.00
C50    C     0.56416   0.88227   0.11553   0.00000  Uiso   1.00
C51    C     0.06416   0.61774  -0.11553   0.00000  Uiso   1.00
C52    C     0.56416   0.11774  -0.11553   0.00000  Uiso   1.00
C53    C     0.93584   0.61774  -0.11553   0.00000  Uiso   1.00
C54    C     0.43584   0.11774  -0.11553   0.00000  Uiso   1.00
C55    C     0.93584   0.38227   0.11553   0.00000  Uiso   1.00
C56    C     0.43584   0.88227   0.11553   0.00000  Uiso   1.00
H57    H     0.90308   0.43312   0.48630   0.00000  Uiso   1.00
H58    H     0.40308   0.93312   0.48630   0.00000  Uiso   1.00
H59    H     0.90308   0.56688  -0.48630   0.00000  Uiso   1.00
H60    H     0.40308   0.06688  -0.48630   0.00000  Uiso   1.00
H61    H     0.09692   0.56688  -0.48630   0.00000  Uiso   1.00
H62    H     0.59692   0.06688  -0.48630   0.00000  Uiso   1.00
H63    H     0.09692   0.43312   0.48630   0.00000  Uiso   1.00
H64    H     0.59692   0.93312   0.48630   0.00000  Uiso   1.00
H65    H     0.85034   0.40284   0.48929   0.00000  Uiso   1.00
H66    H     0.35034   0.90284   0.48929   0.00000  Uiso   1.00
H67    H     0.85034   0.59716  -0.48929   0.00000  Uiso   1.00
H68    H     0.35034   0.09716  -0.48929   0.00000  Uiso   1.00
H69    H     0.14966   0.59716  -0.48929   0.00000  Uiso   1.00
H70    H     0.64966   0.09716  -0.48929   0.00000  Uiso   1.00
H71    H     0.14966   0.40284   0.48929   0.00000  Uiso   1.00
H72    H     0.64966   0.90284   0.48929   0.00000  Uiso   1.00
H73    H     0.09300   0.34218   0.06933   0.00000  Uiso   1.00
H74    H     0.59300   0.84218   0.06933   0.00000  Uiso   1.00
H75    H     0.09300   0.65782  -0.06933   0.00000  Uiso   1.00
H76    H     0.59300   0.15782  -0.06933   0.00000  Uiso   1.00
H77    H     0.90700   0.65782  -0.06933   0.00000  Uiso   1.00
H78    H     0.40700   0.15782  -0.06933   0.00000  Uiso   1.00
H79    H     0.90700   0.34218   0.06933   0.00000  Uiso   1.00
H80    H     0.40700   0.84218   0.06933   0.00000  Uiso   1.00
H81    H     0.04105   0.37645  -0.00192   0.00000  Uiso   1.00
H82    H     0.54105   0.87645  -0.00192   0.00000  Uiso   1.00
H83    H     0.04105   0.62355   0.00192   0.00000  Uiso   1.00
H84    H     0.54105   0.12355   0.00192   0.00000  Uiso   1.00
H85    H     0.95895   0.62355   0.00192   0.00000  Uiso   1.00
H86    H     0.45895   0.12355   0.00192   0.00000  Uiso   1.00
H87    H     0.95895   0.37645  -0.00192   0.00000  Uiso   1.00
H88    H     0.45895   0.87645  -0.00192   0.00000  Uiso   1.00
C89    C     0.65838   0.14777  -0.28731   0.00000  Uiso   1.00
C90    C     0.15838   0.64777  -0.28731   0.00000  Uiso   1.00
C91    C     0.65838   0.85223   0.28731   0.00000  Uiso   1.00
C92    C     0.15838   0.35223   0.28731   0.00000  Uiso   1.00
C93    C     0.34162   0.85223   0.28731   0.00000  Uiso   1.00
C94    C     0.84162   0.35223   0.28731   0.00000  Uiso   1.00
C95    C     0.34162   0.14777  -0.28731   0.00000  Uiso   1.00
C96    C     0.84162   0.64777  -0.28731   0.00000  Uiso   1.00
N97    N     0.16147   0.66957  -0.14454   0.00000  Uiso   1.00
N98    N     0.66147   0.16957  -0.14454   0.00000  Uiso   1.00
N99    N     0.16147   0.33044   0.14454   0.00000  Uiso   1.00
N100   N     0.66147   0.83044   0.14454   0.00000  Uiso   1.00
N101   N     0.83853   0.33044   0.14454   0.00000  Uiso   1.00
N102   N     0.33853   0.83044   0.14454   0.00000  Uiso   1.00
N103   N     0.83853   0.66957  -0.14454   0.00000  Uiso   1.00
N104   N     0.33853   0.16957  -0.14454   0.00000  Uiso   1.00
C105   C     0.77421   0.67669  -0.17886   0.00000  Uiso   1.00
C106   C     0.27421   0.17669  -0.17886   0.00000  Uiso   1.00
C107   C     0.77421   0.32331   0.17886   0.00000  Uiso   1.00
C108   C     0.27421   0.82331   0.17886   0.00000  Uiso   1.00
C109   C     0.22579   0.32331   0.17886   0.00000  Uiso   1.00
C110   C     0.72579   0.82331   0.17886   0.00000  Uiso   1.00
C111   C     0.22579   0.67669  -0.17886   0.00000  Uiso   1.00
C112   C     0.72579   0.17669  -0.17886   0.00000  Uiso   1.00
C113   C     0.78030   0.73299  -0.02881   0.00000  Uiso   1.00
C114   C     0.28030   0.23299  -0.02881   0.00000  Uiso   1.00
C115   C     0.78030   0.26701   0.02881   0.00000  Uiso   1.00
C116   C     0.28030   0.76701   0.02881   0.00000  Uiso   1.00
C117   C     0.21970   0.26701   0.02881   0.00000  Uiso   1.00
C118   C     0.71970   0.76701   0.02881   0.00000  Uiso   1.00
C119   C     0.21970   0.73299  -0.02881   0.00000  Uiso   1.00
C120   C     0.71970   0.23299  -0.02881   0.00000  Uiso   1.00
C121   C     0.81024   0.71559  -0.05556   0.00000  Uiso   1.00
C122   C     0.31024   0.21559  -0.05556   0.00000  Uiso   1.00
C123   C     0.81024   0.28441   0.05556   0.00000  Uiso   1.00
C124   C     0.31024   0.78441   0.05556   0.00000  Uiso   1.00
C125   C     0.18976   0.28441   0.05556   0.00000  Uiso   1.00
C126   C     0.68976   0.78441   0.05556   0.00000  Uiso   1.00
C127   C     0.18976   0.71559  -0.05556   0.00000  Uiso   1.00
C128   C     0.68976   0.21559  -0.05556   0.00000  Uiso   1.00
C129   C     0.80744   0.68755  -0.13418   0.00000  Uiso   1.00
C130   C     0.30744   0.18755  -0.13418   0.00000  Uiso   1.00
C131   C     0.80744   0.31245   0.13418   0.00000  Uiso   1.00
C132   C     0.30744   0.81245   0.13418   0.00000  Uiso   1.00
C133   C     0.19256   0.31245   0.13418   0.00000  Uiso   1.00
C134   C     0.69256   0.81245   0.13418   0.00000  Uiso   1.00
C135   C     0.19256   0.68755  -0.13418   0.00000  Uiso   1.00
C136   C     0.69256   0.18755  -0.13418   0.00000  Uiso   1.00
C137   C     0.25582   0.30659   0.14836   0.00000  Uiso   1.00
C138   C     0.25307   0.27834   0.07421   0.00000  Uiso   1.00
C139   C     0.28310   0.26131   0.04526   0.00000  Uiso   1.00
H140   H     0.83591   0.72344  -0.01185   0.00000  Uiso   1.00
H141   H     0.28117   0.31539   0.18744   0.00000  Uiso   1.00
H142   H     0.30862   0.26981   0.08424   0.00000  Uiso   1.00
C143   C     0.53211   0.03445  -0.07283   0.00000  Uiso   1.00
C144   C     0.43710   0.01607  -0.01360   0.00000  Uiso   1.00
H145   H     0.41221   0.02585   0.01407   0.00000  Uiso   1.00
H146   H     0.67986   0.14237  -0.42812   0.00000  Uiso   1.00
H147   H     0.72804   0.15512  -0.23552   0.00000  Uiso   1.00
C148   C     0.75582   0.80659   0.14836   0.00000  Uiso   1.00
C149   C     0.75307   0.77834   0.07421   0.00000  Uiso   1.00
C150   C     0.78310   0.76131   0.04526   0.00000  Uiso   1.00
H151   H     0.33591   0.22344  -0.01185   0.00000  Uiso   1.00
H152   H     0.78117   0.81539   0.18744   0.00000  Uiso   1.00
H153   H     0.80862   0.76981   0.08424   0.00000  Uiso   1.00
C154   C     0.03211   0.53445  -0.07283   0.00000  Uiso   1.00
C155   C     0.93710   0.51607  -0.01360   0.00000  Uiso   1.00
H156   H     0.91221   0.52585   0.01407   0.00000  Uiso   1.00
H157   H     0.17986   0.64237  -0.42812   0.00000  Uiso   1.00
H158   H     0.22804   0.65512  -0.23552   0.00000  Uiso   1.00
C159   C     0.25582   0.69341  -0.14836   0.00000  Uiso   1.00
C160   C     0.25307   0.72166  -0.07421   0.00000  Uiso   1.00
C161   C     0.28310   0.73869  -0.04526   0.00000  Uiso   1.00
H162   H     0.83591   0.27656   0.01185   0.00000  Uiso   1.00
H163   H     0.28117   0.68461  -0.18743   0.00000  Uiso   1.00
H164   H     0.30862   0.73019  -0.08424   0.00000  Uiso   1.00
C165   C     0.53211   0.96555   0.07283   0.00000  Uiso   1.00
C166   C     0.43710   0.98393   0.01360   0.00000  Uiso   1.00
H167   H     0.41221   0.97415  -0.01407   0.00000  Uiso   1.00
H168   H     0.67986   0.85763   0.42812   0.00000  Uiso   1.00
H169   H     0.72804   0.84488   0.23552   0.00000  Uiso   1.00
C170   C     0.75582   0.19341  -0.14836   0.00000  Uiso   1.00
C171   C     0.75307   0.22166  -0.07421   0.00000  Uiso   1.00
C172   C     0.78310   0.23869  -0.04526   0.00000  Uiso   1.00
H173   H     0.33591   0.77656   0.01185   0.00000  Uiso   1.00
H174   H     0.78117   0.18461  -0.18744   0.00000  Uiso   1.00
H175   H     0.80862   0.23019  -0.08424   0.00000  Uiso   1.00
C176   C     0.03211   0.46555   0.07283   0.00000  Uiso   1.00
C177   C     0.93710   0.48393   0.01360   0.00000  Uiso   1.00
H178   H     0.91221   0.47415  -0.01407   0.00000  Uiso   1.00
H179   H     0.17986   0.35763   0.42812   0.00000  Uiso   1.00
H180   H     0.22804   0.34488   0.23552   0.00000  Uiso   1.00
C181   C     0.74418   0.69341  -0.14836   0.00000  Uiso   1.00
C182   C     0.74693   0.72166  -0.07421   0.00000  Uiso   1.00
C183   C     0.71690   0.73869  -0.04526   0.00000  Uiso   1.00
H184   H     0.16409   0.27656   0.01185   0.00000  Uiso   1.00
H185   H     0.71883   0.68461  -0.18743   0.00000  Uiso   1.00
H186   H     0.69138   0.73019  -0.08424   0.00000  Uiso   1.00
C187   C     0.46789   0.96555   0.07283   0.00000  Uiso   1.00
C188   C     0.56290   0.98393   0.01360   0.00000  Uiso   1.00
H189   H     0.58779   0.97415  -0.01407   0.00000  Uiso   1.00
H190   H     0.32014   0.85763   0.42812   0.00000  Uiso   1.00
H191   H     0.27196   0.84488   0.23552   0.00000  Uiso   1.00
C192   C     0.24418   0.19341  -0.14836   0.00000  Uiso   1.00
C193   C     0.24693   0.22166  -0.07421   0.00000  Uiso   1.00
C194   C     0.21690   0.23869  -0.04526   0.00000  Uiso   1.00
H195   H     0.66409   0.77656   0.01185   0.00000  Uiso   1.00
H196   H     0.21883   0.18461  -0.18744   0.00000  Uiso   1.00
H197   H     0.19138   0.23019  -0.08424   0.00000  Uiso   1.00
C198   C     0.96789   0.46555   0.07283   0.00000  Uiso   1.00
C199   C     0.06290   0.48393   0.01360   0.00000  Uiso   1.00
H200   H     0.08779   0.47415  -0.01407   0.00000  Uiso   1.00
H201   H     0.82014   0.35763   0.42812   0.00000  Uiso   1.00
H202   H     0.77196   0.34488   0.23552   0.00000  Uiso   1.00
C203   C     0.74418   0.30659   0.14836   0.00000  Uiso   1.00
C204   C     0.74693   0.27834   0.07421   0.00000  Uiso   1.00
C205   C     0.71690   0.26131   0.04526   0.00000  Uiso   1.00
H206   H     0.16409   0.72344  -0.01185   0.00000  Uiso   1.00
H207   H     0.71883   0.31539   0.18744   0.00000  Uiso   1.00
H208   H     0.69138   0.26981   0.08424   0.00000  Uiso   1.00
C209   C     0.46789   0.03445  -0.07283   0.00000  Uiso   1.00
C210   C     0.56290   0.01607  -0.01360   0.00000  Uiso   1.00
H211   H     0.58779   0.02585   0.01407   0.00000  Uiso   1.00
H212   H     0.32014   0.14237  -0.42812   0.00000  Uiso   1.00
H213   H     0.27196   0.15512  -0.23552   0.00000  Uiso   1.00
C214   C     0.24418   0.80659   0.14836   0.00000  Uiso   1.00
C215   C     0.24693   0.77834   0.07421   0.00000  Uiso   1.00
C216   C     0.21690   0.76131   0.04526   0.00000  Uiso   1.00
H217   H     0.66409   0.22344  -0.01185   0.00000  Uiso   1.00
H218   H     0.21883   0.81539   0.18744   0.00000  Uiso   1.00
H219   H     0.19138   0.76981   0.08424   0.00000  Uiso   1.00
C220   C     0.96789   0.53445  -0.07283   0.00000  Uiso   1.00
C221   C     0.06290   0.51607  -0.01360   0.00000  Uiso   1.00
H222   H     0.08779   0.52585   0.01407   0.00000  Uiso   1.00
H223   H     0.82014   0.64237  -0.42812   0.00000  Uiso   1.00
H224   H     0.77196   0.65512  -0.23552   0.00000  Uiso   1.00
C225   C     0.50000   0.08540  -0.22768   0.00000  Uiso   1.00
C226   C     0.50000   0.01737  -0.04063   0.00000  Uiso   1.00
H227   H     0.50000   0.11185  -0.33304   0.00000  Uiso   1.00
C228   C     0.00000   0.58540  -0.22768   0.00000  Uiso   1.00
C229   C     0.00000   0.51737  -0.04063   0.00000  Uiso   1.00
H230   H     0.00000   0.61185  -0.33304   0.00000  Uiso   1.00
C231   C     0.50000   0.91460   0.22768   0.00000  Uiso   1.00
C232   C     0.50000   0.98263   0.04063   0.00000  Uiso   1.00
H233   H     0.50000   0.88815   0.33304   0.00000  Uiso   1.00
C234   C     0.00000   0.41460   0.22768   0.00000  Uiso   1.00
C235   C     0.00000   0.48263   0.04063   0.00000  Uiso   1.00
H236   H     0.00000   0.38815   0.33304   0.00000  Uiso   1.00
loop_
_geom_bond_atom_site_label_1
_geom_bond_atom_site_label_2
_geom_bond_distance
_geom_bond_site_symmetry_2
_ccdc_geom_bond_type
C1     C9      1.526   .     S
C1     C198    1.436   .     D
C1     C234    1.407   1_655 S
C2     C10     1.526   .     S
C2     C187    1.436   .     S
C2     C231    1.407   .     D
C3     C11     1.526   .     S
C3     C220    1.436   .     D
C3     C228    1.407   1_655 S
C4     C12     1.526   .     S
C4     C209    1.436   .     D
C4     C225    1.407   .     S
C5     C13     1.526   .     S
C5     C154    1.436   .     S
C5     C228    1.407   .     D
C6     C14     1.526   .     S
C6     C143    1.436   .     S
C6     C225    1.407   .     D
C7     C15     1.526   .     S
C7     C176    1.436   .     S
C7     C234    1.407   .     D
C8     C16     1.526   .     S
C8     C165    1.436   .     D
C8     C231    1.407   .     S
C9     C17     1.410   .     D
C9     C55     1.419   .     S
C10    C18     1.410   .     D
C10    C56     1.419   .     S
C11    C19     1.410   .     D
C11    C53     1.419   .     S
C12    C20     1.410   .     S
C12    C54     1.419   .     D
C13    C21     1.410   .     D
C13    C51     1.419   .     S
C14    C22     1.410   .     D
C14    C52     1.419   .     S
C15    C23     1.410   .     S
C15    C49     1.419   .     D
C16    C24     1.410   .     D
C16    C50     1.419   .     S
C17    C25     1.403   .     S
C17    H57     1.081   .     S
C18    C26     1.403   .     S
C18    H58     1.081   .     S
C19    C27     1.403   .     S
C19    H59     1.081   .     S
C20    C28     1.403   .     D
C20    H60     1.081   .     S
C21    C29     1.403   .     S
C21    H61     1.081   .     S
C22    C30     1.403   .     S
C22    H62     1.081   .     S
C23    C31     1.403   .     D
C23    H63     1.081   .     S
C24    C32     1.403   .     S
C24    H64     1.081   .     S
C25    C33     1.402   .     D
C25    H65     1.082   .     S
C26    C34     1.402   .     D
C26    H66     1.082   .     S
C27    C35     1.402   .     D
C27    H67     1.082   .     S
C28    C36     1.402   .     S
C28    H68     1.082   .     S
C29    C37     1.402   .     D
C29    H69     1.082   .     S
C30    C38     1.402   .     D
C30    H70     1.082   .     S
C31    C39     1.402   .     S
C31    H71     1.082   .     S
C32    C40     1.402   .     D
C32    H72     1.082   .     S
C33    C47     1.401   .     S
C33    C94     1.491   .     S
C34    C48     1.401   .     S
C34    C93     1.491   .     S
C35    C45     1.401   .     S
C35    C96     1.491   .     S
C36    C46     1.401   .     D
C36    C95     1.491   .     S
C37    C43     1.401   .     S
C37    C90     1.491   .     S
C38    C44     1.401   .     S
C38    C89     1.491   .     S
C39    C41     1.401   .     D
C39    C92     1.491   .     S
C40    C42     1.401   .     S
C40    C91     1.491   .     S
C41    C49     1.410   .     S
C41    H73     1.083   .     S
C42    C50     1.410   .     D
C42    H74     1.083   .     S
C43    C51     1.410   .     D
C43    H75     1.083   .     S
C44    C52     1.410   .     D
C44    H76     1.083   .     S
C45    C53     1.410   .     D
C45    H77     1.083   .     S
C46    C54     1.410   .     S
C46    H78     1.083   .     S
C47    C55     1.410   .     D
C47    H79     1.083   .     S
C48    C56     1.410   .     D
C48    H80     1.083   .     S
C49    H81     1.082   .     S
C50    H82     1.082   .     S
C51    H83     1.082   .     S
C52    H84     1.082   .     S
C53    H85     1.082   .     S
C54    H86     1.082   .     S
C55    H87     1.082   .     S
C56    H88     1.082   .     S
C89    N98     1.309   .     D
C89    H146    1.078   .     S
C90    N97     1.309   .     D
C90    H157    1.078   .     S
C91    N100    1.309   .     D
C91    H168    1.078   .     S
C92    N99     1.309   .     D
C92    H179    1.078   .     S
C93    N102    1.309   .     D
C93    H190    1.078   .     S
C94    N101    1.309   .     D
C94    H201    1.078   .     S
C95    N104    1.309   .     D
C95    H212    1.078   .     S
C96    N103    1.309   .     D
C96    H223    1.078   .     S
N97    C135    1.447   .     S
N98    C136    1.447   .     S
N99    C133    1.447   .     S
N100   C134    1.447   .     S
N101   C131    1.447   .     S
N102   C132    1.447   .     S
N103   C129    1.447   .     S
N104   C130    1.447   .     S
C105   C129    1.401   .     S
C105   C181    1.403   .     D
C105   H224    1.072   .     S
C106   C130    1.401   .     S
C106   C192    1.403   .     D
C106   H213    1.072   .     S
C107   C131    1.401   .     D
C107   H202    1.072   .     S
C107   C203    1.403   .     S
C108   C132    1.401   .     S
C108   H191    1.072   .     S
C108   C214    1.403   .     D
C109   C133    1.401   .     S
C109   C137    1.403   .     D
C109   H180    1.072   .     S
C110   C134    1.401   .     S
C110   C148    1.403   .     D
C110   H169    1.072   .     S
C111   C135    1.401   .     D
C111   H158    1.072   .     S
C111   C159    1.403   .     S
C112   C136    1.401   .     S
C112   H147    1.072   .     S
C112   C170    1.403   .     D
C113   C121    1.413   .     S
C113   C150    1.406   .     D
C113   C182    1.415   .     S
C114   C122    1.413   .     S
C114   C139    1.406   .     S
C114   C193    1.415   .     D
C115   C123    1.413   .     D
C115   C172    1.406   .     S
C115   C204    1.415   .     S
C116   C124    1.413   .     S
C116   C161    1.406   .     D
C116   C215    1.415   .     S
C117   C125    1.413   .     S
C117   C138    1.415   .     S
C117   C194    1.406   .     D
C118   C126    1.413   .     S
C118   C149    1.415   .     D
C118   C183    1.406   .     S
C119   C127    1.413   .     D
C119   C160    1.415   .     S
C119   C216    1.406   .     S
C120   C128    1.413   .     S
C120   C171    1.415   .     S
C120   C205    1.406   .     D
C121   C129    1.404   .     D
C121   H140    1.083   .     S
C122   C130    1.404   .     D
C122   H151    1.083   .     S
C123   C131    1.404   .     S
C123   H162    1.083   .     S
C124   C132    1.404   .     D
C124   H173    1.083   .     S
C125   C133    1.404   .     D
C125   H184    1.083   .     S
C126   C134    1.404   .     D
C126   H195    1.083   .     S
C127   C135    1.404   .     S
C127   H206    1.083   .     S
C128   C136    1.404   .     D
C128   H217    1.083   .     S
C137   C138    1.403   .     S
C137   H141    1.083   .     S
C138   C139    1.409   .     D
C139   H142    1.084   .     S
C143   C210    1.404   .     S
C143   C226    1.427   .     D
C144   H145    1.074   .     S
C144   C166    1.389   1_545 D
C144   C209    1.404   .     S
C148   C149    1.403   .     S
C148   H152    1.083   .     S
C149   C150    1.409   .     S
C150   H153    1.084   .     S
C154   C221    1.404   .     S
C154   C229    1.427   .     D
C155   H156    1.074   .     S
C155   C177    1.389   .     D
C155   C220    1.404   .     S
C159   C160    1.403   .     D
C159   H163    1.083   .     S
C160   C161    1.409   .     S
C161   H164    1.084   .     S
C165   C188    1.404   .     S
C165   C232    1.427   .     S
C166   C144    1.389   1_565 D
C166   H167    1.074   .     S
C166   C187    1.404   .     S
C170   C171    1.403   .     S
C170   H174    1.083   .     S
C171   C172    1.409   .     D
C172   H175    1.084   .     S
C176   C199    1.404   .     S
C176   C235    1.427   .     D
C177   H178    1.074   .     S
C177   C198    1.404   .     S
C181   C182    1.403   .     S
C181   H185    1.083   .     S
C182   C183    1.409   .     D
C183   H186    1.084   .     S
C187   C232    1.427   .     D
C188   H189    1.074   .     S
C188   C210    1.389   1_565 D
C192   C193    1.403   .     S
C192   H196    1.083   .     S
C193   C194    1.409   .     S
C194   H197    1.084   .     S
C198   C235    1.427   1_655 S
C199   H200    1.074   .     S
C199   C221    1.389   .     D
C203   C204    1.403   .     D
C203   H207    1.083   .     S
C204   C205    1.409   .     S
C205   H208    1.084   .     S
C209   C226    1.427   .     S
C210   C188    1.389   1_545 D
C210   H211    1.074   .     S
C214   C215    1.403   .     S
C214   H218    1.083   .     S
C215   C216    1.409   .     D
C216   H219    1.084   .     S
C220   C229    1.427   1_655 S
C221   H222    1.074   .     S
C225   H227    1.081   .     S
C226   C232    1.447   1_545 S
C228   C3      1.407   1_455 S
C228   H230    1.081   .     S
C229   C220    1.427   1_455 S
C229   C235    1.447   .     S
C231   H233    1.081   .     S
C232   C226    1.447   1_565 S
C234   C1      1.407   1_455 S
C234   H236    1.081   .     S
C235   C198    1.427   1_455 S
