data_396
_audit_creation_date              2023-09-08
_audit_creation_method            'Materials Studio'
_symmetry_space_group_name_H-M    'P1'
_symmetry_Int_Tables_number       1
_symmetry_cell_setting            triclinic
loop_
_symmetry_equiv_pos_as_xyz
  x,y,z
_cell_length_a                    28.1415
_cell_length_b                    28.8877
_cell_length_c                    3.9107
_cell_angle_alpha                 90.0000
_cell_angle_beta                  70.4600
_cell_angle_gamma                 90.0000
loop_
_atom_site_label
_atom_site_type_symbol
_atom_site_fract_x
_atom_site_fract_y
_atom_site_fract_z
_atom_site_U_iso_or_equiv
_atom_site_adp_type
_atom_site_occupancy
C1     C     0.04201   0.55001   0.03212   0.00000  Uiso   1.00
C2     C     0.54201   0.05001   0.03212   0.00000  Uiso   1.00
C3     C     0.95799   0.55001  -0.03212   0.00000  Uiso   1.00
C4     C     0.45799   0.05001  -0.03212   0.00000  Uiso   1.00
C5     C     0.95799   0.44999  -0.03212   0.00000  Uiso   1.00
C6     C     0.45799   0.94999  -0.03212   0.00000  Uiso   1.00
C7     C     0.04201   0.44999   0.03212   0.00000  Uiso   1.00
C8     C     0.54201   0.94999   0.03212   0.00000  Uiso   1.00
C9     C     0.08053   0.47583   0.09980   0.00000  Uiso   1.00
C10    C     0.58053   0.97583   0.09980   0.00000  Uiso   1.00
C11    C     0.91947   0.47583  -0.09980   0.00000  Uiso   1.00
C12    C     0.41947   0.97583  -0.09980   0.00000  Uiso   1.00
C13    C     0.91947   0.52417  -0.09980   0.00000  Uiso   1.00
C14    C     0.41947   0.02417  -0.09980   0.00000  Uiso   1.00
C15    C     0.08053   0.52417   0.09980   0.00000  Uiso   1.00
C16    C     0.58053   0.02417   0.09980   0.00000  Uiso   1.00
C17    C     0.04426   0.40066   0.00136   0.00000  Uiso   1.00
C18    C     0.54426   0.90066   0.00136   0.00000  Uiso   1.00
C19    C     0.95574   0.40066  -0.00137   0.00000  Uiso   1.00
C20    C     0.45574   0.90066  -0.00137   0.00000  Uiso   1.00
C21    C     0.95574   0.59934  -0.00137   0.00000  Uiso   1.00
C22    C     0.45574   0.09934  -0.00137   0.00000  Uiso   1.00
C23    C     0.04426   0.59934   0.00136   0.00000  Uiso   1.00
C24    C     0.54426   0.09934   0.00136   0.00000  Uiso   1.00
C25    C     0.08858   0.37400  -0.03793   0.00000  Uiso   1.00
C26    C     0.58858   0.87400  -0.03793   0.00000  Uiso   1.00
C27    C     0.91142   0.37400   0.03793   0.00000  Uiso   1.00
C28    C     0.41142   0.87400   0.03793   0.00000  Uiso   1.00
C29    C     0.91142   0.62600   0.03793   0.00000  Uiso   1.00
C30    C     0.41142   0.12600   0.03793   0.00000  Uiso   1.00
C31    C     0.08858   0.62600  -0.03793   0.00000  Uiso   1.00
C32    C     0.58858   0.12600  -0.03793   0.00000  Uiso   1.00
C33    C     0.08775   0.33216   0.15402   0.00000  Uiso   1.00
C34    C     0.58775   0.83216   0.15402   0.00000  Uiso   1.00
C35    C     0.91225   0.33216  -0.15403   0.00000  Uiso   1.00
C36    C     0.41225   0.83216  -0.15403   0.00000  Uiso   1.00
C37    C     0.91225   0.66785  -0.15403   0.00000  Uiso   1.00
C38    C     0.41225   0.16785  -0.15403   0.00000  Uiso   1.00
C39    C     0.08775   0.66785   0.15402   0.00000  Uiso   1.00
C40    C     0.58775   0.16785   0.15402   0.00000  Uiso   1.00
C41    C     0.13204   0.30623   0.10744   0.00000  Uiso   1.00
C42    C     0.63204   0.80623   0.10744   0.00000  Uiso   1.00
C43    C     0.86796   0.30623  -0.10744   0.00000  Uiso   1.00
C44    C     0.36796   0.80623  -0.10744   0.00000  Uiso   1.00
C45    C     0.86796   0.69377  -0.10744   0.00000  Uiso   1.00
C46    C     0.36796   0.19377  -0.10744   0.00000  Uiso   1.00
C47    C     0.13204   0.69377   0.10744   0.00000  Uiso   1.00
C48    C     0.63204   0.19377   0.10744   0.00000  Uiso   1.00
C49    C     0.17933   0.32122  -0.13220   0.00000  Uiso   1.00
C50    C     0.67933   0.82122  -0.13220   0.00000  Uiso   1.00
C51    C     0.82067   0.32122   0.13220   0.00000  Uiso   1.00
C52    C     0.32067   0.82122   0.13220   0.00000  Uiso   1.00
C53    C     0.82067   0.67878   0.13220   0.00000  Uiso   1.00
C54    C     0.32067   0.17878   0.13220   0.00000  Uiso   1.00
C55    C     0.17933   0.67878  -0.13220   0.00000  Uiso   1.00
C56    C     0.67933   0.17878  -0.13220   0.00000  Uiso   1.00
C57    C     0.18037   0.36254  -0.32793   0.00000  Uiso   1.00
C58    C     0.68037   0.86254  -0.32793   0.00000  Uiso   1.00
C59    C     0.81964   0.36254   0.32792   0.00000  Uiso   1.00
C60    C     0.31964   0.86254   0.32793   0.00000  Uiso   1.00
C61    C     0.81964   0.63746   0.32792   0.00000  Uiso   1.00
C62    C     0.31964   0.13746   0.32793   0.00000  Uiso   1.00
C63    C     0.18037   0.63746  -0.32793   0.00000  Uiso   1.00
C64    C     0.68037   0.13746  -0.32793   0.00000  Uiso   1.00
C65    C     0.13600   0.38779  -0.28492   0.00000  Uiso   1.00
C66    C     0.63600   0.88779  -0.28492   0.00000  Uiso   1.00
C67    C     0.86400   0.38779   0.28492   0.00000  Uiso   1.00
C68    C     0.36400   0.88779   0.28492   0.00000  Uiso   1.00
C69    C     0.86400   0.61221   0.28492   0.00000  Uiso   1.00
C70    C     0.36400   0.11221   0.28492   0.00000  Uiso   1.00
C71    C     0.13600   0.61221  -0.28492   0.00000  Uiso   1.00
C72    C     0.63600   0.11221  -0.28492   0.00000  Uiso   1.00
C73    C     0.22475   0.29703  -0.18074   0.00000  Uiso   1.00
C74    C     0.72475   0.79703  -0.18074   0.00000  Uiso   1.00
C75    C     0.77525   0.29703   0.18074   0.00000  Uiso   1.00
C76    C     0.27525   0.79703   0.18074   0.00000  Uiso   1.00
C77    C     0.77525   0.70297   0.18074   0.00000  Uiso   1.00
C78    C     0.27525   0.20297   0.18074   0.00000  Uiso   1.00
C79    C     0.22475   0.70297  -0.18074   0.00000  Uiso   1.00
C80    C     0.72475   0.20297  -0.18074   0.00000  Uiso   1.00
H81    H     0.10948   0.45978   0.15377   0.00000  Uiso   1.00
H82    H     0.60948   0.95978   0.15377   0.00000  Uiso   1.00
H83    H     0.89052   0.45978  -0.15377   0.00000  Uiso   1.00
H84    H     0.39052   0.95978  -0.15377   0.00000  Uiso   1.00
H85    H     0.89052   0.54022  -0.15377   0.00000  Uiso   1.00
H86    H     0.39052   0.04022  -0.15377   0.00000  Uiso   1.00
H87    H     0.10948   0.54022   0.15377   0.00000  Uiso   1.00
H88    H     0.60948   0.04022   0.15377   0.00000  Uiso   1.00
H89    H     0.05466   0.32023   0.33427   0.00000  Uiso   1.00
H90    H     0.55466   0.82023   0.33427   0.00000  Uiso   1.00
H91    H     0.94534   0.32023  -0.33427   0.00000  Uiso   1.00
H92    H     0.44534   0.82023  -0.33427   0.00000  Uiso   1.00
H93    H     0.94534   0.67977  -0.33427   0.00000  Uiso   1.00
H94    H     0.44534   0.17977  -0.33427   0.00000  Uiso   1.00
H95    H     0.05466   0.67977   0.33427   0.00000  Uiso   1.00
H96    H     0.55466   0.17977   0.33427   0.00000  Uiso   1.00
H97    H     0.12964   0.27639   0.25333   0.00000  Uiso   1.00
H98    H     0.62964   0.77639   0.25333   0.00000  Uiso   1.00
H99    H     0.87036   0.27639  -0.25333   0.00000  Uiso   1.00
H100   H     0.37036   0.77639  -0.25333   0.00000  Uiso   1.00
H101   H     0.87036   0.72361  -0.25333   0.00000  Uiso   1.00
H102   H     0.37036   0.22361  -0.25333   0.00000  Uiso   1.00
H103   H     0.12964   0.72361   0.25333   0.00000  Uiso   1.00
H104   H     0.62964   0.22361   0.25333   0.00000  Uiso   1.00
H105   H     0.21357   0.37463  -0.50727   0.00000  Uiso   1.00
H106   H     0.71357   0.87463  -0.50727   0.00000  Uiso   1.00
H107   H     0.78643   0.37463   0.50727   0.00000  Uiso   1.00
H108   H     0.28643   0.87463   0.50727   0.00000  Uiso   1.00
H109   H     0.78643   0.62537   0.50727   0.00000  Uiso   1.00
H110   H     0.28643   0.12537   0.50727   0.00000  Uiso   1.00
H111   H     0.21357   0.62537  -0.50727   0.00000  Uiso   1.00
H112   H     0.71357   0.12537  -0.50727   0.00000  Uiso   1.00
H113   H     0.13881   0.41669  -0.44052   0.00000  Uiso   1.00
H114   H     0.63881   0.91669  -0.44052   0.00000  Uiso   1.00
H115   H     0.86119   0.41669   0.44052   0.00000  Uiso   1.00
H116   H     0.36119   0.91669   0.44052   0.00000  Uiso   1.00
H117   H     0.86119   0.58331   0.44052   0.00000  Uiso   1.00
H118   H     0.36119   0.08331   0.44052   0.00000  Uiso   1.00
H119   H     0.13881   0.58331  -0.44052   0.00000  Uiso   1.00
H120   H     0.63881   0.08331  -0.44052   0.00000  Uiso   1.00
H121   H     0.25688   0.30771  -0.38040   0.00000  Uiso   1.00
H122   H     0.75688   0.80771  -0.38040   0.00000  Uiso   1.00
H123   H     0.74312   0.30771   0.38040   0.00000  Uiso   1.00
H124   H     0.24312   0.80771   0.38040   0.00000  Uiso   1.00
H125   H     0.74312   0.69229   0.38040   0.00000  Uiso   1.00
H126   H     0.24312   0.19229   0.38040   0.00000  Uiso   1.00
H127   H     0.25688   0.69229  -0.38040   0.00000  Uiso   1.00
H128   H     0.75688   0.19229  -0.38040   0.00000  Uiso   1.00
N129   N     0.22873   0.26050   0.02352   0.00000  Uiso   1.00
N130   N     0.72873   0.76050   0.02352   0.00000  Uiso   1.00
N131   N     0.77127   0.26050  -0.02352   0.00000  Uiso   1.00
N132   N     0.27127   0.76050  -0.02352   0.00000  Uiso   1.00
N133   N     0.77127   0.73950  -0.02352   0.00000  Uiso   1.00
N134   N     0.27127   0.23950  -0.02352   0.00000  Uiso   1.00
N135   N     0.22873   0.73950   0.02352   0.00000  Uiso   1.00
N136   N     0.72873   0.23950   0.02352   0.00000  Uiso   1.00
C137   C     0.00000   0.37745   0.00000   0.00000  Uiso   1.00
C138   C     0.50000   0.87745  -0.00000   0.00000  Uiso   1.00
C139   C     0.00000   0.62255   0.00000   0.00000  Uiso   1.00
C140   C     0.50000   0.12255  -0.00000   0.00000  Uiso   1.00
C141   C     0.00000   0.52492   0.00000   0.00000  Uiso   1.00
C142   C     0.50000   0.02492  -0.00000   0.00000  Uiso   1.00
C143   C     0.00000   0.47508   0.00000   0.00000  Uiso   1.00
C144   C     0.50000   0.97508  -0.00000   0.00000  Uiso   1.00
H145   H     0.00000   0.34205   0.00000   0.00000  Uiso   1.00
H146   H     0.50000   0.84205  -0.00000   0.00000  Uiso   1.00
H147   H     0.00000   0.65795   0.00000   0.00000  Uiso   1.00
H148   H     0.50000   0.15795  -0.00000   0.00000  Uiso   1.00
loop_
_geom_bond_atom_site_label_1
_geom_bond_atom_site_label_2
_geom_bond_distance
_geom_bond_site_symmetry_2
_ccdc_geom_bond_type
C1     C15     1.412   .     S
C1     C23     1.430   .     S
C1     C141    1.428   .     D
C2     C16     1.412   .     S
C2     C24     1.430   .     D
C2     C142    1.428   .     S
C3     C13     1.412   .     S
C3     C21     1.430   .     D
C3     C141    1.428   1_655 S
C4     C14     1.412   .     S
C4     C22     1.430   .     S
C4     C142    1.428   .     D
C5     C11     1.412   .     S
C5     C19     1.430   .     D
C5     C143    1.428   1_655 S
C6     C12     1.412   .     S
C6     C20     1.430   .     S
C6     C144    1.428   .     D
C7     C9      1.412   .     S
C7     C17     1.430   .     S
C7     C143    1.428   .     D
C8     C10     1.412   .     S
C8     C18     1.430   .     D
C8     C144    1.428   .     S
C9     C15     1.397   .     D
C9     H81     1.019   .     S
C10    C16     1.397   1_565 D
C10    H82     1.019   .     S
C11    C13     1.397   .     D
C11    H83     1.019   .     S
C12    C14     1.397   1_565 D
C12    H84     1.019   .     S
C13    H85     1.019   .     S
C14    C12     1.397   1_545 D
C14    H86     1.019   .     S
C15    H87     1.019   .     S
C16    C10     1.397   1_545 D
C16    H88     1.019   .     S
C17    C25     1.430   .     S
C17    C137    1.416   .     D
C18    C26     1.430   .     S
C18    C138    1.416   .     S
C19    C27     1.430   .     S
C19    C137    1.416   1_655 S
C20    C28     1.430   .     S
C20    C138    1.416   .     D
C21    C29     1.430   .     S
C21    C139    1.416   1_655 S
C22    C30     1.430   .     S
C22    C140    1.416   .     D
C23    C31     1.430   .     S
C23    C139    1.416   .     D
C24    C32     1.430   .     S
C24    C140    1.416   .     S
C25    C33     1.419   .     D
C25    C65     1.418   .     S
C26    C34     1.419   .     D
C26    C66     1.418   .     S
C27    C35     1.419   .     D
C27    C67     1.418   .     S
C28    C36     1.419   .     D
C28    C68     1.418   .     S
C29    C37     1.419   .     D
C29    C69     1.418   .     S
C30    C38     1.419   .     D
C30    C70     1.418   .     S
C31    C39     1.419   .     D
C31    C71     1.418   .     S
C32    C40     1.419   .     D
C32    C72     1.418   .     S
C33    C41     1.413   .     S
C33    H89     1.022   .     S
C34    C42     1.413   .     S
C34    H90     1.022   .     S
C35    C43     1.413   .     S
C35    H91     1.022   .     S
C36    C44     1.413   .     S
C36    H92     1.022   .     S
C37    C45     1.413   .     S
C37    H93     1.022   .     S
C38    C46     1.413   .     S
C38    H94     1.022   .     S
C39    C47     1.413   .     S
C39    H95     1.022   .     S
C40    C48     1.413   .     S
C40    H96     1.022   .     S
C41    C49     1.415   .     D
C41    H97     1.023   .     S
C42    C50     1.415   .     D
C42    H98     1.023   .     S
C43    C51     1.415   .     D
C43    H99     1.023   .     S
C44    C52     1.415   .     D
C44    H100    1.023   .     S
C45    C53     1.415   .     D
C45    H101    1.023   .     S
C46    C54     1.415   .     D
C46    H102    1.023   .     S
C47    C55     1.415   .     D
C47    H103    1.023   .     S
C48    C56     1.415   .     D
C48    H104    1.023   .     S
C49    C57     1.413   .     S
C49    C73     1.413   .     S
C50    C58     1.413   .     S
C50    C74     1.413   .     S
C51    C59     1.413   .     S
C51    C75     1.413   .     S
C52    C60     1.413   .     S
C52    C76     1.413   .     S
C53    C61     1.413   .     S
C53    C77     1.413   .     S
C54    C62     1.413   .     S
C54    C78     1.413   .     S
C55    C63     1.413   .     S
C55    C79     1.413   .     S
C56    C64     1.413   .     S
C56    C80     1.413   .     S
C57    C65     1.407   .     D
C57    H105    1.024   .     S
C58    C66     1.407   .     D
C58    H106    1.024   .     S
C59    C67     1.407   .     D
C59    H107    1.024   .     S
C60    C68     1.407   .     D
C60    H108    1.024   .     S
C61    C69     1.407   .     D
C61    H109    1.024   .     S
C62    C70     1.407   .     D
C62    H110    1.024   .     S
C63    C71     1.407   .     D
C63    H111    1.024   .     S
C64    C72     1.407   .     D
C64    H112    1.024   .     S
C65    H113    1.020   .     S
C66    H114    1.020   .     S
C67    H115    1.020   .     S
C68    H116    1.020   .     S
C69    H117    1.020   .     S
C70    H118    1.020   .     S
C71    H119    1.020   .     S
C72    H120    1.020   .     S
C73    H121    1.025   .     S
C73    N129    1.350   .     D
C74    H122    1.025   .     S
C74    N130    1.350   .     D
C75    H123    1.025   .     S
C75    N131    1.350   .     D
C76    H124    1.025   .     S
C76    N132    1.350   .     D
C77    H125    1.025   .     S
C77    N133    1.350   .     D
C78    H126    1.025   .     S
C78    N134    1.350   .     D
C79    H127    1.025   .     S
C79    N135    1.350   .     D
C80    H128    1.025   .     S
C80    N136    1.350   .     D
N129   N134    1.299   .     S
N130   N133    1.299   .     S
N131   N136    1.299   .     S
N132   N135    1.299   .     S
C137   C19     1.416   1_455 S
C137   H145    1.022   .     S
C138   H146    1.022   .     S
C139   C21     1.416   1_455 S
C139   H147    1.022   .     S
C140   H148    1.022   .     S
C141   C3      1.428   1_455 S
C141   C143    1.440   .     S
C142   C144    1.440   1_545 S
C143   C5      1.428   1_455 S
C144   C142    1.440   1_565 S
