data_397
_audit_creation_date              2023-09-08
_audit_creation_method            'Materials Studio'
_symmetry_space_group_name_H-M    'P1'
_symmetry_Int_Tables_number       1
_symmetry_cell_setting            triclinic
loop_
_symmetry_equiv_pos_as_xyz
  x,y,z
_cell_length_a                    51.3200
_cell_length_b                    42.3900
_cell_length_c                    3.8200
_cell_angle_alpha                 90.0000
_cell_angle_beta                  96.6000
_cell_angle_gamma                 90.0000
loop_
_atom_site_label
_atom_site_type_symbol
_atom_site_fract_x
_atom_site_fract_y
_atom_site_fract_z
_atom_site_U_iso_or_equiv
_atom_site_adp_type
_atom_site_occupancy
C1     C     0.82592   0.82867   0.43347   0.00000  Uiso   1.00
C2     C     0.80166   0.81327   0.43014   0.00000  Uiso   1.00
C3     C     0.52209   0.43284   0.44575   0.00000  Uiso   1.00
C4     C     0.52136   0.46635   0.42223   0.00000  Uiso   1.00
C5     C     0.54222   0.48363   0.31057   0.00000  Uiso   1.00
C6     C     0.04683   0.91384   0.42723   0.00000  Uiso   1.00
C7     C     0.06926   0.86659   0.24530   0.00000  Uiso   1.00
C8     C     0.09336   0.87729   0.41715   0.00000  Uiso   1.00
C9     C     0.87942   0.85970   0.60881   0.00000  Uiso   1.00
C10    C     0.59398   0.40631   0.59148   0.00000  Uiso   1.00
C11    C     0.57102   0.42387   0.60446   0.00000  Uiso   1.00
C12    C     0.80027   0.21801   0.54821   0.00000  Uiso   1.00
C13    C     0.84803   0.21790   0.67876   0.00000  Uiso   1.00
C14    C     0.87569   0.17139   0.54411   0.00000  Uiso   1.00
C15    C     0.95156   0.11537   0.75659   0.00000  Uiso   1.00
C16    C     0.22448   0.76736   0.49334   0.00000  Uiso   1.00
C17    C     0.24663   0.78298   0.39246   0.00000  Uiso   1.00
C18    C     0.77229   0.73361   0.41117   0.00000  Uiso   1.00
C19    C     0.14882   0.18596   0.45443   0.00000  Uiso   1.00
C20    C     0.67526   0.73190   0.33702   0.00000  Uiso   1.00
C21    C     0.17210   0.82965   0.58733   0.00000  Uiso   1.00
C22    C     0.19656   0.81466   0.59565   0.00000  Uiso   1.00
C23    C     0.47565   0.43284   0.55950   0.00000  Uiso   1.00
C24    C     0.47636   0.46635   0.58276   0.00000  Uiso   1.00
C25    C     0.45549   0.48363   0.69447   0.00000  Uiso   1.00
C26    C     0.95095   0.91380   0.57890   0.00000  Uiso   1.00
C27    C     0.92866   0.86648   0.76166   0.00000  Uiso   1.00
C28    C     0.90452   0.87708   0.59009   0.00000  Uiso   1.00
C29    C     0.11854   0.86008   0.39902   0.00000  Uiso   1.00
C30    C     0.40379   0.40610   0.41566   0.00000  Uiso   1.00
C31    C     0.42672   0.42374   0.40206   0.00000  Uiso   1.00
C32    C     0.19844   0.21642   0.47423   0.00000  Uiso   1.00
C33    C     0.15080   0.21693   0.32867   0.00000  Uiso   1.00
C34    C     0.12244   0.17100   0.46282   0.00000  Uiso   1.00
C35    C     0.04630   0.11534   0.24989   0.00000  Uiso   1.00
C36    C     0.77457   0.76495   0.53133   0.00000  Uiso   1.00
C37    C     0.75180   0.77918   0.63224   0.00000  Uiso   1.00
C38    C     0.22803   0.73617   0.61457   0.00000  Uiso   1.00
C39    C     0.84950   0.18674   0.55728   0.00000  Uiso   1.00
C40    C     0.32379   0.73329   0.67444   0.00000  Uiso   1.00
N41    N     0.75081   0.80836   0.76442   0.00000  Uiso   1.00
S42    S     0.72049   0.81751   0.86656   0.00000  Uiso   1.00
N43    N     0.70926   0.78148   0.73437   0.00000  Uiso   1.00
C44    C     0.99886   0.01688   0.50243   0.00000  Uiso   1.00
C45    C     0.49888   0.58313   0.50261   0.00000  Uiso   1.00
C46    C     0.39678   0.30945   0.43997   0.00000  Uiso   1.00
N47    N     0.41362   0.29415   0.35527   0.00000  Uiso   1.00
C48    C     0.60141   0.30957   0.56340   0.00000  Uiso   1.00
N49    N     0.58458   0.29408   0.64542   0.00000  Uiso   1.00
H50    H     0.82625   0.85227   0.32745   0.00000  Uiso   1.00
H51    H     0.78394   0.82555   0.32569   0.00000  Uiso   1.00
H52    H     0.55868   0.47205   0.21492   0.00000  Uiso   1.00
H53    H     0.06837   0.84478   0.09730   0.00000  Uiso   1.00
H54    H     0.86292   0.87378   0.66849   0.00000  Uiso   1.00
H55    H     0.61227   0.41504   0.72668   0.00000  Uiso   1.00
H56    H     0.57224   0.44534   0.75606   0.00000  Uiso   1.00
H57    H     0.86576   0.23037   0.77892   0.00000  Uiso   1.00
H58    H     0.96964   0.12385   0.89914   0.00000  Uiso   1.00
H59    H     0.24504   0.80681   0.29164   0.00000  Uiso   1.00
H60    H     0.78894   0.72162   0.32180   0.00000  Uiso   1.00
H61    H     0.67613   0.75562   0.23417   0.00000  Uiso   1.00
H62    H     0.17132   0.85308   0.69684   0.00000  Uiso   1.00
H63    H     0.21400   0.82703   0.70745   0.00000  Uiso   1.00
H64    H     0.43905   0.47204   0.79036   0.00000  Uiso   1.00
H65    H     0.92962   0.84467   0.90965   0.00000  Uiso   1.00
H66    H     0.13503   0.87432   0.34216   0.00000  Uiso   1.00
H67    H     0.38546   0.41475   0.28084   0.00000  Uiso   1.00
H68    H     0.42543   0.44521   0.25016   0.00000  Uiso   1.00
H69    H     0.13331   0.22957   0.22195   0.00000  Uiso   1.00
H70    H     0.02825   0.12389   0.10712   0.00000  Uiso   1.00
H71    H     0.32340   0.75716   0.77296   0.00000  Uiso   1.00
H72    H     0.49889   0.60858   0.50268   0.00000  Uiso   1.00
C73    C     0.32592   0.32867   0.43347   0.00000  Uiso   1.00
C74    C     0.30166   0.31327   0.43014   0.00000  Uiso   1.00
C75    C     0.02209   0.93284   0.44575   0.00000  Uiso   1.00
C76    C     0.02136   0.96635   0.42223   0.00000  Uiso   1.00
C77    C     0.04222   0.98363   0.31057   0.00000  Uiso   1.00
C78    C     0.54683   0.41384   0.42723   0.00000  Uiso   1.00
C79    C     0.56926   0.36659   0.24530   0.00000  Uiso   1.00
C80    C     0.59336   0.37729   0.41715   0.00000  Uiso   1.00
C81    C     0.37942   0.35970   0.60881   0.00000  Uiso   1.00
C82    C     0.09398   0.90631   0.59148   0.00000  Uiso   1.00
C83    C     0.07102   0.92387   0.60446   0.00000  Uiso   1.00
C84    C     0.30027   0.71801   0.54821   0.00000  Uiso   1.00
C85    C     0.34803   0.71790   0.67876   0.00000  Uiso   1.00
C86    C     0.37569   0.67139   0.54411   0.00000  Uiso   1.00
C87    C     0.45156   0.61537   0.75659   0.00000  Uiso   1.00
C88    C     0.72448   0.26736   0.49334   0.00000  Uiso   1.00
C89    C     0.74663   0.28298   0.39246   0.00000  Uiso   1.00
C90    C     0.27229   0.23361   0.41117   0.00000  Uiso   1.00
C91    C     0.64882   0.68596   0.45443   0.00000  Uiso   1.00
C92    C     0.17526   0.23190   0.33702   0.00000  Uiso   1.00
C93    C     0.67210   0.32965   0.58733   0.00000  Uiso   1.00
C94    C     0.69656   0.31466   0.59565   0.00000  Uiso   1.00
C95    C     0.97565   0.93284   0.55950   0.00000  Uiso   1.00
C96    C     0.97636   0.96635   0.58276   0.00000  Uiso   1.00
C97    C     0.95549   0.98363   0.69447   0.00000  Uiso   1.00
C98    C     0.45095   0.41380   0.57890   0.00000  Uiso   1.00
C99    C     0.42866   0.36648   0.76166   0.00000  Uiso   1.00
C100   C     0.40452   0.37708   0.59009   0.00000  Uiso   1.00
C101   C     0.61854   0.36008   0.39902   0.00000  Uiso   1.00
C102   C     0.90379   0.90610   0.41566   0.00000  Uiso   1.00
C103   C     0.92672   0.92374   0.40206   0.00000  Uiso   1.00
C104   C     0.69844   0.71642   0.47423   0.00000  Uiso   1.00
C105   C     0.65080   0.71693   0.32867   0.00000  Uiso   1.00
C106   C     0.62244   0.67100   0.46282   0.00000  Uiso   1.00
C107   C     0.54630   0.61534   0.24989   0.00000  Uiso   1.00
C108   C     0.27457   0.26495   0.53133   0.00000  Uiso   1.00
C109   C     0.25180   0.27918   0.63224   0.00000  Uiso   1.00
C110   C     0.72803   0.23617   0.61457   0.00000  Uiso   1.00
C111   C     0.34950   0.68674   0.55728   0.00000  Uiso   1.00
C112   C     0.82379   0.23329   0.67444   0.00000  Uiso   1.00
N113   N     0.25081   0.30836   0.76442   0.00000  Uiso   1.00
S114   S     0.22049   0.31751   0.86656   0.00000  Uiso   1.00
N115   N     0.20926   0.28148   0.73437   0.00000  Uiso   1.00
C116   C     0.49886   0.51688   0.50243   0.00000  Uiso   1.00
C117   C     0.99888   0.08313   0.50261   0.00000  Uiso   1.00
C118   C     0.89678   0.80945   0.43997   0.00000  Uiso   1.00
N119   N     0.91362   0.79415   0.35527   0.00000  Uiso   1.00
C120   C     0.10141   0.80957   0.56340   0.00000  Uiso   1.00
N121   N     0.08458   0.79408   0.64542   0.00000  Uiso   1.00
H122   H     0.32625   0.35227   0.32745   0.00000  Uiso   1.00
H123   H     0.28394   0.32555   0.32569   0.00000  Uiso   1.00
H124   H     0.05868   0.97205   0.21492   0.00000  Uiso   1.00
H125   H     0.56837   0.34478   0.09730   0.00000  Uiso   1.00
H126   H     0.36292   0.37378   0.66849   0.00000  Uiso   1.00
H127   H     0.11227   0.91504   0.72668   0.00000  Uiso   1.00
H128   H     0.07224   0.94534   0.75606   0.00000  Uiso   1.00
H129   H     0.36576   0.73037   0.77892   0.00000  Uiso   1.00
H130   H     0.46964   0.62385   0.89914   0.00000  Uiso   1.00
H131   H     0.74504   0.30681   0.29164   0.00000  Uiso   1.00
H132   H     0.28894   0.22162   0.32180   0.00000  Uiso   1.00
H133   H     0.17613   0.25562   0.23417   0.00000  Uiso   1.00
H134   H     0.67132   0.35308   0.69684   0.00000  Uiso   1.00
H135   H     0.71400   0.32703   0.70745   0.00000  Uiso   1.00
H136   H     0.93905   0.97204   0.79036   0.00000  Uiso   1.00
H137   H     0.42962   0.34467   0.90965   0.00000  Uiso   1.00
H138   H     0.63503   0.37432   0.34216   0.00000  Uiso   1.00
H139   H     0.88546   0.91475   0.28084   0.00000  Uiso   1.00
H140   H     0.92543   0.94521   0.25016   0.00000  Uiso   1.00
H141   H     0.63331   0.72957   0.22195   0.00000  Uiso   1.00
H142   H     0.52825   0.62389   0.10712   0.00000  Uiso   1.00
H143   H     0.82340   0.25716   0.77296   0.00000  Uiso   1.00
H144   H     0.99889   0.10858   0.50268   0.00000  Uiso   1.00
C145   C     0.82592   0.17133   0.43347   0.00000  Uiso   1.00
C146   C     0.80166   0.18673   0.43014   0.00000  Uiso   1.00
C147   C     0.52209   0.56716   0.44575   0.00000  Uiso   1.00
C148   C     0.52136   0.53365   0.42223   0.00000  Uiso   1.00
C149   C     0.54222   0.51637   0.31057   0.00000  Uiso   1.00
C150   C     0.04683   0.08616   0.42723   0.00000  Uiso   1.00
C151   C     0.06926   0.13341   0.24530   0.00000  Uiso   1.00
C152   C     0.09336   0.12271   0.41715   0.00000  Uiso   1.00
C153   C     0.87942   0.14030   0.60881   0.00000  Uiso   1.00
C154   C     0.59398   0.59369   0.59148   0.00000  Uiso   1.00
C155   C     0.57102   0.57613   0.60446   0.00000  Uiso   1.00
C156   C     0.80027   0.78199   0.54821   0.00000  Uiso   1.00
C157   C     0.84803   0.78210   0.67876   0.00000  Uiso   1.00
C158   C     0.87569   0.82861   0.54411   0.00000  Uiso   1.00
C159   C     0.95156   0.88463   0.75659   0.00000  Uiso   1.00
C160   C     0.22448   0.23264   0.49334   0.00000  Uiso   1.00
C161   C     0.24663   0.21702   0.39246   0.00000  Uiso   1.00
C162   C     0.77229   0.26639   0.41117   0.00000  Uiso   1.00
C163   C     0.14882   0.81404   0.45443   0.00000  Uiso   1.00
C164   C     0.67526   0.26810   0.33702   0.00000  Uiso   1.00
C165   C     0.17210   0.17035   0.58733   0.00000  Uiso   1.00
C166   C     0.19656   0.18534   0.59565   0.00000  Uiso   1.00
C167   C     0.47565   0.56716   0.55950   0.00000  Uiso   1.00
C168   C     0.47636   0.53365   0.58276   0.00000  Uiso   1.00
C169   C     0.45549   0.51637   0.69447   0.00000  Uiso   1.00
C170   C     0.95095   0.08620   0.57890   0.00000  Uiso   1.00
C171   C     0.92866   0.13352   0.76166   0.00000  Uiso   1.00
C172   C     0.90452   0.12292   0.59009   0.00000  Uiso   1.00
C173   C     0.11854   0.13992   0.39902   0.00000  Uiso   1.00
C174   C     0.40379   0.59390   0.41566   0.00000  Uiso   1.00
C175   C     0.42672   0.57626   0.40206   0.00000  Uiso   1.00
C176   C     0.19844   0.78358   0.47423   0.00000  Uiso   1.00
C177   C     0.15080   0.78307   0.32867   0.00000  Uiso   1.00
C178   C     0.12244   0.82900   0.46282   0.00000  Uiso   1.00
C179   C     0.04630   0.88466   0.24989   0.00000  Uiso   1.00
C180   C     0.77457   0.23505   0.53133   0.00000  Uiso   1.00
C181   C     0.75180   0.22082   0.63224   0.00000  Uiso   1.00
C182   C     0.22803   0.26383   0.61457   0.00000  Uiso   1.00
C183   C     0.84950   0.81326   0.55728   0.00000  Uiso   1.00
C184   C     0.32379   0.26671   0.67444   0.00000  Uiso   1.00
N185   N     0.75081   0.19164   0.76442   0.00000  Uiso   1.00
S186   S     0.72049   0.18249   0.86656   0.00000  Uiso   1.00
N187   N     0.70926   0.21852   0.73437   0.00000  Uiso   1.00
C188   C     0.99886   0.98312   0.50243   0.00000  Uiso   1.00
C189   C     0.49888   0.41687   0.50261   0.00000  Uiso   1.00
C190   C     0.39678   0.69055   0.43997   0.00000  Uiso   1.00
N191   N     0.41362   0.70585   0.35527   0.00000  Uiso   1.00
C192   C     0.60141   0.69043   0.56340   0.00000  Uiso   1.00
N193   N     0.58458   0.70592   0.64542   0.00000  Uiso   1.00
H194   H     0.82625   0.14773   0.32745   0.00000  Uiso   1.00
H195   H     0.78394   0.17445   0.32569   0.00000  Uiso   1.00
H196   H     0.55868   0.52795   0.21492   0.00000  Uiso   1.00
H197   H     0.06837   0.15522   0.09730   0.00000  Uiso   1.00
H198   H     0.86292   0.12622   0.66849   0.00000  Uiso   1.00
H199   H     0.61227   0.58496   0.72668   0.00000  Uiso   1.00
H200   H     0.57224   0.55466   0.75606   0.00000  Uiso   1.00
H201   H     0.86576   0.76963   0.77892   0.00000  Uiso   1.00
H202   H     0.96964   0.87615   0.89914   0.00000  Uiso   1.00
H203   H     0.24504   0.19319   0.29164   0.00000  Uiso   1.00
H204   H     0.78894   0.27838   0.32180   0.00000  Uiso   1.00
H205   H     0.67613   0.24438   0.23417   0.00000  Uiso   1.00
H206   H     0.17132   0.14692   0.69684   0.00000  Uiso   1.00
H207   H     0.21400   0.17297   0.70745   0.00000  Uiso   1.00
H208   H     0.43905   0.52796   0.79036   0.00000  Uiso   1.00
H209   H     0.92962   0.15533   0.90965   0.00000  Uiso   1.00
H210   H     0.13503   0.12568   0.34216   0.00000  Uiso   1.00
H211   H     0.38546   0.58525   0.28084   0.00000  Uiso   1.00
H212   H     0.42543   0.55479   0.25016   0.00000  Uiso   1.00
H213   H     0.13331   0.77043   0.22195   0.00000  Uiso   1.00
H214   H     0.02825   0.87611   0.10712   0.00000  Uiso   1.00
H215   H     0.32340   0.24284   0.77296   0.00000  Uiso   1.00
H216   H     0.49889   0.39142   0.50268   0.00000  Uiso   1.00
C217   C     0.32592   0.67133   0.43347   0.00000  Uiso   1.00
C218   C     0.30166   0.68673   0.43014   0.00000  Uiso   1.00
C219   C     0.02209   0.06716   0.44575   0.00000  Uiso   1.00
C220   C     0.02136   0.03365   0.42223   0.00000  Uiso   1.00
C221   C     0.04222   0.01637   0.31057   0.00000  Uiso   1.00
C222   C     0.54683   0.58616   0.42723   0.00000  Uiso   1.00
C223   C     0.56926   0.63341   0.24530   0.00000  Uiso   1.00
C224   C     0.59336   0.62271   0.41715   0.00000  Uiso   1.00
C225   C     0.37942   0.64030   0.60881   0.00000  Uiso   1.00
C226   C     0.09398   0.09369   0.59148   0.00000  Uiso   1.00
C227   C     0.07102   0.07613   0.60446   0.00000  Uiso   1.00
C228   C     0.30027   0.28199   0.54821   0.00000  Uiso   1.00
C229   C     0.34803   0.28210   0.67876   0.00000  Uiso   1.00
C230   C     0.37569   0.32861   0.54411   0.00000  Uiso   1.00
C231   C     0.45156   0.38463   0.75659   0.00000  Uiso   1.00
C232   C     0.72448   0.73264   0.49334   0.00000  Uiso   1.00
C233   C     0.74663   0.71702   0.39246   0.00000  Uiso   1.00
C234   C     0.27229   0.76639   0.41117   0.00000  Uiso   1.00
C235   C     0.64882   0.31404   0.45443   0.00000  Uiso   1.00
C236   C     0.17526   0.76810   0.33702   0.00000  Uiso   1.00
C237   C     0.67210   0.67035   0.58733   0.00000  Uiso   1.00
C238   C     0.69656   0.68534   0.59565   0.00000  Uiso   1.00
C239   C     0.97565   0.06716   0.55950   0.00000  Uiso   1.00
C240   C     0.97636   0.03365   0.58276   0.00000  Uiso   1.00
C241   C     0.95549   0.01637   0.69447   0.00000  Uiso   1.00
C242   C     0.45095   0.58620   0.57890   0.00000  Uiso   1.00
C243   C     0.42866   0.63352   0.76166   0.00000  Uiso   1.00
C244   C     0.40452   0.62292   0.59009   0.00000  Uiso   1.00
C245   C     0.61854   0.63992   0.39902   0.00000  Uiso   1.00
C246   C     0.90379   0.09390   0.41566   0.00000  Uiso   1.00
C247   C     0.92672   0.07626   0.40206   0.00000  Uiso   1.00
C248   C     0.69844   0.28358   0.47423   0.00000  Uiso   1.00
C249   C     0.65080   0.28307   0.32867   0.00000  Uiso   1.00
C250   C     0.62244   0.32900   0.46282   0.00000  Uiso   1.00
C251   C     0.54630   0.38466   0.24989   0.00000  Uiso   1.00
C252   C     0.27457   0.73505   0.53133   0.00000  Uiso   1.00
C253   C     0.25180   0.72082   0.63224   0.00000  Uiso   1.00
C254   C     0.72803   0.76383   0.61457   0.00000  Uiso   1.00
C255   C     0.34950   0.31326   0.55728   0.00000  Uiso   1.00
C256   C     0.82379   0.76671   0.67444   0.00000  Uiso   1.00
N257   N     0.25081   0.69164   0.76442   0.00000  Uiso   1.00
S258   S     0.22049   0.68249   0.86656   0.00000  Uiso   1.00
N259   N     0.20926   0.71852   0.73437   0.00000  Uiso   1.00
C260   C     0.49886   0.48312   0.50243   0.00000  Uiso   1.00
C261   C     0.99888   0.91687   0.50261   0.00000  Uiso   1.00
C262   C     0.89678   0.19055   0.43997   0.00000  Uiso   1.00
N263   N     0.91362   0.20585   0.35527   0.00000  Uiso   1.00
C264   C     0.10141   0.19043   0.56340   0.00000  Uiso   1.00
N265   N     0.08458   0.20592   0.64542   0.00000  Uiso   1.00
H266   H     0.32625   0.64773   0.32745   0.00000  Uiso   1.00
H267   H     0.28394   0.67445   0.32569   0.00000  Uiso   1.00
H268   H     0.05868   0.02795   0.21492   0.00000  Uiso   1.00
H269   H     0.56837   0.65522   0.09730   0.00000  Uiso   1.00
H270   H     0.36292   0.62622   0.66849   0.00000  Uiso   1.00
H271   H     0.11227   0.08496   0.72668   0.00000  Uiso   1.00
H272   H     0.07224   0.05466   0.75606   0.00000  Uiso   1.00
H273   H     0.36576   0.26963   0.77892   0.00000  Uiso   1.00
H274   H     0.46964   0.37615   0.89914   0.00000  Uiso   1.00
H275   H     0.74504   0.69319   0.29164   0.00000  Uiso   1.00
H276   H     0.28894   0.77838   0.32180   0.00000  Uiso   1.00
H277   H     0.17613   0.74438   0.23417   0.00000  Uiso   1.00
H278   H     0.67132   0.64692   0.69684   0.00000  Uiso   1.00
H279   H     0.71400   0.67297   0.70745   0.00000  Uiso   1.00
H280   H     0.93905   0.02796   0.79036   0.00000  Uiso   1.00
H281   H     0.42962   0.65533   0.90965   0.00000  Uiso   1.00
H282   H     0.63503   0.62568   0.34216   0.00000  Uiso   1.00
H283   H     0.88546   0.08525   0.28084   0.00000  Uiso   1.00
H284   H     0.92543   0.05479   0.25016   0.00000  Uiso   1.00
H285   H     0.63331   0.27043   0.22195   0.00000  Uiso   1.00
H286   H     0.52825   0.37611   0.10712   0.00000  Uiso   1.00
H287   H     0.82340   0.74284   0.77296   0.00000  Uiso   1.00
H288   H     0.99889   0.89142   0.50268   0.00000  Uiso   1.00
loop_
_geom_bond_atom_site_label_1
_geom_bond_atom_site_label_2
_geom_bond_distance
_geom_bond_site_symmetry_2
_ccdc_geom_bond_type
C1     C2      1.405   .     S
C1     H50     1.080   .     S
C1     C183    1.408   .     D
C2     H51     1.083   .     S
C2     C156    1.405   .     D
C3     C4      1.424   .     D
C3     C78     1.512   .     S
C3     C189    1.408   .     S
C4     C5      1.403   .     S
C4     C260    1.419   .     S
C5     H52     1.077   .     S
C5     C149    1.388   .     D
C6     C75     1.512   .     S
C6     C83     1.410   .     D
C6     C179    1.409   .     S
C7     C8      1.407   .     S
C7     H53     1.082   .     S
C7     C179    1.407   .     D
C8     C29     1.492   .     S
C8     C82     1.397   .     D
C9     C28     1.493   .     S
C9     H54     1.081   .     S
C9     C158    1.350   .     D
C10    C11     1.399   .     D
C10    H55     1.083   .     S
C10    C80     1.397   .     S
C11    H56     1.077   .     S
C11    C78     1.410   .     S
C12    C112    1.405   .     D
C12    C146    1.405   .     S
C12    C180    1.499   .     S
C13    C39     1.405   .     D
C13    H57     1.083   .     S
C13    C112    1.403   .     S
C14    C39     1.499   .     S
C14    C153    1.350   .     D
C14    C262    1.445   .     S
C15    H58     1.082   .     S
C15    C170    1.409   .     D
C15    C171    1.407   .     S
C16    C17     1.407   .     D
C16    C38     1.406   .     S
C16    C176    1.497   .     S
C17    H59     1.081   .     S
C17    C234    1.487   .     S
C18    C36     1.406   .     D
C18    H60     1.083   .     S
C18    C233    1.487   .     S
C19    C33     1.406   .     S
C19    C34     1.499   .     S
C19    C165    1.408   .     D
C20    H61     1.082   .     S
C20    C104    1.406   .     D
C20    C105    1.404   .     S
C21    C22     1.404   .     S
C21    H62     1.080   .     S
C21    C163    1.408   .     D
C22    H63     1.082   .     S
C22    C176    1.404   .     D
C23    C24     1.423   .     S
C23    C98     1.512   .     S
C23    C189    1.409   .     D
C24    C25     1.404   .     D
C24    C260    1.419   .     S
C25    H64     1.076   .     S
C25    C169    1.388   .     S
C26    C95     1.512   .     S
C26    C103    1.410   .     D
C26    C159    1.409   .     S
C27    C28     1.407   .     S
C27    H65     1.082   .     S
C27    C159    1.407   .     D
C28    C102    1.397   .     D
C29    H66     1.082   .     S
C29    C178    1.351   .     D
C30    C31     1.400   .     D
C30    H67     1.083   .     S
C30    C100    1.397   .     S
C31    H68     1.077   .     S
C31    C98     1.410   .     S
C32    C92     1.406   .     S
C32    C160    1.497   .     S
C32    C166    1.404   .     D
C33    H69     1.084   .     S
C33    C92     1.404   .     D
C34    C173    1.351   .     D
C34    C264    1.444   .     S
C35    H70     1.082   .     S
C35    C150    1.409   .     S
C35    C151    1.407   .     D
C36    C37     1.408   .     S
C36    C156    1.499   .     S
C37    N41     1.339   .     D
C37    C254    1.377   .     S
C38    C253    1.377   .     S
C38    N259    1.341   .     D
C39    C145    1.408   .     S
C40    H71     1.081   .     S
C40    C84     1.405   .     D
C40    C85     1.403   .     S
N41    S42     1.692   .     S
S42    N43     1.689   .     S
N43    C254    1.341   .     D
C44    C188    1.431   1_545 D
C44    C220    1.419   1_655 S
C44    C240    1.419   .     S
C45    H72     1.079   .     S
C45    C147    1.408   .     S
C45    C167    1.409   .     D
C46    N47     1.156   .     T
C46    C230    1.445   .     S
C48    N49     1.157   .     T
C48    C250    1.444   .     S
C73    C74     1.405   .     S
C73    H122    1.080   .     S
C73    C255    1.408   .     D
C74    H123    1.083   .     S
C74    C228    1.405   .     D
C75    C76     1.424   .     S
C75    C261    1.408   1_455 D
C76    C77     1.403   .     D
C76    C188    1.419   1_455 S
C77    H124    1.077   .     S
C77    C221    1.388   1_565 S
C78    C251    1.409   .     D
C79    C80     1.407   .     D
C79    H125    1.082   .     S
C79    C251    1.407   .     S
C80    C101    1.492   .     S
C81    C100    1.493   .     S
C81    H126    1.081   .     S
C81    C230    1.350   .     D
C82    C83     1.399   .     S
C82    H127    1.083   .     S
C83    H128    1.077   .     S
C84    C218    1.405   .     S
C84    C252    1.499   .     S
C85    C111    1.405   .     D
C85    H129    1.083   .     S
C86    C111    1.499   .     S
C86    C190    1.445   .     S
C86    C225    1.350   .     D
C87    H130    1.082   .     S
C87    C242    1.409   .     S
C87    C243    1.407   .     D
C88    C89     1.407   .     D
C88    C110    1.406   .     S
C88    C248    1.497   .     S
C89    H131    1.081   .     S
C89    C162    1.487   .     S
C90    C108    1.406   .     D
C90    H132    1.083   .     S
C90    C161    1.487   .     S
C91    C105    1.406   .     D
C91    C106    1.499   .     S
C91    C237    1.408   .     S
C92    H133    1.082   .     S
C93    C94     1.404   .     D
C93    H134    1.080   .     S
C93    C235    1.408   .     S
C94    H135    1.082   .     S
C94    C248    1.404   .     S
C95    C96     1.423   .     D
C95    C261    1.409   .     S
C96    C97     1.404   .     S
C96    C188    1.419   .     S
C97    H136    1.076   .     S
C97    C241    1.388   1_565 D
C98    C231    1.409   .     D
C99    C100    1.407   .     D
C99    H137    1.082   .     S
C99    C231    1.407   .     S
C101   H138    1.082   .     S
C101   C250    1.351   .     D
C102   C103    1.400   .     S
C102   H139    1.083   .     S
C103   H140    1.077   .     S
C104   C232    1.497   .     S
C104   C238    1.404   .     S
C105   H141    1.084   .     S
C106   C192    1.444   .     S
C106   C245    1.351   .     D
C107   H142    1.082   .     S
C107   C222    1.409   .     S
C107   C223    1.407   .     D
C108   C109    1.408   .     S
C108   C228    1.499   .     S
C109   N113    1.339   .     D
C109   C182    1.377   .     S
C110   C181    1.377   .     S
C110   N187    1.341   .     D
C111   C217    1.408   .     S
C112   H143    1.081   .     S
N113   S114    1.692   .     S
S114   N115    1.689   .     S
N115   C182    1.341   .     D
C116   C148    1.419   .     S
C116   C168    1.419   .     S
C116   C260    1.431   .     D
C117   H144    1.079   .     S
C117   C219    1.408   1_655 D
C117   C239    1.409   .     S
C118   N119    1.156   .     T
C118   C158    1.445   .     S
C120   N121    1.157   .     T
C120   C178    1.444   .     S
C145   C146    1.405   .     D
C145   H194    1.080   .     S
C146   H195    1.083   .     S
C147   C148    1.424   .     D
C147   C222    1.512   .     S
C148   C149    1.403   .     S
C149   H196    1.077   .     S
C150   C219    1.512   .     S
C150   C227    1.410   .     D
C151   C152    1.407   .     S
C151   H197    1.082   .     S
C152   C173    1.492   .     S
C152   C226    1.397   .     D
C153   C172    1.493   .     S
C153   H198    1.081   .     S
C154   C155    1.399   .     S
C154   H199    1.083   .     S
C154   C224    1.397   .     D
C155   H200    1.077   .     S
C155   C222    1.410   .     D
C156   C256    1.405   .     S
C157   C183    1.405   .     S
C157   H201    1.083   .     S
C157   C256    1.403   .     D
C158   C183    1.499   .     S
C159   H202    1.082   .     S
C160   C161    1.407   .     D
C160   C182    1.406   .     S
C161   H203    1.081   .     S
C162   C180    1.406   .     D
C162   H204    1.083   .     S
C163   C177    1.406   .     S
C163   C178    1.499   .     S
C164   H205    1.082   .     S
C164   C248    1.406   .     D
C164   C249    1.404   .     S
C165   C166    1.404   .     S
C165   H206    1.080   .     S
C166   H207    1.082   .     S
C167   C168    1.423   .     S
C167   C242    1.512   .     S
C168   C169    1.404   .     D
C169   H208    1.076   .     S
C170   C239    1.512   .     S
C170   C247    1.410   .     S
C171   C172    1.407   .     D
C171   H209    1.082   .     S
C172   C246    1.397   .     S
C173   H210    1.082   .     S
C174   C175    1.400   .     S
C174   H211    1.083   .     S
C174   C244    1.397   .     D
C175   H212    1.077   .     S
C175   C242    1.410   .     D
C176   C236    1.406   .     S
C177   H213    1.084   .     S
C177   C236    1.404   .     D
C179   H214    1.082   .     S
C180   C181    1.408   .     S
C181   N185    1.339   .     D
C184   H215    1.081   .     S
C184   C228    1.405   .     S
C184   C229    1.403   .     D
N185   S186    1.692   .     S
S186   N187    1.689   .     S
C188   C76     1.419   1_655 S
C188   C44     1.431   1_565 D
C189   H216    1.079   .     S
C190   N191    1.156   .     T
C192   N193    1.157   .     T
C217   C218    1.405   .     D
C217   H266    1.080   .     S
C218   H267    1.083   .     S
C219   C117    1.408   1_455 D
C219   C220    1.424   .     S
C220   C44     1.419   1_455 S
C220   C221    1.403   .     D
C221   C77     1.388   1_545 S
C221   H268    1.077   .     S
C223   C224    1.407   .     S
C223   H269    1.082   .     S
C224   C245    1.492   .     S
C225   C244    1.493   .     S
C225   H270    1.081   .     S
C226   C227    1.399   .     S
C226   H271    1.083   .     S
C227   H272    1.077   .     S
C229   C255    1.405   .     S
C229   H273    1.083   .     S
C230   C255    1.499   .     S
C231   H274    1.082   .     S
C232   C233    1.407   .     D
C232   C254    1.406   .     S
C233   H275    1.081   .     S
C234   C252    1.406   .     D
C234   H276    1.083   .     S
C235   C249    1.406   .     D
C235   C250    1.499   .     S
C236   H277    1.082   .     S
C237   C238    1.404   .     D
C237   H278    1.080   .     S
C238   H279    1.082   .     S
C239   C240    1.423   .     D
C240   C241    1.404   .     S
C241   C97     1.388   1_545 D
C241   H280    1.076   .     S
C243   C244    1.407   .     S
C243   H281    1.082   .     S
C245   H282    1.082   .     S
C246   C247    1.400   .     D
C246   H283    1.083   .     S
C247   H284    1.077   .     S
C249   H285    1.084   .     S
C251   H286    1.082   .     S
C252   C253    1.408   .     S
C253   N257    1.339   .     D
C256   H287    1.081   .     S
N257   S258    1.692   .     S
S258   N259    1.689   .     S
C261   C75     1.408   1_655 D
C261   H288    1.079   .     S
C262   N263    1.156   .     T
C264   N265    1.157   .     T
