data_398
_audit_creation_date              2023-09-08
_audit_creation_method            'Materials Studio'
_symmetry_space_group_name_H-M    'P1'
_symmetry_Int_Tables_number       1
_symmetry_cell_setting            triclinic
loop_
_symmetry_equiv_pos_as_xyz
  x,y,z
_cell_length_a                    41.0140
_cell_length_b                    41.0140
_cell_length_c                    3.4000
_cell_angle_alpha                 90.0000
_cell_angle_beta                  90.0000
_cell_angle_gamma                 120.0000
loop_
_atom_site_label
_atom_site_type_symbol
_atom_site_fract_x
_atom_site_fract_y
_atom_site_fract_z
_atom_site_U_iso_or_equiv
_atom_site_adp_type
_atom_site_occupancy
O1     O     0.39115   0.54845   0.50000   0.00000  Uiso   1.00
O2     O     0.45155   0.84270   0.50000   0.00000  Uiso   1.00
O3     O     0.15730   0.60885   0.50000   0.00000  Uiso   1.00
O4     O     0.60885   0.45155   0.50000   0.00000  Uiso   1.00
O5     O     0.54845   0.15730   0.50000   0.00000  Uiso   1.00
O6     O     0.84270   0.39115   0.50000   0.00000  Uiso   1.00
O7     O     0.54845   0.39115   0.50000   0.00000  Uiso   1.00
O8     O     0.84270   0.45155   0.50000   0.00000  Uiso   1.00
O9     O     0.60885   0.15730   0.50000   0.00000  Uiso   1.00
O10    O     0.45155   0.60885   0.50000   0.00000  Uiso   1.00
O11    O     0.15730   0.54845   0.50000   0.00000  Uiso   1.00
O12    O     0.39115   0.84270   0.50000   0.00000  Uiso   1.00
C13    C     0.38705   0.57920   0.50000   0.00000  Uiso   1.00
C14    C     0.42080   0.80785   0.50000   0.00000  Uiso   1.00
C15    C     0.19215   0.61295   0.50000   0.00000  Uiso   1.00
C16    C     0.61295   0.42080   0.50000   0.00000  Uiso   1.00
C17    C     0.57920   0.19215   0.50000   0.00000  Uiso   1.00
C18    C     0.80785   0.38706   0.50000   0.00000  Uiso   1.00
C19    C     0.57920   0.38706   0.50000   0.00000  Uiso   1.00
C20    C     0.80785   0.42080   0.50000   0.00000  Uiso   1.00
C21    C     0.61295   0.19215   0.50000   0.00000  Uiso   1.00
C22    C     0.42080   0.61295   0.50000   0.00000  Uiso   1.00
C23    C     0.19215   0.57920   0.50000   0.00000  Uiso   1.00
C24    C     0.38705   0.80785   0.50000   0.00000  Uiso   1.00
C25    C     0.35312   0.57762   0.50000   0.00000  Uiso   1.00
C26    C     0.42238   0.77550   0.50000   0.00000  Uiso   1.00
C27    C     0.22450   0.64688   0.50000   0.00000  Uiso   1.00
C28    C     0.64688   0.42238   0.50000   0.00000  Uiso   1.00
C29    C     0.57762   0.22450   0.50000   0.00000  Uiso   1.00
C30    C     0.77550   0.35312   0.50000   0.00000  Uiso   1.00
C31    C     0.57762   0.35312   0.50000   0.00000  Uiso   1.00
C32    C     0.77550   0.42238   0.50000   0.00000  Uiso   1.00
C33    C     0.64688   0.22450   0.50000   0.00000  Uiso   1.00
C34    C     0.42238   0.64688   0.50000   0.00000  Uiso   1.00
C35    C     0.22450   0.57762   0.50000   0.00000  Uiso   1.00
C36    C     0.35312   0.77550   0.50000   0.00000  Uiso   1.00
C37    C     0.35403   0.61168   0.50000   0.00000  Uiso   1.00
C38    C     0.38832   0.74235   0.50000   0.00000  Uiso   1.00
C39    C     0.25765   0.64597   0.50000   0.00000  Uiso   1.00
C40    C     0.64597   0.38832   0.50000   0.00000  Uiso   1.00
C41    C     0.61168   0.25765   0.50000   0.00000  Uiso   1.00
C42    C     0.74235   0.35403   0.50000   0.00000  Uiso   1.00
C43    C     0.61168   0.35403   0.50000   0.00000  Uiso   1.00
C44    C     0.74235   0.38832   0.50000   0.00000  Uiso   1.00
C45    C     0.64597   0.25765   0.50000   0.00000  Uiso   1.00
C46    C     0.38832   0.64597   0.50000   0.00000  Uiso   1.00
C47    C     0.25765   0.61168   0.50000   0.00000  Uiso   1.00
C48    C     0.35403   0.74235   0.50000   0.00000  Uiso   1.00
C49    C     0.31981   0.61103   0.50000   0.00000  Uiso   1.00
C50    C     0.38897   0.70878   0.50000   0.00000  Uiso   1.00
C51    C     0.29122   0.68019   0.50000   0.00000  Uiso   1.00
C52    C     0.68019   0.38897   0.50000   0.00000  Uiso   1.00
C53    C     0.61103   0.29122   0.50000   0.00000  Uiso   1.00
C54    C     0.70878   0.31981   0.50000   0.00000  Uiso   1.00
C55    C     0.61103   0.31981   0.50000   0.00000  Uiso   1.00
C56    C     0.70878   0.38897   0.50000   0.00000  Uiso   1.00
C57    C     0.68019   0.29122   0.50000   0.00000  Uiso   1.00
C58    C     0.38897   0.68019   0.50000   0.00000  Uiso   1.00
C59    C     0.29122   0.61103   0.50000   0.00000  Uiso   1.00
C60    C     0.31981   0.70878   0.50000   0.00000  Uiso   1.00
B61    B     0.43170   0.56830   0.50000   0.00000  Uiso   1.00
B62    B     0.43170   0.86341   0.50000   0.00000  Uiso   1.00
B63    B     0.13659   0.56830   0.50000   0.00000  Uiso   1.00
B64    B     0.56830   0.43170   0.50000   0.00000  Uiso   1.00
B65    B     0.56830   0.13659   0.50000   0.00000  Uiso   1.00
B66    B     0.86341   0.43170   0.50000   0.00000  Uiso   1.00
C67    C     0.54778   0.45222   0.50000   0.00000  Uiso   1.00
C68    C     0.54778   0.09555   0.50000   0.00000  Uiso   1.00
C69    C     0.90445   0.45222   0.50000   0.00000  Uiso   1.00
C70    C     0.45222   0.54778   0.50000   0.00000  Uiso   1.00
C71    C     0.45222   0.90445   0.50000   0.00000  Uiso   1.00
C72    C     0.09555   0.54778   0.50000   0.00000  Uiso   1.00
H73    H     0.32719   0.55081   0.50000   0.00000  Uiso   1.00
H74    H     0.44919   0.77638   0.50000   0.00000  Uiso   1.00
H75    H     0.22362   0.67281   0.50000   0.00000  Uiso   1.00
H76    H     0.67281   0.44919   0.50000   0.00000  Uiso   1.00
H77    H     0.55081   0.22362   0.50000   0.00000  Uiso   1.00
H78    H     0.77638   0.32719   0.50000   0.00000  Uiso   1.00
H79    H     0.55081   0.32719   0.50000   0.00000  Uiso   1.00
H80    H     0.77638   0.44919   0.50000   0.00000  Uiso   1.00
H81    H     0.67281   0.22362   0.50000   0.00000  Uiso   1.00
H82    H     0.44919   0.67281   0.50000   0.00000  Uiso   1.00
H83    H     0.22362   0.55081   0.50000   0.00000  Uiso   1.00
H84    H     0.32719   0.77638   0.50000   0.00000  Uiso   1.00
C85    C     0.45059   0.48928   0.50000   0.00000  Uiso   1.00
C86    C     0.51072   0.96131   0.50000   0.00000  Uiso   1.00
C87    C     0.03869   0.54941   0.50000   0.00000  Uiso   1.00
C88    C     0.54941   0.51072   0.50000   0.00000  Uiso   1.00
C89    C     0.48928   0.03869   0.50000   0.00000  Uiso   1.00
C90    C     0.96131   0.45059   0.50000   0.00000  Uiso   1.00
C91    C     0.48928   0.45059   0.50000   0.00000  Uiso   1.00
C92    C     0.96131   0.51072   0.50000   0.00000  Uiso   1.00
C93    C     0.54941   0.03869   0.50000   0.00000  Uiso   1.00
C94    C     0.51072   0.54941   0.50000   0.00000  Uiso   1.00
C95    C     0.03869   0.48928   0.50000   0.00000  Uiso   1.00
C96    C     0.45059   0.96131   0.50000   0.00000  Uiso   1.00
C97    C     0.56839   0.49123   0.50000   0.00000  Uiso   1.00
C98    C     0.50877   0.07716   0.50000   0.00000  Uiso   1.00
C99    C     0.92284   0.43161   0.50000   0.00000  Uiso   1.00
C100   C     0.43161   0.50877   0.50000   0.00000  Uiso   1.00
C101   C     0.49123   0.92284   0.50000   0.00000  Uiso   1.00
C102   C     0.07716   0.56839   0.50000   0.00000  Uiso   1.00
C103   C     0.49123   0.56839   0.50000   0.00000  Uiso   1.00
C104   C     0.07716   0.50877   0.50000   0.00000  Uiso   1.00
C105   C     0.43161   0.92284   0.50000   0.00000  Uiso   1.00
C106   C     0.50877   0.43161   0.50000   0.00000  Uiso   1.00
C107   C     0.92284   0.49123   0.50000   0.00000  Uiso   1.00
C108   C     0.56839   0.07716   0.50000   0.00000  Uiso   1.00
C109   C     0.43053   0.44998   0.50000   0.00000  Uiso   1.00
C110   C     0.55002   0.98054   0.50000   0.00000  Uiso   1.00
C111   C     0.01946   0.56947   0.50000   0.00000  Uiso   1.00
C112   C     0.56948   0.55002   0.50000   0.00000  Uiso   1.00
C113   C     0.44998   0.01946   0.50000   0.00000  Uiso   1.00
C114   C     0.98054   0.43052   0.50000   0.00000  Uiso   1.00
C115   C     0.44998   0.43052   0.50000   0.00000  Uiso   1.00
C116   C     0.98054   0.55002   0.50000   0.00000  Uiso   1.00
C117   C     0.56948   0.01946   0.50000   0.00000  Uiso   1.00
C118   C     0.55002   0.56948   0.50000   0.00000  Uiso   1.00
C119   C     0.01946   0.44998   0.50000   0.00000  Uiso   1.00
C120   C     0.43053   0.98054   0.50000   0.00000  Uiso   1.00
H121   H     0.59904   0.50613   0.50000   0.00000  Uiso   1.00
H122   H     0.49387   0.09291   0.50000   0.00000  Uiso   1.00
H123   H     0.90708   0.40096   0.50000   0.00000  Uiso   1.00
H124   H     0.40096   0.49387   0.50000   0.00000  Uiso   1.00
H125   H     0.50613   0.90708   0.50000   0.00000  Uiso   1.00
H126   H     0.09291   0.59904   0.50000   0.00000  Uiso   1.00
H127   H     0.50613   0.59904   0.50000   0.00000  Uiso   1.00
H128   H     0.09291   0.49387   0.50000   0.00000  Uiso   1.00
H129   H     0.40096   0.90709   0.50000   0.00000  Uiso   1.00
H130   H     0.49387   0.40096   0.50000   0.00000  Uiso   1.00
H131   H     0.90708   0.50613   0.50000   0.00000  Uiso   1.00
H132   H     0.59904   0.09291   0.50000   0.00000  Uiso   1.00
H133   H     0.40000   0.43445   0.50000   0.00000  Uiso   1.00
H134   H     0.56555   0.96555   0.50000   0.00000  Uiso   1.00
H135   H     0.03445   0.60000   0.50000   0.00000  Uiso   1.00
H136   H     0.60000   0.56555   0.50000   0.00000  Uiso   1.00
H137   H     0.43445   0.03445   0.50000   0.00000  Uiso   1.00
H138   H     0.96555   0.40000   0.50000   0.00000  Uiso   1.00
H139   H     0.43445   0.40000   0.50000   0.00000  Uiso   1.00
H140   H     0.96555   0.56555   0.50000   0.00000  Uiso   1.00
H141   H     0.60000   0.03445   0.50000   0.00000  Uiso   1.00
H142   H     0.56555   0.60000   0.50000   0.00000  Uiso   1.00
H143   H     0.03445   0.43445   0.50000   0.00000  Uiso   1.00
H144   H     0.40000   0.96555   0.50000   0.00000  Uiso   1.00
C145   C     0.49035   0.50965   0.50000   0.00000  Uiso   1.00
C146   C     0.49035   0.98070   0.50000   0.00000  Uiso   1.00
C147   C     0.01930   0.50965   0.50000   0.00000  Uiso   1.00
C148   C     0.50965   0.49035   0.50000   0.00000  Uiso   1.00
C149   C     0.50965   0.01930   0.50000   0.00000  Uiso   1.00
C150   C     0.98070   0.49035   0.50000   0.00000  Uiso   1.00
loop_
_geom_bond_atom_site_label_1
_geom_bond_atom_site_label_2
_geom_bond_distance
_geom_bond_site_symmetry_2
_ccdc_geom_bond_type
O1     C13     1.353   .     S
O1     B61     1.441   .     S
O2     C14     1.353   .     S
O2     B62     1.441   .     S
O3     C15     1.353   .     S
O3     B63     1.441   .     S
O4     C16     1.353   .     S
O4     B64     1.441   .     S
O5     C17     1.353   .     S
O5     B65     1.441   .     S
O6     C18     1.353   .     S
O6     B66     1.441   .     S
O7     C19     1.353   .     S
O7     B64     1.441   .     S
O8     C20     1.353   .     S
O8     B66     1.441   .     S
O9     C21     1.353   .     S
O9     B65     1.441   .     S
O10    C22     1.353   .     S
O10    B61     1.441   .     S
O11    C23     1.353   .     S
O11    B63     1.441   .     S
O12    C24     1.353   .     S
O12    B62     1.441   .     S
C13    C22     1.384   .     S
C13    C25     1.361   .     D
C14    C24     1.384   .     D
C14    C26     1.361   .     S
C15    C23     1.384   .     D
C15    C27     1.361   .     S
C16    C19     1.384   .     S
C16    C28     1.361   .     D
C17    C21     1.384   .     S
C17    C29     1.361   .     D
C18    C20     1.384   .     S
C18    C30     1.361   .     D
C19    C31     1.361   .     D
C20    C32     1.361   .     D
C21    C33     1.361   .     D
C22    C34     1.361   .     D
C23    C35     1.361   .     S
C24    C36     1.361   .     S
C25    C37     1.379   .     S
C25    H73     1.082   .     S
C26    C38     1.379   .     D
C26    H74     1.082   .     S
C27    C39     1.379   .     D
C27    H75     1.082   .     S
C28    C40     1.379   .     S
C28    H76     1.082   .     S
C29    C41     1.379   .     S
C29    H77     1.082   .     S
C30    C42     1.379   .     S
C30    H78     1.082   .     S
C31    C43     1.379   .     S
C31    H79     1.082   .     S
C32    C44     1.379   .     S
C32    H80     1.082   .     S
C33    C45     1.379   .     S
C33    H81     1.082   .     S
C34    C46     1.379   .     S
C34    H82     1.082   .     S
C35    C47     1.379   .     D
C35    H83     1.082   .     S
C36    C48     1.379   .     D
C36    H84     1.082   .     S
C37    C46     1.406   .     D
C37    C49     1.390   .     S
C38    C48     1.406   .     S
C38    C50     1.390   .     S
C39    C47     1.406   .     S
C39    C51     1.390   .     S
C40    C43     1.406   .     S
C40    C52     1.390   .     D
C41    C45     1.406   .     S
C41    C53     1.390   .     D
C42    C44     1.406   .     S
C42    C54     1.390   .     D
C43    C55     1.390   .     D
C44    C56     1.390   .     D
C45    C57     1.390   .     D
C46    C58     1.390   .     S
C47    C59     1.390   .     S
C48    C60     1.390   .     S
C49    C59     1.173   .     T
C50    C58     1.173   .     T
C51    C60     1.173   .     T
C52    C56     1.173   .     D
C53    C55     1.173   .     D
C54    C57     1.173   .     D
B61    C70     1.458   .     S
B62    C71     1.458   .     S
B63    C72     1.458   .     S
B64    C67     1.458   .     S
B65    C68     1.458   .     S
B66    C69     1.458   .     S
C67    C97     1.386   .     D
C67    C106    1.386   .     S
C68    C98     1.386   .     S
C68    C108    1.386   .     D
C69    C99     1.386   .     D
C69    C107    1.386   .     S
C70    C100    1.386   .     D
C70    C103    1.386   .     S
C71    C101    1.386   .     S
C71    C105    1.386   .     D
C72    C102    1.386   .     D
C72    C104    1.386   .     S
C85    C100    1.366   .     S
C85    C109    1.396   .     S
C85    C145    1.412   .     D
C86    C101    1.366   .     D
C86    C110    1.396   .     S
C86    C146    1.412   .     S
C87    C102    1.366   .     S
C87    C111    1.396   .     S
C87    C147    1.412   .     D
C88    C97     1.366   .     S
C88    C112    1.396   .     S
C88    C148    1.412   .     D
C89    C98     1.366   .     D
C89    C113    1.396   .     S
C89    C149    1.412   .     S
C90    C99     1.366   .     S
C90    C114    1.396   .     S
C90    C150    1.412   .     D
C91    C106    1.366   .     D
C91    C115    1.396   .     S
C91    C148    1.412   .     S
C92    C107    1.366   .     D
C92    C116    1.396   .     S
C92    C150    1.412   .     S
C93    C108    1.366   .     S
C93    C117    1.396   .     S
C93    C149    1.412   .     D
C94    C103    1.366   .     D
C94    C118    1.396   .     S
C94    C145    1.412   .     S
C95    C104    1.366   .     D
C95    C119    1.396   .     S
C95    C147    1.412   .     S
C96    C105    1.366   .     S
C96    C120    1.396   .     S
C96    C146    1.412   .     D
C97    H121    1.089   .     S
C98    H122    1.089   .     S
C99    H123    1.089   .     S
C100   H124    1.089   .     S
C101   H125    1.089   .     S
C102   H126    1.089   .     S
C103   H127    1.089   .     S
C104   H128    1.089   .     S
C105   H129    1.089   .     S
C106   H130    1.089   .     S
C107   H131    1.089   .     S
C108   H132    1.089   .     S
C109   C115    1.382   .     D
C109   H133    1.084   .     S
C110   C117    1.382   1_565 D
C110   H134    1.084   .     S
C111   C116    1.382   1_455 D
C111   H135    1.084   .     S
C112   C118    1.382   .     D
C112   H136    1.084   .     S
C113   C120    1.382   1_545 D
C113   H137    1.084   .     S
C114   C119    1.382   1_655 D
C114   H138    1.084   .     S
C115   H139    1.084   .     S
C116   C111    1.382   1_655 D
C116   H140    1.084   .     S
C117   C110    1.382   1_545 D
C117   H141    1.084   .     S
C118   H142    1.084   .     S
C119   C114    1.382   1_455 D
C119   H143    1.084   .     S
C120   C113    1.382   1_565 D
C120   H144    1.084   .     S
C145   C148    1.371   .     S
C146   C149    1.371   1_565 S
C147   C150    1.371   1_455 S
C149   C146    1.371   1_545 S
C150   C147    1.371   1_655 S
