data_399
_audit_creation_date              2023-09-08
_audit_creation_method            'Materials Studio'
_symmetry_space_group_name_H-M    'P1'
_symmetry_Int_Tables_number       1
_symmetry_cell_setting            triclinic
loop_
_symmetry_equiv_pos_as_xyz
  x,y,z
_cell_length_a                    48.7280
_cell_length_b                    48.7280
_cell_length_c                    3.3900
_cell_angle_alpha                 90.0000
_cell_angle_beta                  90.0000
_cell_angle_gamma                 120.0000
loop_
_atom_site_label
_atom_site_type_symbol
_atom_site_fract_x
_atom_site_fract_y
_atom_site_fract_z
_atom_site_U_iso_or_equiv
_atom_site_adp_type
_atom_site_occupancy
O1     O     0.54785   0.40478   0.50000   0.00000  Uiso   1.00
O2     O     0.59522   0.14307   0.50000   0.00000  Uiso   1.00
O3     O     0.85694   0.45215   0.50000   0.00000  Uiso   1.00
O4     O     0.45215   0.59522   0.50000   0.00000  Uiso   1.00
O5     O     0.40478   0.85694   0.50000   0.00000  Uiso   1.00
O6     O     0.14307   0.54785   0.50000   0.00000  Uiso   1.00
O7     O     0.40478   0.54785   0.50000   0.00000  Uiso   1.00
O8     O     0.14307   0.59522   0.50000   0.00000  Uiso   1.00
O9     O     0.45215   0.85694   0.50000   0.00000  Uiso   1.00
O10    O     0.59522   0.45215   0.50000   0.00000  Uiso   1.00
O11    O     0.85694   0.40478   0.50000   0.00000  Uiso   1.00
O12    O     0.54785   0.14307   0.50000   0.00000  Uiso   1.00
C13    C     0.57277   0.39851   0.50000   0.00000  Uiso   1.00
C14    C     0.60150   0.17426   0.50000   0.00000  Uiso   1.00
C15    C     0.82574   0.42723   0.50000   0.00000  Uiso   1.00
C16    C     0.42723   0.60150   0.50000   0.00000  Uiso   1.00
C17    C     0.39851   0.82574   0.50000   0.00000  Uiso   1.00
C18    C     0.17426   0.57277   0.50000   0.00000  Uiso   1.00
C19    C     0.39851   0.57277   0.50000   0.00000  Uiso   1.00
C20    C     0.17426   0.60150   0.50000   0.00000  Uiso   1.00
C21    C     0.42723   0.82574   0.50000   0.00000  Uiso   1.00
C22    C     0.60150   0.42723   0.50000   0.00000  Uiso   1.00
C23    C     0.82574   0.39851   0.50000   0.00000  Uiso   1.00
C24    C     0.57277   0.17426   0.50000   0.00000  Uiso   1.00
C25    C     0.57208   0.36960   0.50000   0.00000  Uiso   1.00
C26    C     0.63040   0.20247   0.50000   0.00000  Uiso   1.00
C27    C     0.79753   0.42793   0.50000   0.00000  Uiso   1.00
C28    C     0.42793   0.63040   0.50000   0.00000  Uiso   1.00
C29    C     0.36960   0.79753   0.50000   0.00000  Uiso   1.00
C30    C     0.20247   0.57208   0.50000   0.00000  Uiso   1.00
C31    C     0.36960   0.57208   0.50000   0.00000  Uiso   1.00
C32    C     0.20247   0.63040   0.50000   0.00000  Uiso   1.00
C33    C     0.42793   0.79753   0.50000   0.00000  Uiso   1.00
C34    C     0.63040   0.42793   0.50000   0.00000  Uiso   1.00
C35    C     0.79753   0.36960   0.50000   0.00000  Uiso   1.00
C36    C     0.57208   0.20247   0.50000   0.00000  Uiso   1.00
C37    C     0.60112   0.36914   0.50000   0.00000  Uiso   1.00
C38    C     0.63087   0.23199   0.50000   0.00000  Uiso   1.00
C39    C     0.76801   0.39888   0.50000   0.00000  Uiso   1.00
C40    C     0.39888   0.63087   0.50000   0.00000  Uiso   1.00
C41    C     0.36913   0.76801   0.50000   0.00000  Uiso   1.00
C42    C     0.23199   0.60112   0.50000   0.00000  Uiso   1.00
C43    C     0.36913   0.60112   0.50000   0.00000  Uiso   1.00
C44    C     0.23199   0.63087   0.50000   0.00000  Uiso   1.00
C45    C     0.39888   0.76801   0.50000   0.00000  Uiso   1.00
C46    C     0.63087   0.39888   0.50000   0.00000  Uiso   1.00
C47    C     0.76801   0.36914   0.50000   0.00000  Uiso   1.00
C48    C     0.60112   0.23199   0.50000   0.00000  Uiso   1.00
B49    B     0.56171   0.43829   0.50000   0.00000  Uiso   1.00
B50    B     0.56171   0.12343   0.50000   0.00000  Uiso   1.00
B51    B     0.87657   0.43829   0.50000   0.00000  Uiso   1.00
B52    B     0.43829   0.56171   0.50000   0.00000  Uiso   1.00
B53    B     0.43829   0.87657   0.50000   0.00000  Uiso   1.00
B54    B     0.12343   0.56171   0.50000   0.00000  Uiso   1.00
C55    C     0.45712   0.54288   0.50000   0.00000  Uiso   1.00
C56    C     0.45712   0.91425   0.50000   0.00000  Uiso   1.00
C57    C     0.08575   0.54288   0.50000   0.00000  Uiso   1.00
C58    C     0.54288   0.45712   0.50000   0.00000  Uiso   1.00
C59    C     0.54288   0.08575   0.50000   0.00000  Uiso   1.00
C60    C     0.91425   0.45712   0.50000   0.00000  Uiso   1.00
H61    H     0.54971   0.34729   0.50000   0.00000  Uiso   1.00
H62    H     0.65271   0.20242   0.50000   0.00000  Uiso   1.00
H63    H     0.79758   0.45029   0.50000   0.00000  Uiso   1.00
H64    H     0.45029   0.65271   0.50000   0.00000  Uiso   1.00
H65    H     0.34729   0.79759   0.50000   0.00000  Uiso   1.00
H66    H     0.20242   0.54971   0.50000   0.00000  Uiso   1.00
H67    H     0.34729   0.54971   0.50000   0.00000  Uiso   1.00
H68    H     0.20242   0.65271   0.50000   0.00000  Uiso   1.00
H69    H     0.45029   0.79758   0.50000   0.00000  Uiso   1.00
H70    H     0.65271   0.45029   0.50000   0.00000  Uiso   1.00
H71    H     0.79758   0.34729   0.50000   0.00000  Uiso   1.00
H72    H     0.54971   0.20242   0.50000   0.00000  Uiso   1.00
C73    C     0.49200   0.45760   0.50000   0.00000  Uiso   1.00
C74    C     0.54240   0.03440   0.50000   0.00000  Uiso   1.00
C75    C     0.96560   0.50800   0.50000   0.00000  Uiso   1.00
C76    C     0.50800   0.54240   0.50000   0.00000  Uiso   1.00
C77    C     0.45760   0.96560   0.50000   0.00000  Uiso   1.00
C78    C     0.03440   0.49200   0.50000   0.00000  Uiso   1.00
C79    C     0.45760   0.49200   0.50000   0.00000  Uiso   1.00
C80    C     0.03440   0.54240   0.50000   0.00000  Uiso   1.00
C81    C     0.50800   0.96560   0.50000   0.00000  Uiso   1.00
C82    C     0.54240   0.50800   0.50000   0.00000  Uiso   1.00
C83    C     0.96560   0.45760   0.50000   0.00000  Uiso   1.00
C84    C     0.49200   0.03440   0.50000   0.00000  Uiso   1.00
C85    C     0.49069   0.55865   0.50000   0.00000  Uiso   1.00
C86    C     0.44135   0.93204   0.50000   0.00000  Uiso   1.00
C87    C     0.06796   0.50931   0.50000   0.00000  Uiso   1.00
C88    C     0.50931   0.44135   0.50000   0.00000  Uiso   1.00
C89    C     0.55865   0.06796   0.50000   0.00000  Uiso   1.00
C90    C     0.93204   0.49069   0.50000   0.00000  Uiso   1.00
C91    C     0.55865   0.49069   0.50000   0.00000  Uiso   1.00
C92    C     0.93204   0.44135   0.50000   0.00000  Uiso   1.00
C93    C     0.50931   0.06796   0.50000   0.00000  Uiso   1.00
C94    C     0.44135   0.50931   0.50000   0.00000  Uiso   1.00
C95    C     0.06796   0.55865   0.50000   0.00000  Uiso   1.00
C96    C     0.49069   0.93204   0.50000   0.00000  Uiso   1.00
C97    C     0.45795   0.44172   0.50000   0.00000  Uiso   1.00
C98    C     0.55828   0.01623   0.50000   0.00000  Uiso   1.00
C99    C     0.98377   0.54205   0.50000   0.00000  Uiso   1.00
C100   C     0.54205   0.55828   0.50000   0.00000  Uiso   1.00
C101   C     0.44172   0.98377   0.50000   0.00000  Uiso   1.00
C102   C     0.01623   0.45795   0.50000   0.00000  Uiso   1.00
C103   C     0.44172   0.45795   0.50000   0.00000  Uiso   1.00
C104   C     0.01623   0.55828   0.50000   0.00000  Uiso   1.00
C105   C     0.54205   0.98377   0.50000   0.00000  Uiso   1.00
C106   C     0.55828   0.54205   0.50000   0.00000  Uiso   1.00
C107   C     0.98377   0.44172   0.50000   0.00000  Uiso   1.00
C108   C     0.45795   0.01623   0.50000   0.00000  Uiso   1.00
H109   H     0.50411   0.58454   0.50000   0.00000  Uiso   1.00
H110   H     0.41546   0.91958   0.50000   0.00000  Uiso   1.00
H111   H     0.08043   0.49589   0.50000   0.00000  Uiso   1.00
H112   H     0.49589   0.41546   0.50000   0.00000  Uiso   1.00
H113   H     0.58454   0.08043   0.50000   0.00000  Uiso   1.00
H114   H     0.91957   0.50412   0.50000   0.00000  Uiso   1.00
H115   H     0.58454   0.50412   0.50000   0.00000  Uiso   1.00
H116   H     0.91958   0.41546   0.50000   0.00000  Uiso   1.00
H117   H     0.49589   0.08043   0.50000   0.00000  Uiso   1.00
H118   H     0.41546   0.49589   0.50000   0.00000  Uiso   1.00
H119   H     0.08043   0.58454   0.50000   0.00000  Uiso   1.00
H120   H     0.50411   0.91958   0.50000   0.00000  Uiso   1.00
H121   H     0.44492   0.41584   0.50000   0.00000  Uiso   1.00
H122   H     0.58416   0.02909   0.50000   0.00000  Uiso   1.00
H123   H     0.97091   0.55508   0.50000   0.00000  Uiso   1.00
H124   H     0.55508   0.58416   0.50000   0.00000  Uiso   1.00
H125   H     0.41584   0.97091   0.50000   0.00000  Uiso   1.00
H126   H     0.02909   0.44492   0.50000   0.00000  Uiso   1.00
H127   H     0.41584   0.44492   0.50000   0.00000  Uiso   1.00
H128   H     0.02909   0.58417   0.50000   0.00000  Uiso   1.00
H129   H     0.55508   0.97091   0.50000   0.00000  Uiso   1.00
H130   H     0.58416   0.55508   0.50000   0.00000  Uiso   1.00
H131   H     0.97091   0.41584   0.50000   0.00000  Uiso   1.00
H132   H     0.44492   0.02909   0.50000   0.00000  Uiso   1.00
C133   C     0.39921   0.68564   0.50000   0.00000  Uiso   1.00
C134   C     0.31436   0.71357   0.50000   0.00000  Uiso   1.00
C135   C     0.28643   0.60079   0.50000   0.00000  Uiso   1.00
C136   C     0.60079   0.31436   0.50000   0.00000  Uiso   1.00
C137   C     0.68564   0.28643   0.50000   0.00000  Uiso   1.00
C138   C     0.71357   0.39921   0.50000   0.00000  Uiso   1.00
C139   C     0.68564   0.39921   0.50000   0.00000  Uiso   1.00
C140   C     0.71357   0.31436   0.50000   0.00000  Uiso   1.00
C141   C     0.60079   0.28643   0.50000   0.00000  Uiso   1.00
C142   C     0.31436   0.60079   0.50000   0.00000  Uiso   1.00
C143   C     0.28643   0.68564   0.50000   0.00000  Uiso   1.00
C144   C     0.39921   0.71357   0.50000   0.00000  Uiso   1.00
C145   C     0.39926   0.66024   0.50000   0.00000  Uiso   1.00
C146   C     0.33976   0.73902   0.50000   0.00000  Uiso   1.00
C147   C     0.26098   0.60074   0.50000   0.00000  Uiso   1.00
C148   C     0.60074   0.33976   0.50000   0.00000  Uiso   1.00
C149   C     0.66024   0.26098   0.50000   0.00000  Uiso   1.00
C150   C     0.73902   0.39926   0.50000   0.00000  Uiso   1.00
C151   C     0.66024   0.39926   0.50000   0.00000  Uiso   1.00
C152   C     0.73902   0.33976   0.50000   0.00000  Uiso   1.00
C153   C     0.60074   0.26098   0.50000   0.00000  Uiso   1.00
C154   C     0.33976   0.60074   0.50000   0.00000  Uiso   1.00
C155   C     0.26098   0.66024   0.50000   0.00000  Uiso   1.00
C156   C     0.39926   0.73902   0.50000   0.00000  Uiso   1.00
C157   C     0.50851   0.49149   0.50000   0.00000  Uiso   1.00
C158   C     0.50851   0.01702   0.50000   0.00000  Uiso   1.00
C159   C     0.98298   0.49149   0.50000   0.00000  Uiso   1.00
C160   C     0.49149   0.50851   0.50000   0.00000  Uiso   1.00
C161   C     0.49149   0.98298   0.50000   0.00000  Uiso   1.00
C162   C     0.01702   0.50851   0.50000   0.00000  Uiso   1.00
loop_
_geom_bond_atom_site_label_1
_geom_bond_atom_site_label_2
_geom_bond_distance
_geom_bond_site_symmetry_2
_ccdc_geom_bond_type
O1     C13     1.393   .     S
O1     B49     1.421   .     S
O2     C14     1.393   .     S
O2     B50     1.421   .     S
O3     C15     1.393   .     S
O3     B51     1.421   .     S
O4     C16     1.393   .     S
O4     B52     1.421   .     S
O5     C17     1.393   .     S
O5     B53     1.421   .     S
O6     C18     1.393   .     S
O6     B54     1.421   .     S
O7     C19     1.393   .     S
O7     B52     1.421   .     S
O8     C20     1.393   .     S
O8     B54     1.421   .     S
O9     C21     1.393   .     S
O9     B53     1.421   .     S
O10    C22     1.393   .     S
O10    B49     1.421   .     S
O11    C23     1.393   .     S
O11    B51     1.421   .     S
O12    C24     1.393   .     S
O12    B50     1.421   .     S
C13    C22     1.400   .     S
C13    C25     1.392   .     D
C14    C24     1.400   .     S
C14    C26     1.392   .     D
C15    C23     1.400   .     S
C15    C27     1.392   .     D
C16    C19     1.400   .     D
C16    C28     1.392   .     S
C17    C21     1.400   .     S
C17    C29     1.392   .     D
C18    C20     1.400   .     D
C18    C30     1.392   .     S
C19    C31     1.392   .     S
C20    C32     1.392   .     S
C21    C33     1.392   .     D
C22    C34     1.392   .     D
C23    C35     1.392   .     D
C24    C36     1.392   .     D
C25    C37     1.427   .     S
C25    H61     1.089   .     S
C26    C38     1.427   .     S
C26    H62     1.089   .     S
C27    C39     1.427   .     S
C27    H63     1.089   .     S
C28    C40     1.427   .     D
C28    H64     1.089   .     S
C29    C41     1.427   .     S
C29    H65     1.089   .     S
C30    C42     1.427   .     D
C30    H66     1.089   .     S
C31    C43     1.427   .     D
C31    H67     1.089   .     S
C32    C44     1.427   .     D
C32    H68     1.089   .     S
C33    C45     1.427   .     S
C33    H69     1.089   .     S
C34    C46     1.427   .     S
C34    H70     1.089   .     S
C35    C47     1.427   .     S
C35    H71     1.089   .     S
C36    C48     1.427   .     S
C36    H72     1.089   .     S
C37    C46     1.449   .     S
C37    C148    1.422   .     D
C38    C48     1.449   .     S
C38    C149    1.422   .     D
C39    C47     1.449   .     S
C39    C150    1.422   .     D
C40    C43     1.449   .     S
C40    C145    1.422   .     S
C41    C45     1.449   .     D
C41    C146    1.422   .     S
C42    C44     1.449   .     S
C42    C147    1.422   .     S
C43    C154    1.422   .     S
C44    C155    1.422   .     S
C45    C156    1.422   .     S
C46    C151    1.422   .     D
C47    C152    1.422   .     D
C48    C153    1.422   .     D
B49    C58     1.590   .     S
B50    C59     1.590   .     S
B51    C60     1.590   .     S
B52    C55     1.590   .     S
B53    C56     1.590   .     S
B54    C57     1.590   .     S
C55    C85     1.417   .     S
C55    C94     1.417   .     D
C56    C86     1.417   .     D
C56    C96     1.417   .     S
C57    C87     1.417   .     D
C57    C95     1.417   .     S
C58    C88     1.417   .     S
C58    C91     1.417   .     D
C59    C89     1.417   .     D
C59    C93     1.417   .     S
C60    C90     1.417   .     D
C60    C92     1.417   .     S
C73    C88     1.416   .     D
C73    C97     1.438   .     S
C73    C157    1.430   .     S
C74    C89     1.416   .     S
C74    C98     1.438   .     S
C74    C158    1.430   .     D
C75    C90     1.416   .     S
C75    C99     1.438   .     S
C75    C159    1.430   .     D
C76    C85     1.416   .     D
C76    C100    1.438   .     S
C76    C160    1.430   .     S
C77    C86     1.416   .     S
C77    C101    1.438   .     S
C77    C161    1.430   .     D
C78    C87     1.416   .     S
C78    C102    1.438   .     S
C78    C162    1.430   .     D
C79    C94     1.416   .     S
C79    C103    1.438   .     S
C79    C160    1.430   .     D
C80    C95     1.416   .     D
C80    C104    1.438   .     S
C80    C162    1.430   .     S
C81    C96     1.416   .     D
C81    C105    1.438   .     S
C81    C161    1.430   .     S
C82    C91     1.416   .     S
C82    C106    1.438   .     S
C82    C157    1.430   .     D
C83    C92     1.416   .     D
C83    C107    1.438   .     S
C83    C159    1.430   .     S
C84    C93     1.416   .     D
C84    C108    1.438   .     S
C84    C158    1.430   .     S
C85    H109    1.093   .     S
C86    H110    1.093   .     S
C87    H111    1.093   .     S
C88    H112    1.093   .     S
C89    H113    1.093   .     S
C90    H114    1.093   .     S
C91    H115    1.093   .     S
C92    H116    1.093   .     S
C93    H117    1.093   .     S
C94    H118    1.093   .     S
C95    H119    1.093   .     S
C96    H120    1.093   .     S
C97    C103    1.370   .     D
C97    H121    1.092   .     S
C98    C105    1.370   1_545 D
C98    H122    1.092   .     S
C99    C104    1.370   1_655 D
C99    H123    1.092   .     S
C100   C106    1.370   .     D
C100   H124    1.092   .     S
C101   C108    1.370   1_565 D
C101   H125    1.092   .     S
C102   C107    1.370   1_455 D
C102   H126    1.092   .     S
C103   H127    1.092   .     S
C104   C99     1.370   1_455 D
C104   H128    1.092   .     S
C105   C98     1.370   1_565 D
C105   H129    1.092   .     S
C106   H130    1.092   .     S
C107   C102    1.370   1_655 D
C107   H131    1.092   .     S
C108   C101    1.370   1_545 D
C108   H132    1.092   .     S
C133   C144    1.361   .     S
C133   C145    1.239   .     T
C134   C143    1.361   .     S
C134   C146    1.239   .     T
C135   C142    1.361   .     S
C135   C147    1.239   .     T
C136   C141    1.361   .     D
C136   C148    1.239   .     D
C137   C140    1.361   .     D
C137   C149    1.239   .     D
C138   C139    1.361   .     D
C138   C150    1.239   .     D
C139   C151    1.239   .     D
C140   C152    1.239   .     D
C141   C153    1.239   .     D
C142   C154    1.239   .     T
C143   C155    1.239   .     T
C144   C156    1.239   .     T
C157   C160    1.437   .     S
C158   C161    1.437   1_545 S
C159   C162    1.437   1_655 S
C161   C158    1.437   1_565 S
C162   C159    1.437   1_455 S
