data_4
_audit_creation_date              2023-09-08
_audit_creation_method            'Materials Studio'
_symmetry_space_group_name_H-M    'P1'
_symmetry_Int_Tables_number       1
_symmetry_cell_setting            triclinic
loop_
_symmetry_equiv_pos_as_xyz
  x,y,z
_cell_length_a                    36.7694
_cell_length_b                    36.7694
_cell_length_c                    4.2426
_cell_angle_alpha                 90.0000
_cell_angle_beta                  90.0000
_cell_angle_gamma                 120.0000
loop_
_atom_site_label
_atom_site_type_symbol
_atom_site_fract_x
_atom_site_fract_y
_atom_site_fract_z
_atom_site_U_iso_or_equiv
_atom_site_adp_type
_atom_site_occupancy
O1     O     0.36596   0.30439  -0.09403   0.00000  Uiso   1.00
O2     O     0.43413   0.38907   0.02261   0.00000  Uiso   1.00
O3     O     0.39254   0.43170   0.24924   0.00000  Uiso   1.00
O4     O     0.28586   0.35127   0.09036   0.00000  Uiso   1.00
O5     O     0.22012   0.27616  -0.08006   0.00000  Uiso   1.00
O6     O     0.27695   0.24252  -0.11373   0.00000  Uiso   1.00
C7     C     0.23541   0.22052   0.00584   0.00000  Uiso   1.00
C8     C     0.22328   0.25072   0.15534   0.00000  Uiso   1.00
C9     C     0.21125   0.30603   0.05708   0.00000  Uiso   1.00
C10    C     0.24819   0.35027   0.00734   0.00000  Uiso   1.00
C11    C     0.34906   0.26098  -0.03996   0.00000  Uiso   1.00
C12    C     0.30567   0.24269   0.10869   0.00000  Uiso   1.00
C13    C     0.40657   0.32116  -0.22428   0.00000  Uiso   1.00
C14    C     0.42567   0.36819  -0.27442   0.00000  Uiso   1.00
C15    C     0.43254   0.45360   0.10824   0.00000  Uiso   1.00
C16    C     0.45452   0.43302   0.00668   0.00000  Uiso   1.00
C17    C     0.31801   0.39291   0.14865   0.00000  Uiso   1.00
C18    C     0.36036   0.39622   0.08566   0.00000  Uiso   1.00
C19    C     0.49790   0.45729  -0.07560   0.00000  Uiso   1.00
C20    C     0.51723   0.50133  -0.06662   0.00000  Uiso   1.00
C21    C     0.49504   0.52114   0.01888   0.00000  Uiso   1.00
C22    C     0.45291   0.49781   0.10785   0.00000  Uiso   1.00
C23    C     0.67743   0.37560  -0.33375   0.00000  Uiso   1.00
C24    C     0.63493   0.34411  -0.33240   0.00000  Uiso   1.00
C25    C     0.60125   0.35464  -0.30615   0.00000  Uiso   1.00
C26    C     0.52484   0.43846  -0.15289   0.00000  Uiso   1.00
C27    C     0.51944   0.40207  -0.00030   0.00000  Uiso   1.00
C28    C     0.54602   0.38608  -0.06401   0.00000  Uiso   1.00
C29    C     0.57967   0.40691  -0.27489   0.00000  Uiso   1.00
C30    C     0.58596   0.44358  -0.42213   0.00000  Uiso   1.00
C31    C     0.55834   0.45863  -0.36843   0.00000  Uiso   1.00
N32    N     0.60958   0.39331  -0.32617   0.00000  Uiso   1.00
C33    C     0.43017   0.52021   0.19464   0.00000  Uiso   1.00
C34    C     0.44876   0.55531   0.39511   0.00000  Uiso   1.00
C35    C     0.42813   0.57757   0.46435   0.00000  Uiso   1.00
C36    C     0.38846   0.56509   0.33261   0.00000  Uiso   1.00
C37    C     0.36965   0.52970   0.13758   0.00000  Uiso   1.00
C38    C     0.39052   0.50781   0.06519   0.00000  Uiso   1.00
N39    N     0.36641   0.58750   0.38810   0.00000  Uiso   1.00
C40    C     0.35743   0.64664   0.50442   0.00000  Uiso   1.00
C41    C     0.37721   0.69058   0.50683   0.00000  Uiso   1.00
C42    C     0.38323   0.62638   0.47809   0.00000  Uiso   1.00
H43    H     0.22998   0.19541   0.17847   0.00000  Uiso   1.00
H44    H     0.21378   0.20426  -0.19402   0.00000  Uiso   1.00
H45    H     0.19238   0.23175   0.27454   0.00000  Uiso   1.00
H46    H     0.24735   0.27020   0.33432   0.00000  Uiso   1.00
H47    H     0.20356   0.30120   0.31381   0.00000  Uiso   1.00
H48    H     0.18325   0.30363  -0.06229   0.00000  Uiso   1.00
H49    H     0.24953   0.35883  -0.24547   0.00000  Uiso   1.00
H50    H     0.24254   0.37228   0.15253   0.00000  Uiso   1.00
H51    H     0.36929   0.25543   0.12557   0.00000  Uiso   1.00
H52    H     0.34618   0.24400  -0.26419   0.00000  Uiso   1.00
H53    H     0.29619   0.21021   0.18720   0.00000  Uiso   1.00
H54    H     0.30791   0.26210   0.31648   0.00000  Uiso   1.00
H55    H     0.40503   0.30655  -0.45711   0.00000  Uiso   1.00
H56    H     0.42769   0.31600  -0.06517   0.00000  Uiso   1.00
H57    H     0.45486   0.37949  -0.41136   0.00000  Uiso   1.00
H58    H     0.40366   0.37408  -0.41251   0.00000  Uiso   1.00
H59    H     0.31631   0.40065   0.39951   0.00000  Uiso   1.00
H60    H     0.31551   0.41631  -0.00354   0.00000  Uiso   1.00
H61    H     0.35927   0.36729   0.17375   0.00000  Uiso   1.00
H62    H     0.36580   0.39897  -0.17260   0.00000  Uiso   1.00
H63    H     0.55031   0.52105  -0.11756   0.00000  Uiso   1.00
H64    H     0.51112   0.55514   0.01770   0.00000  Uiso   1.00
H65    H     0.68594   0.40838  -0.32622   0.00000  Uiso   1.00
H66    H     0.56936   0.32952  -0.26589   0.00000  Uiso   1.00
H67    H     0.49580   0.38652   0.17777   0.00000  Uiso   1.00
H68    H     0.54146   0.35871   0.06471   0.00000  Uiso   1.00
H69    H     0.61189   0.46009  -0.58440   0.00000  Uiso   1.00
H70    H     0.56338   0.48616  -0.49734   0.00000  Uiso   1.00
H71    H     0.47924   0.56545   0.49907   0.00000  Uiso   1.00
H72    H     0.44304   0.60392   0.62426   0.00000  Uiso   1.00
H73    H     0.33928   0.51991   0.03266   0.00000  Uiso   1.00
H74    H     0.37637   0.48211  -0.10110   0.00000  Uiso   1.00
H75    H     0.41119   0.70898   0.50092   0.00000  Uiso   1.00
H76    H     0.41667   0.64553   0.50760   0.00000  Uiso   1.00
O77    O     0.69561   0.06157  -0.09403   0.00000  Uiso   1.00
O78    O     0.61093   0.04506   0.02261   0.00000  Uiso   1.00
O79    O     0.56830   0.96084   0.24924   0.00000  Uiso   1.00
O80    O     0.64873   0.93459   0.09036   0.00000  Uiso   1.00
O81    O     0.72384   0.94396  -0.08006   0.00000  Uiso   1.00
O82    O     0.75748   0.03443  -0.11373   0.00000  Uiso   1.00
C83    C     0.77948   0.01489   0.00584   0.00000  Uiso   1.00
C84    C     0.74928   0.97256   0.15534   0.00000  Uiso   1.00
C85    C     0.69397   0.90522   0.05708   0.00000  Uiso   1.00
C86    C     0.64973   0.89792   0.00734   0.00000  Uiso   1.00
C87    C     0.73902   0.08808  -0.03996   0.00000  Uiso   1.00
C88    C     0.75731   0.06298   0.10869   0.00000  Uiso   1.00
C89    C     0.67884   0.08541  -0.22428   0.00000  Uiso   1.00
C90    C     0.63181   0.05748  -0.27442   0.00000  Uiso   1.00
C91    C     0.54640   0.97894   0.10824   0.00000  Uiso   1.00
C92    C     0.56698   0.02150   0.00668   0.00000  Uiso   1.00
C93    C     0.60709   0.92510   0.14865   0.00000  Uiso   1.00
C94    C     0.60378   0.96414   0.08566   0.00000  Uiso   1.00
C95    C     0.54271   0.04061  -0.07560   0.00000  Uiso   1.00
C96    C     0.49867   0.01590  -0.06662   0.00000  Uiso   1.00
C97    C     0.47886   0.97390   0.01888   0.00000  Uiso   1.00
C98    C     0.50219   0.95510   0.10785   0.00000  Uiso   1.00
C99    C     0.62440   0.30183  -0.33375   0.00000  Uiso   1.00
C100   C     0.65589   0.29082  -0.33240   0.00000  Uiso   1.00
C101   C     0.64536   0.24661  -0.30615   0.00000  Uiso   1.00
C102   C     0.56154   0.08638  -0.15289   0.00000  Uiso   1.00
C103   C     0.59793   0.11737  -0.00030   0.00000  Uiso   1.00
C104   C     0.61392   0.15994  -0.06401   0.00000  Uiso   1.00
C105   C     0.59309   0.17276  -0.27489   0.00000  Uiso   1.00
C106   C     0.55642   0.14238  -0.42213   0.00000  Uiso   1.00
C107   C     0.54137   0.09971  -0.36843   0.00000  Uiso   1.00
N108   N     0.60669   0.21627  -0.32617   0.00000  Uiso   1.00
C109   C     0.47979   0.90996   0.19464   0.00000  Uiso   1.00
C110   C     0.44469   0.89345   0.39511   0.00000  Uiso   1.00
C111   C     0.42243   0.85056   0.46435   0.00000  Uiso   1.00
C112   C     0.43491   0.82337   0.33261   0.00000  Uiso   1.00
C113   C     0.47030   0.83995   0.13758   0.00000  Uiso   1.00
C114   C     0.49219   0.88271   0.06519   0.00000  Uiso   1.00
N115   N     0.41250   0.77891   0.38810   0.00000  Uiso   1.00
C116   C     0.35336   0.71079   0.50442   0.00000  Uiso   1.00
C117   C     0.30942   0.68663   0.50683   0.00000  Uiso   1.00
C118   C     0.37362   0.75685   0.47809   0.00000  Uiso   1.00
H119   H     0.80459   0.03457   0.17847   0.00000  Uiso   1.00
H120   H     0.79574   0.00952  -0.19402   0.00000  Uiso   1.00
H121   H     0.76825   0.96063   0.27454   0.00000  Uiso   1.00
H122   H     0.72980   0.97715   0.33432   0.00000  Uiso   1.00
H123   H     0.69880   0.90236   0.31381   0.00000  Uiso   1.00
H124   H     0.69637   0.87962  -0.06229   0.00000  Uiso   1.00
H125   H     0.64117   0.89070  -0.24547   0.00000  Uiso   1.00
H126   H     0.62772   0.87026   0.15253   0.00000  Uiso   1.00
H127   H     0.74457   0.11386   0.12557   0.00000  Uiso   1.00
H128   H     0.75600   0.10218  -0.26419   0.00000  Uiso   1.00
H129   H     0.78979   0.08598   0.18720   0.00000  Uiso   1.00
H130   H     0.73790   0.04581   0.31648   0.00000  Uiso   1.00
H131   H     0.69345   0.09848  -0.45711   0.00000  Uiso   1.00
H132   H     0.68400   0.11169  -0.06517   0.00000  Uiso   1.00
H133   H     0.62051   0.07537  -0.41136   0.00000  Uiso   1.00
H134   H     0.62592   0.02958  -0.41251   0.00000  Uiso   1.00
H135   H     0.59935   0.91566   0.39951   0.00000  Uiso   1.00
H136   H     0.58369   0.89920  -0.00354   0.00000  Uiso   1.00
H137   H     0.63271   0.99198   0.17375   0.00000  Uiso   1.00
H138   H     0.60103   0.96683  -0.17260   0.00000  Uiso   1.00
H139   H     0.47895   0.02926  -0.11756   0.00000  Uiso   1.00
H140   H     0.44486   0.95598   0.01770   0.00000  Uiso   1.00
H141   H     0.59162   0.27756  -0.32622   0.00000  Uiso   1.00
H142   H     0.67048   0.23984  -0.26589   0.00000  Uiso   1.00
H143   H     0.61348   0.10928   0.17777   0.00000  Uiso   1.00
H144   H     0.64129   0.18275   0.06471   0.00000  Uiso   1.00
H145   H     0.53991   0.15180  -0.58440   0.00000  Uiso   1.00
H146   H     0.51384   0.07722  -0.49734   0.00000  Uiso   1.00
H147   H     0.43455   0.91379   0.49907   0.00000  Uiso   1.00
H148   H     0.39608   0.83912   0.62426   0.00000  Uiso   1.00
H149   H     0.48009   0.81937   0.03266   0.00000  Uiso   1.00
H150   H     0.51789   0.89426  -0.10110   0.00000  Uiso   1.00
H151   H     0.29102   0.70221   0.50092   0.00000  Uiso   1.00
H152   H     0.35447   0.77114   0.50760   0.00000  Uiso   1.00
O153   O     0.93843   0.63404  -0.09403   0.00000  Uiso   1.00
O154   O     0.95494   0.56587   0.02261   0.00000  Uiso   1.00
O155   O     0.03916   0.60746   0.24924   0.00000  Uiso   1.00
O156   O     0.06541   0.71414   0.09036   0.00000  Uiso   1.00
O157   O     0.05604   0.77988  -0.08006   0.00000  Uiso   1.00
O158   O     0.96557   0.72305  -0.11373   0.00000  Uiso   1.00
C159   C     0.98511   0.76459   0.00584   0.00000  Uiso   1.00
C160   C     0.02744   0.77672   0.15534   0.00000  Uiso   1.00
C161   C     0.09478   0.78875   0.05708   0.00000  Uiso   1.00
C162   C     0.10208   0.75181   0.00734   0.00000  Uiso   1.00
C163   C     0.91192   0.65094  -0.03996   0.00000  Uiso   1.00
C164   C     0.93702   0.69433   0.10869   0.00000  Uiso   1.00
C165   C     0.91459   0.59343  -0.22428   0.00000  Uiso   1.00
C166   C     0.94252   0.57433  -0.27442   0.00000  Uiso   1.00
C167   C     0.02106   0.56746   0.10824   0.00000  Uiso   1.00
C168   C     0.97850   0.54548   0.00668   0.00000  Uiso   1.00
C169   C     0.07490   0.68199   0.14865   0.00000  Uiso   1.00
C170   C     0.03586   0.63964   0.08566   0.00000  Uiso   1.00
C171   C     0.95939   0.50210  -0.07560   0.00000  Uiso   1.00
C172   C     0.98410   0.48277  -0.06662   0.00000  Uiso   1.00
C173   C     0.02610   0.50496   0.01888   0.00000  Uiso   1.00
C174   C     0.04490   0.54709   0.10785   0.00000  Uiso   1.00
C175   C     0.69817   0.32257  -0.33375   0.00000  Uiso   1.00
C176   C     0.70918   0.36507  -0.33240   0.00000  Uiso   1.00
C177   C     0.75339   0.39875  -0.30615   0.00000  Uiso   1.00
C178   C     0.91362   0.47516  -0.15289   0.00000  Uiso   1.00
C179   C     0.88263   0.48056  -0.00030   0.00000  Uiso   1.00
C180   C     0.84006   0.45398  -0.06401   0.00000  Uiso   1.00
C181   C     0.82724   0.42033  -0.27489   0.00000  Uiso   1.00
C182   C     0.85762   0.41404  -0.42213   0.00000  Uiso   1.00
C183   C     0.90029   0.44166  -0.36843   0.00000  Uiso   1.00
N184   N     0.78373   0.39042  -0.32617   0.00000  Uiso   1.00
C185   C     0.09004   0.56983   0.19464   0.00000  Uiso   1.00
C186   C     0.10655   0.55124   0.39511   0.00000  Uiso   1.00
C187   C     0.14944   0.57187   0.46435   0.00000  Uiso   1.00
C188   C     0.17663   0.61154   0.33261   0.00000  Uiso   1.00
C189   C     0.16005   0.63035   0.13758   0.00000  Uiso   1.00
C190   C     0.11729   0.60948   0.06519   0.00000  Uiso   1.00
N191   N     0.22109   0.63359   0.38810   0.00000  Uiso   1.00
C192   C     0.28921   0.64257   0.50442   0.00000  Uiso   1.00
C193   C     0.31337   0.62279   0.50683   0.00000  Uiso   1.00
C194   C     0.24315   0.61677   0.47809   0.00000  Uiso   1.00
H195   H     0.96543   0.77002   0.17847   0.00000  Uiso   1.00
H196   H     0.99048   0.78622  -0.19402   0.00000  Uiso   1.00
H197   H     0.03937   0.80762   0.27454   0.00000  Uiso   1.00
H198   H     0.02285   0.75265   0.33432   0.00000  Uiso   1.00
H199   H     0.09764   0.79644   0.31381   0.00000  Uiso   1.00
H200   H     0.12038   0.81675  -0.06229   0.00000  Uiso   1.00
H201   H     0.10930   0.75047  -0.24547   0.00000  Uiso   1.00
H202   H     0.12974   0.75746   0.15253   0.00000  Uiso   1.00
H203   H     0.88614   0.63071   0.12557   0.00000  Uiso   1.00
H204   H     0.89782   0.65382  -0.26419   0.00000  Uiso   1.00
H205   H     0.91402   0.70381   0.18720   0.00000  Uiso   1.00
H206   H     0.95419   0.69209   0.31648   0.00000  Uiso   1.00
H207   H     0.90152   0.59497  -0.45711   0.00000  Uiso   1.00
H208   H     0.88831   0.57231  -0.06517   0.00000  Uiso   1.00
H209   H     0.92463   0.54514  -0.41136   0.00000  Uiso   1.00
H210   H     0.97042   0.59634  -0.41251   0.00000  Uiso   1.00
H211   H     0.08434   0.68369   0.39951   0.00000  Uiso   1.00
H212   H     0.10080   0.68449  -0.00354   0.00000  Uiso   1.00
H213   H     0.00802   0.64073   0.17375   0.00000  Uiso   1.00
H214   H     0.03317   0.63420  -0.17260   0.00000  Uiso   1.00
H215   H     0.97074   0.44969  -0.11756   0.00000  Uiso   1.00
H216   H     0.04402   0.48888   0.01770   0.00000  Uiso   1.00
H217   H     0.72244   0.31406  -0.32622   0.00000  Uiso   1.00
H218   H     0.76016   0.43064  -0.26589   0.00000  Uiso   1.00
H219   H     0.89072   0.50420   0.17777   0.00000  Uiso   1.00
H220   H     0.81725   0.45854   0.06471   0.00000  Uiso   1.00
H221   H     0.84820   0.38811  -0.58440   0.00000  Uiso   1.00
H222   H     0.92278   0.43662  -0.49734   0.00000  Uiso   1.00
H223   H     0.08621   0.52076   0.49907   0.00000  Uiso   1.00
H224   H     0.16088   0.55696   0.62426   0.00000  Uiso   1.00
H225   H     0.18063   0.66072   0.03266   0.00000  Uiso   1.00
H226   H     0.10574   0.62363  -0.10110   0.00000  Uiso   1.00
H227   H     0.29779   0.58881   0.50092   0.00000  Uiso   1.00
H228   H     0.22886   0.58333   0.50760   0.00000  Uiso   1.00
loop_
_geom_bond_atom_site_label_1
_geom_bond_atom_site_label_2
_geom_bond_distance
_geom_bond_site_symmetry_2
_ccdc_geom_bond_type
O1     C11     1.412   .     S
O1     C13     1.412   .     S
O2     C14     1.427   .     S
O2     C16     1.402   .     S
O3     C15     1.409   .     S
O3     C18     1.428   .     S
O4     C10     1.412   .     S
O4     C17     1.412   .     S
O5     C8      1.412   .     S
O5     C9      1.418   .     S
O6     C7      1.417   .     S
O6     C12     1.414   .     S
C7     C8      1.526   .     S
C7     H43     1.116   .     S
C7     H44     1.111   .     S
C8     H45     1.114   .     S
C8     H46     1.113   .     S
C9     C10     1.525   .     S
C9     H47     1.117   .     S
C9     H48     1.111   .     S
C10    H49     1.112   .     S
C10    H50     1.116   .     S
C11    C12     1.524   .     S
C11    H51     1.114   .     S
C11    H52     1.114   .     S
C12    H53     1.115   .     S
C12    H54     1.111   .     S
C13    C14     1.521   .     S
C13    H55     1.112   .     S
C13    H56     1.114   .     S
C14    H57     1.103   .     S
C14    H58     1.105   .     S
C15    C16     1.422   .     D
C15    C22     1.409   .     S
C16    C19     1.428   .     S
C17    C18     1.524   .     S
C17    H59     1.111   .     S
C17    H60     1.116   .     S
C18    H61     1.109   .     S
C18    H62     1.109   .     S
C19    C20     1.406   .     D
C19    C26     1.501   .     S
C20    C21     1.386   .     S
C20    H63     1.082   .     S
C21    C22     1.396   .     D
C21    H64     1.083   .     S
C22    C33     1.484   .     S
C23    C24     1.405   .     D
C23    H65     1.084   .     S
C23    C176    1.402   .     S
C24    C25     1.475   .     S
C24    C99     1.402   .     S
C25    N32     1.299   .     D
C25    H66     1.084   .     S
C26    C27     1.408   .     D
C26    C31     1.411   .     S
C27    C28     1.396   .     S
C27    H67     1.075   .     S
C28    C29     1.404   .     D
C28    H68     1.082   .     S
C29    C30     1.396   .     S
C29    N32     1.434   .     S
C30    C31     1.397   .     D
C30    H69     1.083   .     S
C31    H70     1.082   .     S
C33    C34     1.405   .     D
C33    C38     1.404   .     S
C34    C35     1.397   .     S
C34    H71     1.082   .     S
C35    C36     1.408   .     D
C35    H72     1.081   .     S
C36    C37     1.399   .     S
C36    N39     1.435   .     S
C37    C38     1.396   .     D
C37    H73     1.083   .     S
C38    H74     1.082   .     S
N39    C42     1.299   .     D
C40    C41     1.402   .     D
C40    C42     1.474   .     S
C40    C193    1.405   .     S
C41    H75     1.084   .     S
C41    C116    1.405   .     S
C42    H76     1.076   .     S
O77    C87     1.412   .     S
O77    C89     1.412   .     S
O78    C90     1.427   .     S
O78    C92     1.402   .     S
O79    C91     1.409   .     S
O79    C94     1.428   .     S
O80    C86     1.412   .     S
O80    C93     1.412   .     S
O81    C84     1.412   .     S
O81    C85     1.418   .     S
O82    C83     1.417   .     S
O82    C88     1.414   .     S
C83    C84     1.526   1_545 S
C83    H119    1.116   .     S
C83    H120    1.111   .     S
C84    C83     1.526   1_565 S
C84    H121    1.114   .     S
C84    H122    1.113   .     S
C85    C86     1.525   .     S
C85    H123    1.117   .     S
C85    H124    1.111   .     S
C86    H125    1.112   .     S
C86    H126    1.116   .     S
C87    C88     1.524   .     S
C87    H127    1.114   .     S
C87    H128    1.114   .     S
C88    H129    1.115   .     S
C88    H130    1.111   .     S
C89    C90     1.521   .     S
C89    H131    1.112   .     S
C89    H132    1.114   .     S
C90    H133    1.103   .     S
C90    H134    1.105   .     S
C91    C92     1.422   1_565 S
C91    C98     1.409   .     D
C92    C91     1.422   1_545 S
C92    C95     1.428   .     D
C93    C94     1.524   .     S
C93    H135    1.111   .     S
C93    H136    1.116   .     S
C94    H137    1.109   .     S
C94    H138    1.109   .     S
C95    C96     1.406   .     S
C95    C102    1.501   .     S
C96    C97     1.386   1_545 D
C96    H139    1.082   .     S
C97    C96     1.386   1_565 D
C97    C98     1.396   .     S
C97    H140    1.083   .     S
C98    C109    1.484   .     S
C99    C100    1.405   .     D
C99    H141    1.084   .     S
C100   C101    1.475   .     S
C100   C175    1.402   .     S
C101   N108    1.299   .     D
C101   H142    1.084   .     S
C102   C103    1.408   .     D
C102   C107    1.411   .     S
C103   C104    1.396   .     S
C103   H143    1.075   .     S
C104   C105    1.404   .     D
C104   H144    1.082   .     S
C105   C106    1.396   .     S
C105   N108    1.434   .     S
C106   C107    1.397   .     D
C106   H145    1.083   .     S
C107   H146    1.082   .     S
C109   C110    1.405   .     D
C109   C114    1.404   .     S
C110   C111    1.397   .     S
C110   H147    1.082   .     S
C111   C112    1.408   .     D
C111   H148    1.081   .     S
C112   C113    1.399   .     S
C112   N115    1.435   .     S
C113   C114    1.396   .     D
C113   H149    1.083   .     S
C114   H150    1.082   .     S
N115   C118    1.299   .     D
C116   C117    1.402   .     D
C116   C118    1.474   .     S
C117   H151    1.084   .     S
C117   C192    1.405   .     S
C118   H152    1.076   .     S
O153   C163    1.412   .     S
O153   C165    1.412   .     S
O154   C166    1.427   .     S
O154   C168    1.402   .     S
O155   C167    1.409   .     S
O155   C170    1.428   .     S
O156   C162    1.412   .     S
O156   C169    1.412   .     S
O157   C160    1.412   .     S
O157   C161    1.418   .     S
O158   C159    1.417   .     S
O158   C164    1.414   .     S
C159   C160    1.526   1_655 S
C159   H195    1.116   .     S
C159   H196    1.111   .     S
C160   C159    1.526   1_455 S
C160   H197    1.114   .     S
C160   H198    1.113   .     S
C161   C162    1.525   .     S
C161   H199    1.117   .     S
C161   H200    1.111   .     S
C162   H201    1.112   .     S
C162   H202    1.116   .     S
C163   C164    1.524   .     S
C163   H203    1.114   .     S
C163   H204    1.114   .     S
C164   H205    1.115   .     S
C164   H206    1.111   .     S
C165   C166    1.521   .     S
C165   H207    1.112   .     S
C165   H208    1.114   .     S
C166   H209    1.103   .     S
C166   H210    1.105   .     S
C167   C168    1.422   1_455 S
C167   C174    1.409   .     D
C168   C167    1.422   1_655 S
C168   C171    1.428   .     D
C169   C170    1.524   .     S
C169   H211    1.111   .     S
C169   H212    1.116   .     S
C170   H213    1.109   .     S
C170   H214    1.109   .     S
C171   C172    1.406   .     S
C171   C178    1.501   .     S
C172   C173    1.386   1_655 D
C172   H215    1.082   .     S
C173   C172    1.386   1_455 D
C173   C174    1.396   .     S
C173   H216    1.083   .     S
C174   C185    1.484   .     S
C175   C176    1.405   .     D
C175   H217    1.084   .     S
C176   C177    1.475   .     S
C177   N184    1.299   .     D
C177   H218    1.084   .     S
C178   C179    1.408   .     D
C178   C183    1.411   .     S
C179   C180    1.396   .     S
C179   H219    1.075   .     S
C180   C181    1.404   .     D
C180   H220    1.082   .     S
C181   C182    1.396   .     S
C181   N184    1.434   .     S
C182   C183    1.397   .     D
C182   H221    1.083   .     S
C183   H222    1.082   .     S
C185   C186    1.405   .     D
C185   C190    1.404   .     S
C186   C187    1.397   .     S
C186   H223    1.082   .     S
C187   C188    1.408   .     D
C187   H224    1.081   .     S
C188   C189    1.399   .     S
C188   N191    1.435   .     S
C189   C190    1.396   .     D
C189   H225    1.083   .     S
C190   H226    1.082   .     S
N191   C194    1.299   .     D
C192   C193    1.402   .     D
C192   C194    1.474   .     S
C193   H227    1.084   .     S
C194   H228    1.076   .     S
