data_400
_audit_creation_date              2023-09-08
_audit_creation_method            'Materials Studio'
_symmetry_space_group_name_H-M    'P1'
_symmetry_Int_Tables_number       1
_symmetry_cell_setting            triclinic
loop_
_symmetry_equiv_pos_as_xyz
  x,y,z
_cell_length_a                    35.8200
_cell_length_b                    31.9000
_cell_length_c                    4.6900
_cell_angle_alpha                 90.0000
_cell_angle_beta                  90.0000
_cell_angle_gamma                 90.0000
loop_
_atom_site_label
_atom_site_type_symbol
_atom_site_fract_x
_atom_site_fract_y
_atom_site_fract_z
_atom_site_U_iso_or_equiv
_atom_site_adp_type
_atom_site_occupancy
C1     C     0.96560   0.45512  -0.33976   0.00000  Uiso   1.00
C2     C     0.03440   0.54488  -0.33976   0.00000  Uiso   1.00
C3     C     0.53440   0.95512   0.33976   0.00000  Uiso   1.00
C4     C     0.46560   0.04488   0.33976   0.00000  Uiso   1.00
C5     C     0.53440   0.04488   0.33976   0.00000  Uiso   1.00
C6     C     0.46560   0.95512   0.33976   0.00000  Uiso   1.00
C7     C     0.96560   0.54488  -0.33976   0.00000  Uiso   1.00
C8     C     0.03440   0.45512  -0.33976   0.00000  Uiso   1.00
C9     C     0.93227   0.52192  -0.38027   0.00000  Uiso   1.00
C10    C     0.06773   0.47808  -0.38027   0.00000  Uiso   1.00
C11    C     0.56773   0.02192   0.38027   0.00000  Uiso   1.00
C12    C     0.43227   0.97808   0.38027   0.00000  Uiso   1.00
C13    C     0.56773   0.97808   0.38027   0.00000  Uiso   1.00
C14    C     0.43227   0.02192   0.38027   0.00000  Uiso   1.00
C15    C     0.93227   0.47808  -0.38027   0.00000  Uiso   1.00
C16    C     0.06773   0.52192  -0.38027   0.00000  Uiso   1.00
C17    C     0.96554   0.58904  -0.29475   0.00000  Uiso   1.00
C18    C     0.03446   0.41096  -0.29475   0.00000  Uiso   1.00
C19    C     0.53446   0.08904   0.29475   0.00000  Uiso   1.00
C20    C     0.46554   0.91096   0.29475   0.00000  Uiso   1.00
C21    C     0.53446   0.91096   0.29475   0.00000  Uiso   1.00
C22    C     0.46554   0.08904   0.29475   0.00000  Uiso   1.00
C23    C     0.96554   0.41096  -0.29475   0.00000  Uiso   1.00
C24    C     0.03446   0.58904  -0.29475   0.00000  Uiso   1.00
C25    C     0.93270   0.61283  -0.24960   0.00000  Uiso   1.00
C26    C     0.06730   0.38717  -0.24960   0.00000  Uiso   1.00
C27    C     0.56730   0.11283   0.24960   0.00000  Uiso   1.00
C28    C     0.43270   0.88717   0.24960   0.00000  Uiso   1.00
C29    C     0.56730   0.88717   0.24960   0.00000  Uiso   1.00
C30    C     0.43270   0.11283   0.24960   0.00000  Uiso   1.00
C31    C     0.93270   0.38717  -0.24960   0.00000  Uiso   1.00
C32    C     0.06730   0.61283  -0.24960   0.00000  Uiso   1.00
C33    C     0.90720   0.60108  -0.03362   0.00000  Uiso   1.00
C34    C     0.09280   0.39892  -0.03362   0.00000  Uiso   1.00
C35    C     0.59280   0.10108   0.03362   0.00000  Uiso   1.00
C36    C     0.40720   0.89892   0.03362   0.00000  Uiso   1.00
C37    C     0.59280   0.89892   0.03362   0.00000  Uiso   1.00
C38    C     0.40720   0.10108   0.03362   0.00000  Uiso   1.00
C39    C     0.90720   0.39892  -0.03362   0.00000  Uiso   1.00
C40    C     0.09280   0.60108  -0.03362   0.00000  Uiso   1.00
C41    C     0.87443   0.62430   0.01357   0.00000  Uiso   1.00
C42    C     0.12557   0.37570   0.01357   0.00000  Uiso   1.00
C43    C     0.62557   0.12430  -0.01357   0.00000  Uiso   1.00
C44    C     0.37443   0.87570  -0.01357   0.00000  Uiso   1.00
C45    C     0.62557   0.87570  -0.01357   0.00000  Uiso   1.00
C46    C     0.37443   0.12430  -0.01357   0.00000  Uiso   1.00
C47    C     0.87443   0.37570   0.01357   0.00000  Uiso   1.00
C48    C     0.12557   0.62430   0.01357   0.00000  Uiso   1.00
C49    C     0.86674   0.66037  -0.14839   0.00000  Uiso   1.00
C50    C     0.13326   0.33962  -0.14839   0.00000  Uiso   1.00
C51    C     0.63326   0.16037   0.14839   0.00000  Uiso   1.00
C52    C     0.36674   0.83962   0.14839   0.00000  Uiso   1.00
C53    C     0.63326   0.83962   0.14839   0.00000  Uiso   1.00
C54    C     0.36674   0.16037   0.14839   0.00000  Uiso   1.00
C55    C     0.86674   0.33962  -0.14839   0.00000  Uiso   1.00
C56    C     0.13326   0.66037  -0.14839   0.00000  Uiso   1.00
C57    C     0.89237   0.67283  -0.36093   0.00000  Uiso   1.00
C58    C     0.10763   0.32717  -0.36093   0.00000  Uiso   1.00
C59    C     0.60763   0.17283   0.36093   0.00000  Uiso   1.00
C60    C     0.39237   0.82717   0.36093   0.00000  Uiso   1.00
C61    C     0.60763   0.82717   0.36093   0.00000  Uiso   1.00
C62    C     0.39237   0.17283   0.36093   0.00000  Uiso   1.00
C63    C     0.89237   0.32717  -0.36093   0.00000  Uiso   1.00
C64    C     0.10763   0.67283  -0.36093   0.00000  Uiso   1.00
C65    C     0.92496   0.64926  -0.41119   0.00000  Uiso   1.00
C66    C     0.07504   0.35074  -0.41119   0.00000  Uiso   1.00
C67    C     0.57504   0.14926   0.41119   0.00000  Uiso   1.00
C68    C     0.42496   0.85074   0.41119   0.00000  Uiso   1.00
C69    C     0.57504   0.85074   0.41119   0.00000  Uiso   1.00
C70    C     0.42496   0.14926   0.41119   0.00000  Uiso   1.00
C71    C     0.92496   0.35074  -0.41119   0.00000  Uiso   1.00
C72    C     0.07504   0.64926  -0.41119   0.00000  Uiso   1.00
N73    N     0.83476   0.68063  -0.08280   0.00000  Uiso   1.00
N74    N     0.16524   0.31936  -0.08280   0.00000  Uiso   1.00
N75    N     0.66524   0.18063   0.08280   0.00000  Uiso   1.00
N76    N     0.33476   0.81936   0.08280   0.00000  Uiso   1.00
N77    N     0.66524   0.81936   0.08280   0.00000  Uiso   1.00
N78    N     0.33476   0.18063   0.08280   0.00000  Uiso   1.00
N79    N     0.83476   0.31936  -0.08280   0.00000  Uiso   1.00
N80    N     0.16524   0.68063  -0.08280   0.00000  Uiso   1.00
H81    H     0.90722   0.53680  -0.40674   0.00000  Uiso   1.00
H82    H     0.09278   0.46320  -0.40674   0.00000  Uiso   1.00
H83    H     0.59278   0.03680   0.40674   0.00000  Uiso   1.00
H84    H     0.40722   0.96320   0.40674   0.00000  Uiso   1.00
H85    H     0.59278   0.96320   0.40674   0.00000  Uiso   1.00
H86    H     0.40722   0.03680   0.40674   0.00000  Uiso   1.00
H87    H     0.90722   0.46320  -0.40674   0.00000  Uiso   1.00
H88    H     0.09278   0.53680  -0.40674   0.00000  Uiso   1.00
H89    H     0.91240   0.57552   0.09217   0.00000  Uiso   1.00
H90    H     0.08760   0.42448   0.09217   0.00000  Uiso   1.00
H91    H     0.58759   0.07552  -0.09217   0.00000  Uiso   1.00
H92    H     0.41240   0.92448  -0.09217   0.00000  Uiso   1.00
H93    H     0.58759   0.92448  -0.09217   0.00000  Uiso   1.00
H94    H     0.41240   0.07552  -0.09217   0.00000  Uiso   1.00
H95    H     0.91240   0.42448   0.09217   0.00000  Uiso   1.00
H96    H     0.08760   0.57552   0.09217   0.00000  Uiso   1.00
H97    H     0.85617   0.61501   0.16914   0.00000  Uiso   1.00
H98    H     0.14383   0.38499   0.16914   0.00000  Uiso   1.00
H99    H     0.64383   0.11501  -0.16914   0.00000  Uiso   1.00
H100   H     0.35617   0.88499  -0.16914   0.00000  Uiso   1.00
H101   H     0.64383   0.88499  -0.16914   0.00000  Uiso   1.00
H102   H     0.35617   0.11501  -0.16914   0.00000  Uiso   1.00
H103   H     0.85617   0.38499   0.16914   0.00000  Uiso   1.00
H104   H     0.14383   0.61501   0.16914   0.00000  Uiso   1.00
H105   H     0.88752   0.69896  -0.48088   0.00000  Uiso   1.00
H106   H     0.11248   0.30104  -0.48088   0.00000  Uiso   1.00
H107   H     0.61248   0.19896   0.48088   0.00000  Uiso   1.00
H108   H     0.38752   0.80104   0.48088   0.00000  Uiso   1.00
H109   H     0.61248   0.80104   0.48088   0.00000  Uiso   1.00
H110   H     0.38752   0.19896   0.48088   0.00000  Uiso   1.00
H111   H     0.88752   0.30104  -0.48088   0.00000  Uiso   1.00
H112   H     0.11248   0.69896  -0.48088   0.00000  Uiso   1.00
H113   H     0.94294   0.65875  -0.56833   0.00000  Uiso   1.00
H114   H     0.05706   0.34125  -0.56833   0.00000  Uiso   1.00
H115   H     0.55706   0.15875   0.56833   0.00000  Uiso   1.00
H116   H     0.44294   0.84125   0.56833   0.00000  Uiso   1.00
H117   H     0.55706   0.84125   0.56833   0.00000  Uiso   1.00
H118   H     0.44294   0.15875   0.56833   0.00000  Uiso   1.00
H119   H     0.94294   0.34125  -0.56833   0.00000  Uiso   1.00
H120   H     0.05706   0.65875  -0.56833   0.00000  Uiso   1.00
C121   C     0.31756   0.21383   0.20460   0.00000  Uiso   1.00
C122   C     0.68244   0.78617   0.20460   0.00000  Uiso   1.00
C123   C     0.18244   0.71383  -0.20460   0.00000  Uiso   1.00
C124   C     0.81756   0.28617  -0.20460   0.00000  Uiso   1.00
C125   C     0.18244   0.28617  -0.20460   0.00000  Uiso   1.00
C126   C     0.81756   0.71383  -0.20460   0.00000  Uiso   1.00
C127   C     0.31756   0.78617   0.20460   0.00000  Uiso   1.00
C128   C     0.68244   0.21383   0.20460   0.00000  Uiso   1.00
C129   C     0.00000   0.61019  -0.27345   0.00000  Uiso   1.00
C130   C     0.00000   0.38981  -0.27345   0.00000  Uiso   1.00
C131   C     0.50000   0.11019   0.27345   0.00000  Uiso   1.00
C132   C     0.50000   0.88981   0.27345   0.00000  Uiso   1.00
C133   C     0.00000   0.47757  -0.34360   0.00000  Uiso   1.00
C134   C     0.00000   0.52243  -0.34360   0.00000  Uiso   1.00
C135   C     0.50000   0.97757   0.34360   0.00000  Uiso   1.00
C136   C     0.50000   0.02243   0.34360   0.00000  Uiso   1.00
H137   H     0.00000   0.64182  -0.23338   0.00000  Uiso   1.00
H138   H     0.00000   0.35818  -0.23338   0.00000  Uiso   1.00
H139   H     0.50000   0.14182   0.23338   0.00000  Uiso   1.00
H140   H     0.50000   0.85818   0.23338   0.00000  Uiso   1.00
C141   C     0.71606   0.76916   0.09831   0.00000  Uiso   1.00
C142   C     0.28394   0.23084   0.09831   0.00000  Uiso   1.00
C143   C     0.78394   0.26916  -0.09831   0.00000  Uiso   1.00
C144   C     0.21606   0.73084  -0.09831   0.00000  Uiso   1.00
C145   C     0.78394   0.73084  -0.09831   0.00000  Uiso   1.00
C146   C     0.21606   0.26916  -0.09831   0.00000  Uiso   1.00
C147   C     0.71606   0.23084   0.09831   0.00000  Uiso   1.00
C148   C     0.28394   0.76916   0.09831   0.00000  Uiso   1.00
H149   H     0.32941   0.77269   0.38078   0.00000  Uiso   1.00
C150   C     0.72839   0.26975   0.20861   0.00000  Uiso   1.00
C151   C     0.76148   0.28865   0.11336   0.00000  Uiso   1.00
H152   H     0.71338   0.28522   0.36155   0.00000  Uiso   1.00
O153   O     0.76962   0.32582   0.23631   0.00000  Uiso   1.00
H154   H     0.29216   0.84025  -0.17248   0.00000  Uiso   1.00
H155   H     0.67059   0.22731   0.38078   0.00000  Uiso   1.00
C156   C     0.27161   0.73025   0.20861   0.00000  Uiso   1.00
C157   C     0.23852   0.71135   0.11336   0.00000  Uiso   1.00
H158   H     0.28662   0.71478   0.36155   0.00000  Uiso   1.00
O159   O     0.23038   0.67418   0.23631   0.00000  Uiso   1.00
H160   H     0.70784   0.15975  -0.17248   0.00000  Uiso   1.00
H161   H     0.17059   0.27269  -0.38078   0.00000  Uiso   1.00
C162   C     0.77161   0.76975  -0.20861   0.00000  Uiso   1.00
C163   C     0.73852   0.78865  -0.11336   0.00000  Uiso   1.00
H164   H     0.78662   0.78522  -0.36155   0.00000  Uiso   1.00
O165   O     0.73038   0.82582  -0.23631   0.00000  Uiso   1.00
H166   H     0.20784   0.34025   0.17248   0.00000  Uiso   1.00
H167   H     0.82941   0.72731  -0.38078   0.00000  Uiso   1.00
C168   C     0.22839   0.23025  -0.20861   0.00000  Uiso   1.00
C169   C     0.26148   0.21135  -0.11336   0.00000  Uiso   1.00
H170   H     0.21338   0.21478  -0.36155   0.00000  Uiso   1.00
O171   O     0.26962   0.17418  -0.23631   0.00000  Uiso   1.00
H172   H     0.79216   0.65975   0.17248   0.00000  Uiso   1.00
H173   H     0.17059   0.72731  -0.38078   0.00000  Uiso   1.00
C174   C     0.77161   0.23025  -0.20861   0.00000  Uiso   1.00
C175   C     0.73852   0.21135  -0.11336   0.00000  Uiso   1.00
H176   H     0.78662   0.21478  -0.36155   0.00000  Uiso   1.00
O177   O     0.73038   0.17418  -0.23631   0.00000  Uiso   1.00
H178   H     0.20784   0.65975   0.17248   0.00000  Uiso   1.00
H179   H     0.82941   0.27269  -0.38078   0.00000  Uiso   1.00
C180   C     0.22839   0.76975  -0.20861   0.00000  Uiso   1.00
C181   C     0.26148   0.78865  -0.11336   0.00000  Uiso   1.00
H182   H     0.21338   0.78522  -0.36155   0.00000  Uiso   1.00
O183   O     0.26962   0.82582  -0.23631   0.00000  Uiso   1.00
H184   H     0.79216   0.34025   0.17248   0.00000  Uiso   1.00
H185   H     0.32941   0.22731   0.38078   0.00000  Uiso   1.00
C186   C     0.72839   0.73025   0.20861   0.00000  Uiso   1.00
C187   C     0.76148   0.71135   0.11336   0.00000  Uiso   1.00
H188   H     0.71338   0.71478   0.36155   0.00000  Uiso   1.00
O189   O     0.76962   0.67418   0.23631   0.00000  Uiso   1.00
H190   H     0.29216   0.15975  -0.17248   0.00000  Uiso   1.00
H191   H     0.67059   0.77269   0.38078   0.00000  Uiso   1.00
C192   C     0.27161   0.26975   0.20861   0.00000  Uiso   1.00
C193   C     0.23852   0.28865   0.11336   0.00000  Uiso   1.00
H194   H     0.28662   0.28522   0.36155   0.00000  Uiso   1.00
O195   O     0.23038   0.32582   0.23631   0.00000  Uiso   1.00
H196   H     0.70784   0.84025  -0.17248   0.00000  Uiso   1.00
loop_
_geom_bond_atom_site_label_1
_geom_bond_atom_site_label_2
_geom_bond_distance
_geom_bond_site_symmetry_2
_ccdc_geom_bond_type
C1     C15     1.414   .     S
C1     C23     1.424   .     S
C1     C133    1.425   1_655 D
C2     C16     1.414   .     D
C2     C24     1.424   .     S
C2     C134    1.425   .     S
C3     C13     1.414   .     S
C3     C21     1.424   .     S
C3     C135    1.425   .     D
C4     C14     1.414   .     D
C4     C22     1.424   .     S
C4     C136    1.425   .     S
C5     C11     1.414   .     S
C5     C19     1.424   .     S
C5     C136    1.425   .     D
C6     C12     1.414   .     D
C6     C20     1.424   .     S
C6     C135    1.425   .     S
C7     C9      1.414   .     S
C7     C17     1.424   .     S
C7     C134    1.425   1_655 D
C8     C10     1.414   .     D
C8     C18     1.424   .     S
C8     C133    1.425   .     S
C9     C15     1.398   .     D
C9     H81     1.023   .     S
C10    C16     1.398   .     S
C10    H82     1.023   .     S
C11    C13     1.398   1_545 D
C11    H83     1.023   .     S
C12    C14     1.398   1_565 S
C12    H84     1.023   .     S
C13    C11     1.398   1_565 D
C13    H85     1.023   .     S
C14    C12     1.398   1_545 S
C14    H86     1.023   .     S
C15    H87     1.023   .     S
C16    H88     1.023   .     S
C17    C25     1.416   .     S
C17    C129    1.410   1_655 D
C18    C26     1.416   .     D
C18    C130    1.410   .     S
C19    C27     1.416   .     S
C19    C131    1.410   .     D
C20    C28     1.416   .     D
C20    C132    1.410   .     S
C21    C29     1.416   .     S
C21    C132    1.410   .     D
C22    C30     1.416   .     D
C22    C131    1.410   .     S
C23    C31     1.416   .     S
C23    C130    1.410   1_655 D
C24    C32     1.416   .     D
C24    C129    1.410   .     S
C25    C33     1.414   .     D
C25    C65     1.415   .     S
C26    C34     1.414   .     S
C26    C66     1.415   .     S
C27    C35     1.414   .     D
C27    C67     1.415   .     S
C28    C36     1.414   .     S
C28    C68     1.415   .     S
C29    C37     1.414   .     D
C29    C69     1.415   .     S
C30    C38     1.414   .     S
C30    C70     1.415   .     S
C31    C39     1.414   .     D
C31    C71     1.415   .     S
C32    C40     1.414   .     S
C32    C72     1.415   .     S
C33    C41     1.405   .     S
C33    H89     1.024   .     S
C34    C42     1.405   .     D
C34    H90     1.024   .     S
C35    C43     1.405   .     S
C35    H91     1.024   .     S
C36    C44     1.405   .     D
C36    H92     1.024   .     S
C37    C45     1.405   .     S
C37    H93     1.024   .     S
C38    C46     1.405   .     D
C38    H94     1.024   .     S
C39    C47     1.405   .     S
C39    H95     1.024   .     S
C40    C48     1.405   .     D
C40    H96     1.024   .     S
C41    C49     1.406   .     D
C41    H97     1.024   .     S
C42    C50     1.406   .     S
C42    H98     1.024   .     S
C43    C51     1.406   .     D
C43    H99     1.024   .     S
C44    C52     1.406   .     S
C44    H100    1.024   .     S
C45    C53     1.406   .     D
C45    H101    1.024   .     S
C46    C54     1.406   .     S
C46    H102    1.024   .     S
C47    C55     1.406   .     D
C47    H103    1.024   .     S
C48    C56     1.406   .     S
C48    H104    1.024   .     S
C49    C57     1.412   .     S
C49    N73     1.351   .     S
C50    C58     1.412   .     S
C50    N74     1.351   .     D
C51    C59     1.412   .     S
C51    N75     1.351   .     S
C52    C60     1.412   .     S
C52    N76     1.351   .     D
C53    C61     1.412   .     S
C53    N77     1.351   .     S
C54    C62     1.412   .     S
C54    N78     1.351   .     D
C55    C63     1.412   .     S
C55    N79     1.351   .     S
C56    C64     1.412   .     S
C56    N80     1.351   .     D
C57    C65     1.409   .     D
C57    H105    1.020   .     S
C58    C66     1.409   .     D
C58    H106    1.020   .     S
C59    C67     1.409   .     D
C59    H107    1.020   .     S
C60    C68     1.409   .     D
C60    H108    1.020   .     S
C61    C69     1.409   .     D
C61    H109    1.020   .     S
C62    C70     1.409   .     D
C62    H110    1.020   .     S
C63    C71     1.409   .     D
C63    H111    1.020   .     S
C64    C72     1.409   .     D
C64    H112    1.020   .     S
C65    H113    1.024   .     S
C66    H114    1.024   .     S
C67    H115    1.024   .     S
C68    H116    1.024   .     S
C69    H117    1.024   .     S
C70    H118    1.024   .     S
C71    H119    1.024   .     S
C72    H120    1.024   .     S
N73    C126    1.352   .     D
N74    C125    1.352   .     S
N75    C128    1.352   .     D
N76    C127    1.352   .     S
N77    C122    1.352   .     D
N78    C121    1.352   .     S
N79    C124    1.352   .     D
N80    C123    1.352   .     S
C121   C142    1.412   .     D
C121   H185    1.024   .     S
C122   C141    1.412   .     S
C122   H191    1.024   .     S
C123   C144    1.412   .     D
C123   H173    1.024   .     S
C124   C143    1.412   .     S
C124   H179    1.024   .     S
C125   C146    1.412   .     D
C125   H161    1.024   .     S
C126   C145    1.412   .     S
C126   H167    1.024   .     S
C127   C148    1.412   .     D
C127   H149    1.024   .     S
C128   C147    1.412   .     S
C128   H155    1.024   .     S
C129   C17     1.410   1_455 D
C129   H137    1.027   .     S
C130   C23     1.410   1_455 D
C130   H138    1.027   .     S
C131   H139    1.027   .     S
C132   H140    1.027   .     S
C133   C1      1.425   1_455 D
C133   C134    1.431   .     S
C134   C7      1.425   1_455 D
C135   C136    1.431   1_565 S
C136   C135    1.431   1_545 S
C141   C163    1.421   .     D
C141   C186    1.415   .     S
C142   C169    1.421   .     S
C142   C192    1.415   .     S
C143   C151    1.421   .     D
C143   C174    1.415   .     S
C144   C157    1.421   .     S
C144   C180    1.415   .     S
C145   C162    1.415   .     D
C145   C187    1.421   .     S
C146   C168    1.415   .     S
C146   C193    1.421   .     S
C147   C150    1.415   .     D
C147   C175    1.421   .     S
C148   C156    1.415   .     S
C148   C181    1.421   .     S
C150   C151    1.403   .     S
C150   H152    1.023   .     S
C151   O153    1.350   .     S
O153   H184    0.976   .     S
H154   O183    0.976   .     S
C156   C157    1.403   .     D
C156   H158    1.023   .     S
C157   O159    1.350   .     S
O159   H178    0.976   .     S
H160   O177    0.976   .     S
C162   C163    1.403   .     S
C162   H164    1.023   .     S
C163   O165    1.350   .     S
O165   H196    0.976   .     S
H166   O195    0.976   .     S
C168   C169    1.403   .     D
C168   H170    1.023   .     S
C169   O171    1.350   .     S
O171   H190    0.976   .     S
H172   O189    0.976   .     S
C174   C175    1.403   .     D
C174   H176    1.023   .     S
C175   O177    1.350   .     S
C180   C181    1.403   .     D
C180   H182    1.023   .     S
C181   O183    1.350   .     S
C186   C187    1.403   .     D
C186   H188    1.023   .     S
C187   O189    1.350   .     S
C192   C193    1.403   .     D
C192   H194    1.023   .     S
C193   O195    1.350   .     S
