data_401
_audit_creation_date              2023-09-08
_audit_creation_method            'Materials Studio'
_symmetry_space_group_name_H-M    'P1'
_symmetry_Int_Tables_number       1
_symmetry_cell_setting            triclinic
loop_
_symmetry_equiv_pos_as_xyz
  x,y,z
_cell_length_a                    43.1325
_cell_length_b                    43.1325
_cell_length_c                    3.3300
_cell_angle_alpha                 90.0000
_cell_angle_beta                  90.0000
_cell_angle_gamma                 120.0000
loop_
_atom_site_label
_atom_site_type_symbol
_atom_site_fract_x
_atom_site_fract_y
_atom_site_fract_z
_atom_site_U_iso_or_equiv
_atom_site_adp_type
_atom_site_occupancy
O1     O     0.53560   0.40691   0.50000   0.00000  Uiso   1.00
O2     O     0.59309   0.12870   0.50000   0.00000  Uiso   1.00
O3     O     0.87130   0.46440   0.50000   0.00000  Uiso   1.00
O4     O     0.59309   0.46440   0.50000   0.00000  Uiso   1.00
O5     O     0.87130   0.40691   0.50000   0.00000  Uiso   1.00
O6     O     0.53560   0.12870   0.50000   0.00000  Uiso   1.00
C7     C     0.56470   0.40321   0.50000   0.00000  Uiso   1.00
C8     C     0.59679   0.16150   0.50000   0.00000  Uiso   1.00
C9     C     0.83851   0.43530   0.50000   0.00000  Uiso   1.00
C10    C     0.59679   0.43530   0.50000   0.00000  Uiso   1.00
C11    C     0.83851   0.40321   0.50000   0.00000  Uiso   1.00
C12    C     0.56470   0.16150   0.50000   0.00000  Uiso   1.00
C13    C     0.56303   0.37105   0.50000   0.00000  Uiso   1.00
C14    C     0.62895   0.19198   0.50000   0.00000  Uiso   1.00
C15    C     0.80802   0.43697   0.50000   0.00000  Uiso   1.00
C16    C     0.62895   0.43697   0.50000   0.00000  Uiso   1.00
C17    C     0.80802   0.37105   0.50000   0.00000  Uiso   1.00
C18    C     0.56303   0.19198   0.50000   0.00000  Uiso   1.00
C19    C     0.59536   0.37213   0.50000   0.00000  Uiso   1.00
C20    C     0.62787   0.22324   0.50000   0.00000  Uiso   1.00
C21    C     0.77676   0.40464   0.50000   0.00000  Uiso   1.00
C22    C     0.62787   0.40464   0.50000   0.00000  Uiso   1.00
C23    C     0.77676   0.37213   0.50000   0.00000  Uiso   1.00
C24    C     0.59536   0.22324   0.50000   0.00000  Uiso   1.00
B25    B     0.55460   0.44540   0.50000   0.00000  Uiso   1.00
B26    B     0.55460   0.10921   0.50000   0.00000  Uiso   1.00
B27    B     0.89080   0.44540   0.50000   0.00000  Uiso   1.00
C28    C     0.44523   0.55477   0.50000   0.00000  Uiso   1.00
C29    C     0.44523   0.89046   0.50000   0.00000  Uiso   1.00
C30    C     0.10954   0.55477   0.50000   0.00000  Uiso   1.00
H31    H     0.53747   0.34644   0.50000   0.00000  Uiso   1.00
H32    H     0.65356   0.19104   0.50000   0.00000  Uiso   1.00
H33    H     0.80896   0.46253   0.50000   0.00000  Uiso   1.00
H34    H     0.65356   0.46253   0.50000   0.00000  Uiso   1.00
H35    H     0.80896   0.34644   0.50000   0.00000  Uiso   1.00
H36    H     0.53747   0.19104   0.50000   0.00000  Uiso   1.00
C37    C     0.47996   0.46278   0.50000   0.00000  Uiso   1.00
C38    C     0.53722   0.01718   0.50000   0.00000  Uiso   1.00
C39    C     0.98282   0.52004   0.50000   0.00000  Uiso   1.00
C40    C     0.53722   0.52004   0.50000   0.00000  Uiso   1.00
C41    C     0.98282   0.46278   0.50000   0.00000  Uiso   1.00
C42    C     0.47996   0.01718   0.50000   0.00000  Uiso   1.00
C43    C     0.48226   0.57452   0.50000   0.00000  Uiso   1.00
C44    C     0.42548   0.90773   0.50000   0.00000  Uiso   1.00
C45    C     0.09227   0.51774   0.50000   0.00000  Uiso   1.00
C46    C     0.42548   0.51774   0.50000   0.00000  Uiso   1.00
C47    C     0.09227   0.57452   0.50000   0.00000  Uiso   1.00
C48    C     0.48226   0.90773   0.50000   0.00000  Uiso   1.00
C49    C     0.44264   0.44357   0.50000   0.00000  Uiso   1.00
C50    C     0.55643   0.99907   0.50000   0.00000  Uiso   1.00
C51    C     0.00093   0.55736   0.50000   0.00000  Uiso   1.00
C52    C     0.55643   0.55736   0.50000   0.00000  Uiso   1.00
C53    C     0.00093   0.44357   0.50000   0.00000  Uiso   1.00
C54    C     0.44264   0.99907   0.50000   0.00000  Uiso   1.00
H55    H     0.49667   0.60366   0.50000   0.00000  Uiso   1.00
H56    H     0.39634   0.89301   0.50000   0.00000  Uiso   1.00
H57    H     0.10699   0.50333   0.50000   0.00000  Uiso   1.00
H58    H     0.39634   0.50333   0.50000   0.00000  Uiso   1.00
H59    H     0.10699   0.60366   0.50000   0.00000  Uiso   1.00
H60    H     0.49667   0.89301   0.50000   0.00000  Uiso   1.00
H61    H     0.42793   0.41455   0.50000   0.00000  Uiso   1.00
H62    H     0.58545   0.01338   0.50000   0.00000  Uiso   1.00
H63    H     0.98662   0.57207   0.50000   0.00000  Uiso   1.00
H64    H     0.58545   0.57207   0.50000   0.00000  Uiso   1.00
H65    H     0.98662   0.41455   0.50000   0.00000  Uiso   1.00
H66    H     0.42793   0.01338   0.50000   0.00000  Uiso   1.00
C67    C     0.38589   0.67946   0.50000   0.00000  Uiso   1.00
C68    C     0.32054   0.70644   0.50000   0.00000  Uiso   1.00
C69    C     0.29356   0.61411   0.50000   0.00000  Uiso   1.00
C70    C     0.32054   0.61411   0.50000   0.00000  Uiso   1.00
C71    C     0.29356   0.67946   0.50000   0.00000  Uiso   1.00
C72    C     0.38589   0.70644   0.50000   0.00000  Uiso   1.00
C73    C     0.49943   0.50058   0.50000   0.00000  Uiso   1.00
C74    C     0.49943   0.99885   0.50000   0.00000  Uiso   1.00
C75    C     0.00115   0.50057   0.50000   0.00000  Uiso   1.00
O76    O     0.44503   0.61247   0.50000   0.00000  Uiso   1.00
O77    O     0.38753   0.83256   0.50000   0.00000  Uiso   1.00
O78    O     0.16744   0.55497   0.50000   0.00000  Uiso   1.00
O79    O     0.38753   0.55497   0.50000   0.00000  Uiso   1.00
O80    O     0.16744   0.61247   0.50000   0.00000  Uiso   1.00
O81    O     0.44503   0.83256   0.50000   0.00000  Uiso   1.00
C82    C     0.41593   0.61617   0.50000   0.00000  Uiso   1.00
C83    C     0.38383   0.79976   0.50000   0.00000  Uiso   1.00
C84    C     0.20024   0.58407   0.50000   0.00000  Uiso   1.00
C85    C     0.38383   0.58407   0.50000   0.00000  Uiso   1.00
C86    C     0.20024   0.61617   0.50000   0.00000  Uiso   1.00
C87    C     0.41593   0.79976   0.50000   0.00000  Uiso   1.00
C88    C     0.41760   0.64833   0.50000   0.00000  Uiso   1.00
C89    C     0.35167   0.76928   0.50000   0.00000  Uiso   1.00
C90    C     0.23073   0.58240   0.50000   0.00000  Uiso   1.00
C91    C     0.35167   0.58240   0.50000   0.00000  Uiso   1.00
C92    C     0.23073   0.64833   0.50000   0.00000  Uiso   1.00
C93    C     0.41760   0.76928   0.50000   0.00000  Uiso   1.00
C94    C     0.38528   0.64724   0.50000   0.00000  Uiso   1.00
C95    C     0.35276   0.73803   0.50000   0.00000  Uiso   1.00
C96    C     0.26197   0.61473   0.50000   0.00000  Uiso   1.00
C97    C     0.35276   0.61473   0.50000   0.00000  Uiso   1.00
C98    C     0.26197   0.64724   0.50000   0.00000  Uiso   1.00
C99    C     0.38528   0.73803   0.50000   0.00000  Uiso   1.00
B100   B     0.42603   0.57398   0.50000   0.00000  Uiso   1.00
B101   B     0.42603   0.85205   0.50000   0.00000  Uiso   1.00
B102   B     0.14795   0.57398   0.50000   0.00000  Uiso   1.00
C103   C     0.53540   0.46460   0.50000   0.00000  Uiso   1.00
C104   C     0.53540   0.07079   0.50000   0.00000  Uiso   1.00
C105   C     0.92921   0.46460   0.50000   0.00000  Uiso   1.00
H106   H     0.44316   0.67295   0.50000   0.00000  Uiso   1.00
H107   H     0.32706   0.77021   0.50000   0.00000  Uiso   1.00
H108   H     0.22979   0.55684   0.50000   0.00000  Uiso   1.00
H109   H     0.32706   0.55684   0.50000   0.00000  Uiso   1.00
H110   H     0.22979   0.67295   0.50000   0.00000  Uiso   1.00
H111   H     0.44316   0.77021   0.50000   0.00000  Uiso   1.00
C112   C     0.50066   0.55659   0.50000   0.00000  Uiso   1.00
C113   C     0.44341   0.94407   0.50000   0.00000  Uiso   1.00
C114   C     0.05593   0.49934   0.50000   0.00000  Uiso   1.00
C115   C     0.44341   0.49934   0.50000   0.00000  Uiso   1.00
C116   C     0.05593   0.55659   0.50000   0.00000  Uiso   1.00
C117   C     0.50066   0.94407   0.50000   0.00000  Uiso   1.00
C118   C     0.49837   0.44485   0.50000   0.00000  Uiso   1.00
C119   C     0.55515   0.05352   0.50000   0.00000  Uiso   1.00
C120   C     0.94648   0.50163   0.50000   0.00000  Uiso   1.00
C121   C     0.55515   0.50163   0.50000   0.00000  Uiso   1.00
C122   C     0.94648   0.44485   0.50000   0.00000  Uiso   1.00
C123   C     0.49837   0.05352   0.50000   0.00000  Uiso   1.00
C124   C     0.53799   0.57581   0.50000   0.00000  Uiso   1.00
C125   C     0.42419   0.96218   0.50000   0.00000  Uiso   1.00
C126   C     0.03782   0.46201   0.50000   0.00000  Uiso   1.00
C127   C     0.42419   0.46201   0.50000   0.00000  Uiso   1.00
C128   C     0.03782   0.57581   0.50000   0.00000  Uiso   1.00
C129   C     0.53799   0.96218   0.50000   0.00000  Uiso   1.00
H130   H     0.48396   0.41572   0.50000   0.00000  Uiso   1.00
H131   H     0.58428   0.06824   0.50000   0.00000  Uiso   1.00
H132   H     0.93176   0.51604   0.50000   0.00000  Uiso   1.00
H133   H     0.58428   0.51604   0.50000   0.00000  Uiso   1.00
H134   H     0.93176   0.41572   0.50000   0.00000  Uiso   1.00
H135   H     0.48396   0.06824   0.50000   0.00000  Uiso   1.00
H136   H     0.55269   0.60482   0.50000   0.00000  Uiso   1.00
H137   H     0.39518   0.94787   0.50000   0.00000  Uiso   1.00
H138   H     0.05213   0.44731   0.50000   0.00000  Uiso   1.00
H139   H     0.39518   0.44731   0.50000   0.00000  Uiso   1.00
H140   H     0.05213   0.60482   0.50000   0.00000  Uiso   1.00
H141   H     0.55269   0.94787   0.50000   0.00000  Uiso   1.00
C142   C     0.59436   0.31274   0.50000   0.00000  Uiso   1.00
C143   C     0.68726   0.28162   0.50000   0.00000  Uiso   1.00
C144   C     0.71838   0.40564   0.50000   0.00000  Uiso   1.00
C145   C     0.68726   0.40564   0.50000   0.00000  Uiso   1.00
C146   C     0.71838   0.31274   0.50000   0.00000  Uiso   1.00
C147   C     0.59436   0.28162   0.50000   0.00000  Uiso   1.00
C148   C     0.59469   0.33988   0.50000   0.00000  Uiso   1.00
C149   C     0.66012   0.25482   0.50000   0.00000  Uiso   1.00
C150   C     0.74518   0.40531   0.50000   0.00000  Uiso   1.00
C151   C     0.66012   0.40531   0.50000   0.00000  Uiso   1.00
C152   C     0.74518   0.33988   0.50000   0.00000  Uiso   1.00
C153   C     0.59469   0.25482   0.50000   0.00000  Uiso   1.00
C154   C     0.48120   0.51880   0.50000   0.00000  Uiso   1.00
C155   C     0.48120   0.96240   0.50000   0.00000  Uiso   1.00
C156   C     0.03760   0.51880   0.50000   0.00000  Uiso   1.00
loop_
_geom_bond_atom_site_label_1
_geom_bond_atom_site_label_2
_geom_bond_distance
_geom_bond_site_symmetry_2
_ccdc_geom_bond_type
O1     C7      1.342   .     S
O1     B25     1.438   .     S
O2     C8      1.342   .     S
O2     B26     1.438   .     S
O3     C9      1.342   .     S
O3     B27     1.438   .     S
O4     C10     1.342   .     S
O4     B25     1.438   .     S
O5     C11     1.342   .     S
O5     B27     1.438   .     S
O6     C12     1.342   .     S
O6     B26     1.438   .     S
C7     C10     1.384   .     S
C7     C13     1.352   .     D
C8     C12     1.384   .     S
C8     C14     1.352   .     D
C9     C11     1.384   .     S
C9     C15     1.352   .     D
C10    C16     1.352   .     D
C11    C17     1.352   .     D
C12    C18     1.352   .     D
C13    C19     1.372   .     S
C13    H31     1.083   .     S
C14    C20     1.372   .     S
C14    H32     1.083   .     S
C15    C21     1.372   .     S
C15    H33     1.083   .     S
C16    C22     1.372   .     S
C16    H34     1.083   .     S
C17    C23     1.372   .     S
C17    H35     1.083   .     S
C18    C24     1.372   .     S
C18    H36     1.083   .     S
C19    C22     1.402   .     S
C19    C148    1.377   .     D
C20    C24     1.402   .     S
C20    C149    1.377   .     D
C21    C23     1.402   .     S
C21    C150    1.377   .     D
C22    C151    1.377   .     D
C23    C152    1.377   .     D
C24    C153    1.377   .     D
B25    C103    1.435   .     S
B26    C104    1.435   .     S
B27    C105    1.435   .     S
C28    C43     1.384   .     D
C28    C46     1.384   .     S
C28    B100    1.435   .     S
C29    C44     1.384   .     D
C29    C48     1.384   .     S
C29    B101    1.435   .     S
C30    C45     1.384   .     D
C30    C47     1.384   .     S
C30    B102    1.435   .     S
C37    C49     1.394   .     S
C37    C73     1.412   .     D
C37    C118    1.357   .     S
C38    C50     1.394   1_545 S
C38    C74     1.412   1_545 S
C38    C119    1.357   .     D
C39    C51     1.394   1_655 S
C39    C75     1.412   1_655 S
C39    C120    1.357   .     D
C40    C52     1.394   .     S
C40    C73     1.412   .     S
C40    C121    1.357   .     D
C41    C53     1.394   1_655 D
C41    C75     1.412   1_655 S
C41    C122    1.357   .     S
C42    C54     1.394   1_545 S
C42    C74     1.412   1_545 D
C42    C123    1.357   .     S
C43    H55     1.088   .     S
C43    C112    1.357   .     S
C44    H56     1.088   .     S
C44    C113    1.357   .     S
C45    H57     1.088   .     S
C45    C114    1.357   .     S
C46    H58     1.088   .     S
C46    C115    1.357   .     D
C47    H59     1.088   .     S
C47    C116    1.357   .     D
C48    H60     1.088   .     S
C48    C117    1.357   .     D
C49    H61     1.084   .     S
C49    C127    1.378   .     D
C50    C38     1.394   1_565 S
C50    H62     1.084   1_565 S
C50    C129    1.378   .     D
C51    C39     1.394   1_455 S
C51    H63     1.084   1_455 S
C51    C128    1.378   .     D
C52    H64     1.084   .     S
C52    C124    1.378   .     D
C53    C41     1.394   1_455 D
C53    H65     1.084   1_455 S
C53    C126    1.378   .     S
C54    C42     1.394   1_565 S
C54    H66     1.084   1_565 S
C54    C125    1.378   .     D
H62    C50     1.084   1_545 S
H63    C51     1.084   1_655 S
H65    C53     1.084   1_655 S
H66    C54     1.084   1_545 S
C67    C72     1.164   .     T
C67    C94     1.376   .     S
C68    C71     1.164   .     T
C68    C95     1.376   .     S
C69    C70     1.164   .     T
C69    C96     1.376   .     S
C70    C97     1.376   .     S
C71    C98     1.376   .     S
C72    C99     1.376   .     S
C73    C154    1.361   .     S
C74    C42     1.412   1_565 D
C74    C38     1.412   1_565 S
C74    C155    1.361   .     S
C75    C39     1.412   1_455 S
C75    C41     1.412   1_455 S
C75    C156    1.361   .     D
O76    C82     1.342   .     S
O76    B100    1.438   .     S
O77    C83     1.342   .     S
O77    B101    1.438   .     S
O78    C84     1.342   .     S
O78    B102    1.438   .     S
O79    C85     1.342   .     S
O79    B100    1.438   .     S
O80    C86     1.342   .     S
O80    B102    1.438   .     S
O81    C87     1.342   .     S
O81    B101    1.438   .     S
C82    C85     1.384   .     D
C82    C88     1.353   .     S
C83    C87     1.384   .     D
C83    C89     1.353   .     S
C84    C86     1.384   .     S
C84    C90     1.353   .     D
C85    C91     1.353   .     S
C86    C92     1.353   .     D
C87    C93     1.353   .     S
C88    C94     1.372   .     D
C88    H106    1.083   .     S
C89    C95     1.372   .     D
C89    H107    1.083   .     S
C90    C96     1.372   .     S
C90    H108    1.083   .     S
C91    C97     1.372   .     D
C91    H109    1.083   .     S
C92    C98     1.372   .     S
C92    H110    1.083   .     S
C93    C99     1.372   .     D
C93    H111    1.083   .     S
C94    C97     1.402   .     S
C95    C99     1.402   .     S
C96    C98     1.402   .     D
C103   C118    1.384   .     D
C103   C121    1.384   .     S
C104   C119    1.384   .     S
C104   C123    1.384   .     D
C105   C120    1.384   .     S
C105   C122    1.384   .     D
C112   C124    1.394   .     S
C112   C154    1.412   .     D
C113   C125    1.394   .     S
C113   C155    1.412   .     D
C114   C126    1.394   .     D
C114   C156    1.412   .     S
C115   C127    1.394   .     S
C115   C154    1.412   .     S
C116   C128    1.394   .     S
C116   C156    1.412   .     S
C117   C129    1.394   .     S
C117   C155    1.412   .     S
C118   H130    1.088   .     S
C119   H131    1.088   .     S
C120   H132    1.088   .     S
C121   H133    1.088   .     S
C122   H134    1.088   .     S
C123   H135    1.088   .     S
C124   H136    1.084   .     S
C125   H137    1.084   .     S
C126   H138    1.084   .     S
C127   H139    1.084   .     S
C128   H140    1.084   .     S
C129   H141    1.084   .     S
C142   C147    1.342   .     D
C142   C148    1.163   .     D
C143   C146    1.342   .     D
C143   C149    1.163   .     D
C144   C145    1.342   .     D
C144   C150    1.163   .     D
C145   C151    1.163   .     D
C146   C152    1.163   .     D
C147   C153    1.163   .     D
