data_404
_audit_creation_date              2023-09-08
_audit_creation_method            'Materials Studio'
_symmetry_space_group_name_H-M    'P1'
_symmetry_Int_Tables_number       1
_symmetry_cell_setting            triclinic
loop_
_symmetry_equiv_pos_as_xyz
  x,y,z
_cell_length_a                    23.4440
_cell_length_b                    19.6290
_cell_length_c                    3.5578
_cell_angle_alpha                 90.0000
_cell_angle_beta                  90.0000
_cell_angle_gamma                 90.0000
loop_
_atom_site_label
_atom_site_type_symbol
_atom_site_fract_x
_atom_site_fract_y
_atom_site_fract_z
_atom_site_U_iso_or_equiv
_atom_site_adp_type
_atom_site_occupancy
N1     N     0.25221   0.67946   0.36556   0.00000  Uiso   1.00
C2     C     0.39665   0.03535   0.50582   0.00000  Uiso   1.00
C3     C     0.44754   0.92764   0.48943   0.00000  Uiso   1.00
C4     C     0.44756   0.85549   0.47814   0.00000  Uiso   1.00
C5     C     0.39539   0.81174   0.44548   0.00000  Uiso   1.00
C6     C     0.34140   0.83808   0.35286   0.00000  Uiso   1.00
C7     C     0.29386   0.79533   0.32126   0.00000  Uiso   1.00
C8     C     0.29974   0.72498   0.37889   0.00000  Uiso   1.00
C9     C     0.35317   0.69827   0.46743   0.00000  Uiso   1.00
C10    C     0.40035   0.74103   0.49939   0.00000  Uiso   1.00
C11    C     0.79972   0.69704   0.71330   0.00000  Uiso   1.00
C12    C     0.93400   0.55278   0.58558   0.00000  Uiso   1.00
C13    C     0.87774   0.46649   0.44966   0.00000  Uiso   1.00
C14    C     0.83263   0.42168   0.39929   0.00000  Uiso   1.00
C15    C     0.84545   0.35394   0.30257   0.00000  Uiso   1.00
C16    C     0.90270   0.33411   0.24750   0.00000  Uiso   1.00
C17    C     0.94747   0.38104   0.30013   0.00000  Uiso   1.00
H18    H     0.35439   0.06407   0.51171   0.00000  Uiso   1.00
H19    H     0.33587   0.89505   0.30227   0.00000  Uiso   1.00
H20    H     0.25035   0.81767   0.24866   0.00000  Uiso   1.00
H21    H     0.35844   0.64116   0.51408   0.00000  Uiso   1.00
H22    H     0.44397   0.71882   0.57044   0.00000  Uiso   1.00
H23    H     0.80974   0.75192   0.79464   0.00000  Uiso   1.00
H24    H     0.78660   0.43923   0.43518   0.00000  Uiso   1.00
H25    H     0.99368   0.36536   0.25057   0.00000  Uiso   1.00
N26    N     0.74779   0.32054   0.36556   0.00000  Uiso   1.00
C27    C     0.60335   0.96465   0.50582   0.00000  Uiso   1.00
C28    C     0.55246   0.07236   0.48943   0.00000  Uiso   1.00
C29    C     0.55244   0.14451   0.47814   0.00000  Uiso   1.00
C30    C     0.60461   0.18826   0.44548   0.00000  Uiso   1.00
C31    C     0.65860   0.16192   0.35286   0.00000  Uiso   1.00
C32    C     0.70614   0.20467   0.32126   0.00000  Uiso   1.00
C33    C     0.70026   0.27502   0.37889   0.00000  Uiso   1.00
C34    C     0.64683   0.30173   0.46743   0.00000  Uiso   1.00
C35    C     0.59965   0.25897   0.49939   0.00000  Uiso   1.00
C36    C     0.20028   0.30296   0.71330   0.00000  Uiso   1.00
C37    C     0.06600   0.44722   0.58558   0.00000  Uiso   1.00
C38    C     0.12226   0.53351   0.44966   0.00000  Uiso   1.00
C39    C     0.16737   0.57832   0.39929   0.00000  Uiso   1.00
C40    C     0.15455   0.64606   0.30257   0.00000  Uiso   1.00
C41    C     0.09730   0.66589   0.24750   0.00000  Uiso   1.00
C42    C     0.05253   0.61896   0.30013   0.00000  Uiso   1.00
H43    H     0.64561   0.93593   0.51171   0.00000  Uiso   1.00
H44    H     0.66413   0.10495   0.30227   0.00000  Uiso   1.00
H45    H     0.74965   0.18233   0.24866   0.00000  Uiso   1.00
H46    H     0.64156   0.35884   0.51408   0.00000  Uiso   1.00
H47    H     0.55603   0.28118   0.57044   0.00000  Uiso   1.00
H48    H     0.19026   0.24808   0.79464   0.00000  Uiso   1.00
H49    H     0.21340   0.56077   0.43518   0.00000  Uiso   1.00
H50    H     0.00632   0.63464   0.25057   0.00000  Uiso   1.00
N51    N     0.74779   0.67946   0.63443   0.00000  Uiso   1.00
C52    C     0.60335   0.03535   0.49416   0.00000  Uiso   1.00
C53    C     0.55246   0.92764   0.51055   0.00000  Uiso   1.00
C54    C     0.55244   0.85549   0.52185   0.00000  Uiso   1.00
C55    C     0.60461   0.81174   0.55451   0.00000  Uiso   1.00
C56    C     0.65860   0.83808   0.64713   0.00000  Uiso   1.00
C57    C     0.70614   0.79533   0.67873   0.00000  Uiso   1.00
C58    C     0.70026   0.72498   0.62110   0.00000  Uiso   1.00
C59    C     0.64683   0.69827   0.53256   0.00000  Uiso   1.00
C60    C     0.59965   0.74103   0.50059   0.00000  Uiso   1.00
C61    C     0.20028   0.69704   0.28669   0.00000  Uiso   1.00
C62    C     0.06600   0.55278   0.41441   0.00000  Uiso   1.00
C63    C     0.12226   0.46649   0.55033   0.00000  Uiso   1.00
C64    C     0.16737   0.42168   0.60070   0.00000  Uiso   1.00
C65    C     0.15455   0.35394   0.69742   0.00000  Uiso   1.00
C66    C     0.09730   0.33411   0.75249   0.00000  Uiso   1.00
C67    C     0.05253   0.38104   0.69986   0.00000  Uiso   1.00
H68    H     0.64561   0.06407   0.48828   0.00000  Uiso   1.00
H69    H     0.66413   0.89505   0.69772   0.00000  Uiso   1.00
H70    H     0.74965   0.81767   0.75133   0.00000  Uiso   1.00
H71    H     0.64156   0.64116   0.48591   0.00000  Uiso   1.00
H72    H     0.55603   0.71882   0.42955   0.00000  Uiso   1.00
H73    H     0.19026   0.75192   0.20535   0.00000  Uiso   1.00
H74    H     0.21340   0.43923   0.56481   0.00000  Uiso   1.00
H75    H     0.00632   0.36536   0.74942   0.00000  Uiso   1.00
N76    N     0.25221   0.32054   0.63443   0.00000  Uiso   1.00
C77    C     0.39665   0.96465   0.49416   0.00000  Uiso   1.00
C78    C     0.44754   0.07236   0.51055   0.00000  Uiso   1.00
C79    C     0.44756   0.14451   0.52185   0.00000  Uiso   1.00
C80    C     0.39539   0.18826   0.55451   0.00000  Uiso   1.00
C81    C     0.34140   0.16192   0.64713   0.00000  Uiso   1.00
C82    C     0.29386   0.20467   0.67873   0.00000  Uiso   1.00
C83    C     0.29974   0.27502   0.62110   0.00000  Uiso   1.00
C84    C     0.35317   0.30173   0.53256   0.00000  Uiso   1.00
C85    C     0.40035   0.25897   0.50059   0.00000  Uiso   1.00
C86    C     0.79972   0.30296   0.28669   0.00000  Uiso   1.00
C87    C     0.93400   0.44722   0.41441   0.00000  Uiso   1.00
C88    C     0.87774   0.53351   0.55033   0.00000  Uiso   1.00
C89    C     0.83263   0.57832   0.60070   0.00000  Uiso   1.00
C90    C     0.84545   0.64606   0.69742   0.00000  Uiso   1.00
C91    C     0.90270   0.66589   0.75249   0.00000  Uiso   1.00
C92    C     0.94747   0.61896   0.69986   0.00000  Uiso   1.00
H93    H     0.35439   0.93593   0.48828   0.00000  Uiso   1.00
H94    H     0.33587   0.10495   0.69772   0.00000  Uiso   1.00
H95    H     0.25035   0.18233   0.75133   0.00000  Uiso   1.00
H96    H     0.35844   0.35884   0.48591   0.00000  Uiso   1.00
H97    H     0.44397   0.28118   0.42955   0.00000  Uiso   1.00
H98    H     0.80974   0.24808   0.20535   0.00000  Uiso   1.00
H99    H     0.78660   0.56077   0.56481   0.00000  Uiso   1.00
H100   H     0.99368   0.63464   0.74942   0.00000  Uiso   1.00
N101   N     0.96965   0.50000   0.49999   0.00000  Uiso   1.00
N102   N     0.03035   0.50000   0.49999   0.00000  Uiso   1.00
C103   C     0.50000   0.96374   0.49999   0.00000  Uiso   1.00
C104   C     0.50000   0.82194   0.49999   0.00000  Uiso   1.00
H105   H     0.50000   0.76389   0.49999   0.00000  Uiso   1.00
C106   C     0.50000   0.03626   0.49999   0.00000  Uiso   1.00
C107   C     0.50000   0.17806   0.49999   0.00000  Uiso   1.00
H108   H     0.50000   0.23611   0.49999   0.00000  Uiso   1.00
loop_
_geom_bond_atom_site_label_1
_geom_bond_atom_site_label_2
_geom_bond_distance
_geom_bond_site_symmetry_2
_ccdc_geom_bond_type
N1     C8      1.429   .     S
N1     C61     1.296   .     D
C2     H18     1.140   .     S
C2     C77     1.388   1_545 S
C2     C78     1.397   .     D
C3     C4      1.417   .     S
C3     C77     1.397   .     D
C3     C103    1.420   .     S
C4     C5      1.499   .     S
C4     C104    1.397   .     D
C5     C6      1.406   .     S
C5     C10     1.406   .     D
C6     C7      1.400   .     D
C6     H19     1.140   .     S
C7     C8      1.403   .     S
C7     H20     1.140   .     S
C8     C9      1.394   .     D
C9     C10     1.393   .     S
C9     H21     1.140   .     S
C10    H22     1.140   .     S
C11    H23     1.140   .     S
C11    N51     1.296   .     D
C11    C90     1.468   .     S
C12    C88     1.378   .     D
C12    C92     1.397   .     S
C12    N101    1.365   .     S
C13    C14     1.387   .     D
C13    C87     1.378   .     S
C13    C88     1.363   .     S
C14    C15     1.406   .     S
C14    H24     1.140   .     S
C15    C16     1.411   .     D
C15    C86     1.468   .     S
C16    C17     1.409   .     D
C17    H25     1.140   .     S
C17    C87     1.397   .     S
N26    C33     1.429   .     S
N26    C86     1.296   .     D
C27    H43     1.140   .     S
C27    C52     1.388   1_565 D
C27    C53     1.397   .     S
C28    C29     1.417   .     D
C28    C52     1.397   .     S
C28    C106    1.420   .     S
C29    C30     1.499   .     S
C29    C107    1.397   .     S
C30    C31     1.406   .     D
C30    C35     1.406   .     S
C31    C32     1.400   .     S
C31    H44     1.140   .     S
C32    C33     1.403   .     D
C32    H45     1.140   .     S
C33    C34     1.394   .     S
C34    C35     1.393   .     D
C34    H46     1.140   .     S
C35    H47     1.140   .     S
C36    H48     1.140   .     S
C36    C65     1.468   .     S
C36    N76     1.296   .     D
C37    C63     1.378   .     S
C37    C67     1.397   .     S
C37    N102    1.365   .     D
C38    C39     1.387   .     D
C38    C62     1.378   .     S
C38    C63     1.363   .     S
C39    C40     1.406   .     S
C39    H49     1.140   .     S
C40    C41     1.411   .     D
C40    C61     1.468   .     S
C41    C42     1.409   .     S
C42    H50     1.140   .     S
C42    C62     1.397   .     D
N51    C58     1.429   .     S
C52    C27     1.388   1_545 D
C52    H68     1.140   .     S
C53    C54     1.417   .     D
C53    C103    1.420   .     S
C54    C55     1.499   .     S
C54    C104    1.397   .     S
C55    C56     1.406   .     D
C55    C60     1.406   .     S
C56    C57     1.400   .     S
C56    H69     1.140   .     S
C57    C58     1.403   .     D
C57    H70     1.140   .     S
C58    C59     1.394   .     S
C59    C60     1.393   .     D
C59    H71     1.140   .     S
C60    H72     1.140   .     S
C61    H73     1.140   .     S
C62    N102    1.365   .     S
C63    C64     1.387   .     D
C64    C65     1.406   .     S
C64    H74     1.140   .     S
C65    C66     1.411   .     D
C66    C67     1.409   .     D
C67    H75     1.140   .     S
N76    C83     1.429   .     S
C77    C2      1.388   1_565 S
C77    H93     1.140   .     S
C78    C79     1.417   .     S
C78    C106    1.420   .     S
C79    C80     1.499   .     S
C79    C107    1.397   .     D
C80    C81     1.406   .     D
C80    C85     1.406   .     S
C81    C82     1.400   .     S
C81    H94     1.140   .     S
C82    C83     1.403   .     D
C82    H95     1.140   .     S
C83    C84     1.394   .     S
C84    C85     1.393   .     D
C84    H96     1.140   .     S
C85    H97     1.140   .     S
C86    H98     1.140   .     S
C87    N101    1.365   .     D
C88    C89     1.387   .     S
C89    C90     1.406   .     D
C89    H99     1.140   .     S
C90    C91     1.411   .     S
C91    C92     1.409   .     D
C92    H100    1.140   .     S
N101   N102    1.423   1_655 S
N102   N101    1.423   1_455 S
C103   C106    1.423   1_565 D
C104   H105    1.139   .     S
C106   C103    1.423   1_545 D
C107   H108    1.139   .     S
