data_405
_audit_creation_date              2023-09-08
_audit_creation_method            'Materials Studio'
_symmetry_space_group_name_H-M    'P1'
_symmetry_Int_Tables_number       1
_symmetry_cell_setting            triclinic
loop_
_symmetry_equiv_pos_as_xyz
  x,y,z
_cell_length_a                    27.4164
_cell_length_b                    25.0450
_cell_length_c                    4.1830
_cell_angle_alpha                 90.0000
_cell_angle_beta                  90.0000
_cell_angle_gamma                 90.0000
loop_
_atom_site_label
_atom_site_type_symbol
_atom_site_fract_x
_atom_site_fract_y
_atom_site_fract_z
_atom_site_U_iso_or_equiv
_atom_site_adp_type
_atom_site_occupancy
N1     N     0.67927   0.78209   0.43288   0.00000  Uiso   1.00
N2     N     0.27285   0.79679   0.70074   0.00000  Uiso   1.00
N3     N     0.00683   0.52013   0.51138   0.00000  Uiso   1.00
N4     N     0.95722   0.52400   0.51781   0.00000  Uiso   1.00
N5     N     0.28624   0.26466   0.30465   0.00000  Uiso   1.00
N6     N     0.69106   0.25019   0.74593   0.00000  Uiso   1.00
C7     C     0.43819   0.97148   0.51105   0.00000  Uiso   1.00
C8     C     0.48173   0.99677   0.52286   0.00000  Uiso   1.00
C9     C     0.52411   0.96924   0.54105   0.00000  Uiso   1.00
C10    C     0.43694   0.91881   0.53273   0.00000  Uiso   1.00
C11    C     0.47940   0.89308   0.53579   0.00000  Uiso   1.00
C12    C     0.52301   0.91648   0.53300   0.00000  Uiso   1.00
C13    C     0.39334   0.88821   0.56143   0.00000  Uiso   1.00
C14    C     0.56520   0.88338   0.51985   0.00000  Uiso   1.00
C15    C     0.34971   0.90894   0.65522   0.00000  Uiso   1.00
C16    C     0.31014   0.87883   0.69865   0.00000  Uiso   1.00
C17    C     0.31356   0.82724   0.65294   0.00000  Uiso   1.00
C18    C     0.35695   0.80619   0.56034   0.00000  Uiso   1.00
C19    C     0.39620   0.83631   0.51563   0.00000  Uiso   1.00
C20    C     0.55978   0.83205   0.58559   0.00000  Uiso   1.00
C21    C     0.59755   0.79944   0.55808   0.00000  Uiso   1.00
C22    C     0.64182   0.81721   0.46313   0.00000  Uiso   1.00
C23    C     0.64807   0.86834   0.39700   0.00000  Uiso   1.00
C24    C     0.60998   0.90100   0.42410   0.00000  Uiso   1.00
C25    C     0.27520   0.74860   0.68573   0.00000  Uiso   1.00
C26    C     0.23403   0.71670   0.72200   0.00000  Uiso   1.00
C27    C     0.18896   0.73624   0.76944   0.00000  Uiso   1.00
C28    C     0.15033   0.70426   0.78011   0.00000  Uiso   1.00
C29    C     0.15638   0.65254   0.74332   0.00000  Uiso   1.00
C30    C     0.20180   0.63350   0.70194   0.00000  Uiso   1.00
C31    C     0.24028   0.66532   0.69219   0.00000  Uiso   1.00
C32    C     0.11571   0.61864   0.71855   0.00000  Uiso   1.00
C33    C     0.06956   0.63644   0.77237   0.00000  Uiso   1.00
C34    C     0.03071   0.60515   0.71618   0.00000  Uiso   1.00
C35    C     0.03858   0.55628   0.59772   0.00000  Uiso   1.00
C36    C     0.08362   0.53880   0.55916   0.00000  Uiso   1.00
C37    C     0.12268   0.56851   0.61579   0.00000  Uiso   1.00
C38    C     0.03332   0.47949   0.42166   0.00000  Uiso   1.00
C39    C     0.08030   0.49007   0.45286   0.00000  Uiso   1.00
C40    C     0.01895   0.43211   0.30780   0.00000  Uiso   1.00
C41    C     0.05327   0.39534   0.24585   0.00000  Uiso   1.00
C42    C     0.10145   0.40620   0.29077   0.00000  Uiso   1.00
C43    C     0.11502   0.45485   0.39142   0.00000  Uiso   1.00
C44    C     0.13748   0.36677   0.25430   0.00000  Uiso   1.00
C45    C     0.12501   0.31635   0.21873   0.00000  Uiso   1.00
C46    C     0.15945   0.27920   0.21393   0.00000  Uiso   1.00
C47    C     0.20673   0.29201   0.24448   0.00000  Uiso   1.00
C48    C     0.21931   0.34228   0.27458   0.00000  Uiso   1.00
C49    C     0.18505   0.37922   0.27959   0.00000  Uiso   1.00
C50    C     0.24258   0.25285   0.26283   0.00000  Uiso   1.00
C51    C     0.72203   0.79312   0.34456   0.00000  Uiso   1.00
C52    C     0.92578   0.48801   0.61470   0.00000  Uiso   1.00
C53    C     0.93048   0.56480   0.43746   0.00000  Uiso   1.00
C54    C     0.88367   0.55453   0.48653   0.00000  Uiso   1.00
C55    C     0.88067   0.50582   0.59366   0.00000  Uiso   1.00
C56    C     0.84179   0.47639   0.66499   0.00000  Uiso   1.00
C57    C     0.84907   0.42622   0.76502   0.00000  Uiso   1.00
C58    C     0.89535   0.40802   0.79977   0.00000  Uiso   1.00
C59    C     0.93401   0.43902   0.72832   0.00000  Uiso   1.00
C60    C     0.94446   0.61200   0.31619   0.00000  Uiso   1.00
C61    C     0.91004   0.64900   0.26706   0.00000  Uiso   1.00
C62    C     0.86213   0.63855   0.33189   0.00000  Uiso   1.00
C63    C     0.84886   0.59000   0.43807   0.00000  Uiso   1.00
C64    C     0.80841   0.39265   0.80761   0.00000  Uiso   1.00
C65    C     0.82618   0.67825   0.31004   0.00000  Uiso   1.00
C66    C     0.81423   0.34070   0.81285   0.00000  Uiso   1.00
C67    C     0.77527   0.30920   0.81711   0.00000  Uiso   1.00
C68    C     0.73008   0.32942   0.81758   0.00000  Uiso   1.00
C69    C     0.72413   0.38101   0.82087   0.00000  Uiso   1.00
C70    C     0.76296   0.41240   0.81481   0.00000  Uiso   1.00
C71    C     0.83856   0.72830   0.24975   0.00000  Uiso   1.00
C72    C     0.80441   0.76576   0.25556   0.00000  Uiso   1.00
C73    C     0.75755   0.75365   0.32318   0.00000  Uiso   1.00
C74    C     0.74504   0.70376   0.37867   0.00000  Uiso   1.00
C75    C     0.77899   0.66651   0.37224   0.00000  Uiso   1.00
C76    C     0.68842   0.29796   0.79448   0.00000  Uiso   1.00
C77    C     0.32377   0.22967   0.33780   0.00000  Uiso   1.00
C78    C     0.31628   0.17800   0.34468   0.00000  Uiso   1.00
C79    C     0.35417   0.14539   0.38709   0.00000  Uiso   1.00
C80    C     0.40010   0.16351   0.42448   0.00000  Uiso   1.00
C81    C     0.40675   0.21544   0.41477   0.00000  Uiso   1.00
C82    C     0.36917   0.24803   0.37277   0.00000  Uiso   1.00
C83    C     0.44184   0.13012   0.47349   0.00000  Uiso   1.00
C84    C     0.44062   0.07729   0.48279   0.00000  Uiso   1.00
C85    C     0.48289   0.04980   0.51818   0.00000  Uiso   1.00
C86    C     0.52629   0.07506   0.55154   0.00000  Uiso   1.00
C87    C     0.52740   0.12783   0.55840   0.00000  Uiso   1.00
C88    C     0.48522   0.15346   0.51560   0.00000  Uiso   1.00
C89    C     0.57053   0.15870   0.61290   0.00000  Uiso   1.00
C90    C     0.61586   0.13878   0.58654   0.00000  Uiso   1.00
C91    C     0.65531   0.16888   0.63493   0.00000  Uiso   1.00
C92    C     0.65023   0.21969   0.70987   0.00000  Uiso   1.00
C93    C     0.60518   0.24005   0.73664   0.00000  Uiso   1.00
C94    C     0.56597   0.20987   0.68940   0.00000  Uiso   1.00
C95    C     0.39844   0.05117   0.46028   0.00000  Uiso   1.00
C96    C     0.39722  -0.00050   0.47564   0.00000  Uiso   1.00
C97    C     0.56626  -0.00480   0.57282   0.00000  Uiso   1.00
C98    C     0.56725   0.04687   0.58077   0.00000  Uiso   1.00
H99    H     0.47966   0.85061   0.54083   0.00000  Uiso   1.00
H100   H     0.34619   0.95089   0.69707   0.00000  Uiso   1.00
H101   H     0.27497   0.89636   0.77153   0.00000  Uiso   1.00
H102   H     0.36024   0.76417   0.52124   0.00000  Uiso   1.00
H103   H     0.43136   0.81892   0.44066   0.00000  Uiso   1.00
H104   H     0.52398   0.81640   0.66299   0.00000  Uiso   1.00
H105   H     0.59235   0.75796   0.61337   0.00000  Uiso   1.00
H106   H     0.68416   0.88334   0.32116   0.00000  Uiso   1.00
H107   H     0.61505   0.94248   0.36822   0.00000  Uiso   1.00
H108   H     0.31041   0.72950   0.64270   0.00000  Uiso   1.00
H109   H     0.18378   0.77817   0.79931   0.00000  Uiso   1.00
H110   H     0.11366   0.72013   0.81886   0.00000  Uiso   1.00
H111   H     0.20751   0.59160   0.67589   0.00000  Uiso   1.00
H112   H     0.27701   0.64937   0.65975   0.00000  Uiso   1.00
H113   H     0.06347   0.67669   0.86256   0.00000  Uiso   1.00
H114   H    -0.00610   0.61989   0.76735   0.00000  Uiso   1.00
H115   H     0.15920   0.55218   0.57892   0.00000  Uiso   1.00
H116   H    -0.01980   0.42386   0.26692   0.00000  Uiso   1.00
H117   H     0.04245   0.35614   0.15813   0.00000  Uiso   1.00
H118   H     0.15369   0.46446   0.42051   0.00000  Uiso   1.00
H119   H     0.08662   0.30538   0.19349   0.00000  Uiso   1.00
H120   H     0.14899   0.23838   0.18506   0.00000  Uiso   1.00
H121   H     0.25777   0.35319   0.29517   0.00000  Uiso   1.00
H122   H     0.19553   0.42008   0.30444   0.00000  Uiso   1.00
H123   H     0.23194   0.21202   0.24023   0.00000  Uiso   1.00
H124   H     0.73206   0.83343   0.28353   0.00000  Uiso   1.00
H125   H     0.80520   0.49298   0.64193   0.00000  Uiso   1.00
H126   H     0.90171   0.36770   0.88678   0.00000  Uiso   1.00
H127   H     0.97103   0.42396   0.76362   0.00000  Uiso   1.00
H128   H     0.98299   0.61990   0.25927   0.00000  Uiso   1.00
H129   H     0.92056   0.68807   0.17376   0.00000  Uiso   1.00
H130   H     0.81035   0.58067   0.48200   0.00000  Uiso   1.00
H131   H     0.85088   0.32397   0.81365   0.00000  Uiso   1.00
H132   H     0.78027   0.26706   0.82019   0.00000  Uiso   1.00
H133   H     0.68744   0.39761   0.82853   0.00000  Uiso   1.00
H134   H     0.75798   0.45455   0.81567   0.00000  Uiso   1.00
H135   H     0.87663   0.73869   0.19556   0.00000  Uiso   1.00
H136   H     0.81477   0.80623   0.20512   0.00000  Uiso   1.00
H137   H     0.70689   0.69340   0.42949   0.00000  Uiso   1.00
H138   H     0.76855   0.62596   0.41783   0.00000  Uiso   1.00
H139   H     0.65280   0.31673   0.82064   0.00000  Uiso   1.00
H140   H     0.27932   0.16252   0.31575   0.00000  Uiso   1.00
H141   H     0.34804   0.10342   0.39171   0.00000  Uiso   1.00
H142   H     0.44346   0.23163   0.44152   0.00000  Uiso   1.00
H143   H     0.37546   0.28997   0.36685   0.00000  Uiso   1.00
H144   H     0.48490   0.19594   0.51368   0.00000  Uiso   1.00
H145   H     0.62091   0.09744   0.52478   0.00000  Uiso   1.00
H146   H     0.69180   0.15198   0.61326   0.00000  Uiso   1.00
H147   H     0.60053   0.28146   0.79731   0.00000  Uiso   1.00
H148   H     0.52943   0.22659   0.71261   0.00000  Uiso   1.00
H149   H     0.36407   0.07230   0.42861   0.00000  Uiso   1.00
H150   H     0.36231  -0.02090   0.45930   0.00000  Uiso   1.00
H151   H     0.60026  -0.02690   0.59240   0.00000  Uiso   1.00
H152   H     0.60201   0.06728   0.61170   0.00000  Uiso   1.00
loop_
_geom_bond_atom_site_label_1
_geom_bond_atom_site_label_2
_geom_bond_distance
_geom_bond_site_symmetry_2
_ccdc_geom_bond_type
N1     C22     1.358   .     S
N1     C51     1.260   .     D
N2     C17     1.366   .     S
N2     C25     1.210   .     D
N3     N4      1.364   1_455 S
N3     C35     1.307   .     S
N3     C38     1.305   .     S
N4     N3      1.364   1_655 S
N4     C52     1.311   .     S
N4     C53     1.302   .     S
N5     C50     1.245   .     D
N5     C77     1.359   .     S
N6     C76     1.216   .     D
N6     C92     1.364   .     S
C7     C8      1.352   .     D
C7     C10     1.323   .     S
C7     C96     1.333   1_565 S
C8     C9      1.353   .     S
C8     C85     1.329   1_565 S
C9     C12     1.322   .     D
C9     C97     1.333   1_565 S
C10    C11     1.331   .     D
C10    C13     1.425   .     S
C11    C12     1.332   .     S
C11    H99     1.064   .     S
C12    C14     1.424   .     S
C13    C15     1.362   .     D
C13    C19     1.316   .     S
C14    C20     1.323   .     D
C14    C24     1.365   .     S
C15    C16     1.334   .     S
C15    H100    1.069   .     S
C16    C17     1.310   .     D
C16    H101    1.102   .     S
C17    C18     1.358   .     S
C18    C19     1.327   .     D
C18    H102    1.069   .     S
C19    H103    1.103   .     S
C20    C21     1.324   .     S
C20    H104    1.105   .     S
C21    C22     1.352   .     D
C21    H105    1.074   .     S
C22    C23     1.321   .     S
C23    C24     1.331   .     D
C23    H106    1.105   .     S
C24    H107    1.074   .     S
C25    C26     1.391   .     S
C25    H108    1.092   .     S
C26    C27     1.344   .     D
C26    C31     1.304   .     S
C27    C28     1.329   .     S
C27    H109    1.067   .     S
C28    C29     1.315   .     D
C28    H110    1.093   .     S
C29    C30     1.345   .     S
C29    C32     1.405   .     S
C30    C31     1.323   .     D
C30    H111    1.067   .     S
C31    H112    1.092   .     S
C32    C33     1.360   .     D
C32    C37     1.341   .     S
C33    C34     1.343   .     S
C33    H113    1.089   .     S
C34    C35     1.338   .     D
C34    H114    1.096   .     S
C35    C36     1.320   .     S
C36    C37     1.325   .     D
C36    C39     1.302   .     S
C37    H115    1.092   .     S
C38    C39     1.321   .     S
C38    C40     1.338   .     D
C39    C43     1.323   .     D
C40    C41     1.342   .     S
C40    H116    1.096   .     S
C41    C42     1.362   .     D
C41    H117    1.089   .     S
C42    C43     1.342   .     S
C42    C44     1.405   .     S
C43    H118    1.094   .     S
C44    C45     1.317   .     D
C44    C49     1.345   .     S
C45    C46     1.326   .     S
C45    H119    1.093   .     S
C46    C47     1.341   .     D
C46    H120    1.069   .     S
C47    C48     1.311   .     S
C47    C50     1.391   .     S
C48    C49     1.319   .     D
C48    H121    1.093   .     S
C49    H122    1.068   .     S
C50    H123    1.068   .     S
C51    C73     1.391   .     S
C51    H124    1.077   .     S
C52    C55     1.318   .     D
C52    C59     1.335   .     S
C53    C54     1.325   .     S
C53    C60     1.342   .     D
C54    C55     1.302   .     S
C54    C63     1.319   .     D
C55    C56     1.330   .     S
C56    C57     1.339   .     D
C56    H125    1.090   .     S
C57    C58     1.356   .     S
C57    C64     1.408   .     S
C58    C59     1.347   .     D
C58    H126    1.087   .     S
C59    H127    1.093   .     S
C60    C61     1.338   .     S
C60    H128    1.101   .     S
C61    C62     1.367   .     D
C61    H129    1.092   .     S
C62    C63     1.345   .     S
C62    C65     1.403   .     S
C63    H130    1.097   .     S
C64    C66     1.311   .     D
C64    C70     1.341   .     S
C65    C71     1.323   .     D
C65    C75     1.352   .     S
C66    C67     1.328   .     S
C66    H131    1.089   .     S
C67    C68     1.338   .     D
C67    H132    1.064   .     S
C68    C69     1.302   .     S
C68    C76     1.391   .     S
C69    C70     1.324   .     D
C69    H133    1.089   .     S
C70    H134    1.064   .     S
C71    C72     1.326   .     S
C71    H135    1.099   .     S
C72    C73     1.350   .     D
C72    H136    1.074   .     S
C73    C74     1.316   .     S
C74    C75     1.318   .     D
C74    H137    1.098   .     S
C75    H138    1.072   .     S
C76    H139    1.089   .     S
C77    C78     1.311   .     D
C77    C82     1.335   .     S
C78    C79     1.333   .     S
C78    H140    1.092   .     S
C79    C80     1.348   .     D
C79    H141    1.065   .     S
C80    C81     1.314   .     S
C80    C83     1.432   .     S
C81    C82     1.326   .     D
C81    H142    1.091   .     S
C82    H143    1.065   .     S
C83    C84     1.324   .     D
C83    C88     1.337   .     S
C84    C85     1.356   .     S
C84    C95     1.332   .     S
C85    C8      1.329   1_545 S
C85    C86     1.355   .     D
C86    C87     1.322   .     S
C86    C98     1.332   .     S
C87    C88     1.335   .     D
C87    C89     1.431   .     S
C88    H144    1.064   .     S
C89    C90     1.344   .     D
C89    C94     1.327   .     S
C90    C91     1.334   .     S
C90    H145    1.076   .     S
C91    C92     1.318   .     D
C91    H146    1.090   .     S
C92    C93     1.341   .     S
C93    C94     1.329   .     D
C93    H147    1.075   .     S
C94    H148    1.090   .     S
C95    C96     1.296   .     D
C95    H149    1.089   .     S
C96    C7      1.333   1_545 S
C96    H150    1.087   .     S
C97    C9      1.333   1_545 S
C97    C98     1.295   .     D
C97    H151    1.087   .     S
C98    H152    1.089   .     S
