data_408
_audit_creation_date              2023-09-08
_audit_creation_method            'Materials Studio'
_symmetry_space_group_name_H-M    'P1'
_symmetry_Int_Tables_number       1
_symmetry_cell_setting            triclinic
loop_
_symmetry_equiv_pos_as_xyz
  x,y,z
_cell_length_a                    52.9000
_cell_length_b                    53.9000
_cell_length_c                    3.8000
_cell_angle_alpha                 90.0000
_cell_angle_beta                  75.0000
_cell_angle_gamma                 90.0000
loop_
_atom_site_label
_atom_site_type_symbol
_atom_site_fract_x
_atom_site_fract_y
_atom_site_fract_z
_atom_site_U_iso_or_equiv
_atom_site_adp_type
_atom_site_occupancy
C1     C     0.44607   0.52283   0.49026   0.00000  Uiso   1.00
C2     C     0.94607   0.02283   0.49026   0.00000  Uiso   1.00
C3     C     0.55393   0.52283   0.50974   0.00000  Uiso   1.00
C4     C     0.05393   0.02283   0.50974   0.00000  Uiso   1.00
C5     C     0.55393   0.47717   0.50974   0.00000  Uiso   1.00
C6     C     0.05393   0.97717   0.50974   0.00000  Uiso   1.00
C7     C     0.44607   0.47717   0.49026   0.00000  Uiso   1.00
C8     C     0.94607   0.97717   0.49026   0.00000  Uiso   1.00
C9     C     0.47303   0.52283   0.49250   0.00000  Uiso   1.00
C10    C     0.97303   0.02283   0.49250   0.00000  Uiso   1.00
C11    C     0.52697   0.52283   0.50750   0.00000  Uiso   1.00
C12    C     0.02697   0.02283   0.50751   0.00000  Uiso   1.00
C13    C     0.52697   0.47717   0.50750   0.00000  Uiso   1.00
C14    C     0.02697   0.97717   0.50751   0.00000  Uiso   1.00
C15    C     0.47303   0.47717   0.49250   0.00000  Uiso   1.00
C16    C     0.97303   0.97717   0.49250   0.00000  Uiso   1.00
C17    C     0.48695   0.54491   0.49837   0.00000  Uiso   1.00
C18    C     0.98695   0.04491   0.49837   0.00000  Uiso   1.00
C19    C     0.51305   0.54491   0.50163   0.00000  Uiso   1.00
C20    C     0.01305   0.04491   0.50163   0.00000  Uiso   1.00
C21    C     0.51305   0.45509   0.50163   0.00000  Uiso   1.00
C22    C     0.01305   0.95509   0.50163   0.00000  Uiso   1.00
C23    C     0.48695   0.45509   0.49837   0.00000  Uiso   1.00
C24    C     0.98695   0.95509   0.49837   0.00000  Uiso   1.00
C25    C     0.42963   0.54582   0.50477   0.00000  Uiso   1.00
C26    C     0.92963   0.04582   0.50477   0.00000  Uiso   1.00
C27    C     0.57037   0.54582   0.49523   0.00000  Uiso   1.00
C28    C     0.07037   0.04582   0.49523   0.00000  Uiso   1.00
C29    C     0.57037   0.45418   0.49523   0.00000  Uiso   1.00
C30    C     0.07037   0.95418   0.49523   0.00000  Uiso   1.00
C31    C     0.42963   0.45418   0.50477   0.00000  Uiso   1.00
C32    C     0.92963   0.95418   0.50477   0.00000  Uiso   1.00
H33    H     0.47810   0.56288   0.50440   0.00000  Uiso   1.00
H34    H     0.97810   0.06288   0.50440   0.00000  Uiso   1.00
H35    H     0.52190   0.56288   0.49560   0.00000  Uiso   1.00
H36    H     0.02190   0.06288   0.49560   0.00000  Uiso   1.00
H37    H     0.52190   0.43712   0.49560   0.00000  Uiso   1.00
H38    H     0.02190   0.93712   0.49560   0.00000  Uiso   1.00
H39    H     0.47810   0.43712   0.50440   0.00000  Uiso   1.00
H40    H     0.97810   0.93712   0.50440   0.00000  Uiso   1.00
C41    C     0.56162   0.56617   0.72449   0.00000  Uiso   1.00
C42    C     0.06162   0.06617   0.72449   0.00000  Uiso   1.00
C43    C     0.43838   0.56617   0.27551   0.00000  Uiso   1.00
C44    C     0.93838   0.06617   0.27551   0.00000  Uiso   1.00
C45    C     0.43838   0.43383   0.27551   0.00000  Uiso   1.00
C46    C     0.93838   0.93383   0.27551   0.00000  Uiso   1.00
C47    C     0.56162   0.43383   0.72449   0.00000  Uiso   1.00
C48    C     0.06162   0.93383   0.72449   0.00000  Uiso   1.00
C49    C     0.57710   0.58728   0.71383   0.00000  Uiso   1.00
C50    C     0.07710   0.08728   0.71383   0.00000  Uiso   1.00
C51    C     0.42290   0.58728   0.28617   0.00000  Uiso   1.00
C52    C     0.92290   0.08728   0.28617   0.00000  Uiso   1.00
C53    C     0.42290   0.41272   0.28617   0.00000  Uiso   1.00
C54    C     0.92290   0.91272   0.28617   0.00000  Uiso   1.00
C55    C     0.57710   0.41272   0.71383   0.00000  Uiso   1.00
C56    C     0.07710   0.91272   0.71383   0.00000  Uiso   1.00
C57    C     0.60241   0.58840   0.47842   0.00000  Uiso   1.00
C58    C     0.10241   0.08840   0.47842   0.00000  Uiso   1.00
C59    C     0.39759   0.58840   0.52158   0.00000  Uiso   1.00
C60    C     0.89759   0.08840   0.52158   0.00000  Uiso   1.00
C61    C     0.39759   0.41160   0.52158   0.00000  Uiso   1.00
C62    C     0.89759   0.91160   0.52158   0.00000  Uiso   1.00
C63    C     0.60241   0.41160   0.47842   0.00000  Uiso   1.00
C64    C     0.10241   0.91160   0.47842   0.00000  Uiso   1.00
C65    C     0.61182   0.56782   0.25954   0.00000  Uiso   1.00
C66    C     0.11182   0.06782   0.25954   0.00000  Uiso   1.00
C67    C     0.38818   0.56782   0.74046   0.00000  Uiso   1.00
C68    C     0.88818   0.06782   0.74046   0.00000  Uiso   1.00
C69    C     0.38818   0.43218   0.74046   0.00000  Uiso   1.00
C70    C     0.88818   0.93218   0.74046   0.00000  Uiso   1.00
C71    C     0.61182   0.43218   0.25954   0.00000  Uiso   1.00
C72    C     0.11182   0.93218   0.25954   0.00000  Uiso   1.00
C73    C     0.59598   0.54684   0.26452   0.00000  Uiso   1.00
C74    C     0.09598   0.04684   0.26452   0.00000  Uiso   1.00
C75    C     0.40403   0.54684   0.73549   0.00000  Uiso   1.00
C76    C     0.90403   0.04684   0.73549   0.00000  Uiso   1.00
C77    C     0.40403   0.45316   0.73549   0.00000  Uiso   1.00
C78    C     0.90403   0.95316   0.73549   0.00000  Uiso   1.00
C79    C     0.59598   0.45316   0.26452   0.00000  Uiso   1.00
C80    C     0.09598   0.95316   0.26452   0.00000  Uiso   1.00
N81    N     0.61941   0.60942   0.46959   0.00000  Uiso   1.00
N82    N     0.11941   0.10942   0.46959   0.00000  Uiso   1.00
N83    N     0.38059   0.60942   0.53041   0.00000  Uiso   1.00
N84    N     0.88059   0.10942   0.53041   0.00000  Uiso   1.00
N85    N     0.38059   0.39058   0.53041   0.00000  Uiso   1.00
N86    N     0.88059   0.89058   0.53041   0.00000  Uiso   1.00
N87    N     0.61941   0.39058   0.46959   0.00000  Uiso   1.00
N88    N     0.11941   0.89058   0.46959   0.00000  Uiso   1.00
C89    C     0.61176   0.63148   0.59128   0.00000  Uiso   1.00
C90    C     0.11176   0.13148   0.59128   0.00000  Uiso   1.00
C91    C     0.38825   0.63148   0.40872   0.00000  Uiso   1.00
C92    C     0.88824   0.13148   0.40872   0.00000  Uiso   1.00
C93    C     0.38825   0.36852   0.40872   0.00000  Uiso   1.00
C94    C     0.88824   0.86852   0.40872   0.00000  Uiso   1.00
C95    C     0.61176   0.36852   0.59128   0.00000  Uiso   1.00
C96    C     0.11176   0.86852   0.59128   0.00000  Uiso   1.00
H97    H     0.54288   0.56567   0.91819   0.00000  Uiso   1.00
H98    H     0.04288   0.06567   0.91819   0.00000  Uiso   1.00
H99    H     0.45713   0.56567   0.08181   0.00000  Uiso   1.00
H100   H     0.95713   0.06567   0.08181   0.00000  Uiso   1.00
H101   H     0.45713   0.43433   0.08181   0.00000  Uiso   1.00
H102   H     0.95713   0.93434   0.08181   0.00000  Uiso   1.00
H103   H     0.54288   0.43433   0.91819   0.00000  Uiso   1.00
H104   H     0.04288   0.93434   0.91819   0.00000  Uiso   1.00
H105   H     0.56959   0.60205   0.90406   0.00000  Uiso   1.00
H106   H     0.06959   0.10205   0.90406   0.00000  Uiso   1.00
H107   H     0.43041   0.60205   0.09594   0.00000  Uiso   1.00
H108   H     0.93041   0.10205   0.09594   0.00000  Uiso   1.00
H109   H     0.43041   0.39796   0.09594   0.00000  Uiso   1.00
H110   H     0.93041   0.89796   0.09594   0.00000  Uiso   1.00
H111   H     0.56959   0.39796   0.90406   0.00000  Uiso   1.00
H112   H     0.06959   0.89796   0.90406   0.00000  Uiso   1.00
H113   H     0.63134   0.56843   0.07883   0.00000  Uiso   1.00
H114   H     0.13134   0.06843   0.07883   0.00000  Uiso   1.00
H115   H     0.36866   0.56843   0.92117   0.00000  Uiso   1.00
H116   H     0.86866   0.06843   0.92117   0.00000  Uiso   1.00
H117   H     0.36866   0.43157   0.92117   0.00000  Uiso   1.00
H118   H     0.86866   0.93157   0.92117   0.00000  Uiso   1.00
H119   H     0.63134   0.43157   0.07883   0.00000  Uiso   1.00
H120   H     0.13134   0.93157   0.07883   0.00000  Uiso   1.00
H121   H     0.60355   0.53157   0.08255   0.00000  Uiso   1.00
H122   H     0.10355   0.03157   0.08255   0.00000  Uiso   1.00
H123   H     0.39645   0.53157   0.91745   0.00000  Uiso   1.00
H124   H     0.89645   0.03157   0.91745   0.00000  Uiso   1.00
H125   H     0.39645   0.46843   0.91745   0.00000  Uiso   1.00
H126   H     0.89645   0.96843   0.91745   0.00000  Uiso   1.00
H127   H     0.60355   0.46843   0.08255   0.00000  Uiso   1.00
H128   H     0.10355   0.96843   0.08255   0.00000  Uiso   1.00
H129   H     0.59121   0.63565   0.69687   0.00000  Uiso   1.00
H130   H     0.09121   0.13565   0.69687   0.00000  Uiso   1.00
H131   H     0.40879   0.63565   0.30314   0.00000  Uiso   1.00
H132   H     0.90879   0.13565   0.30314   0.00000  Uiso   1.00
H133   H     0.40879   0.36435   0.30314   0.00000  Uiso   1.00
H134   H     0.90879   0.86435   0.30314   0.00000  Uiso   1.00
H135   H     0.59121   0.36435   0.69687   0.00000  Uiso   1.00
H136   H     0.09121   0.86435   0.69687   0.00000  Uiso   1.00
C137   C     0.63041   0.65184   0.59057   0.00000  Uiso   1.00
C138   C     0.13041   0.15184   0.59057   0.00000  Uiso   1.00
C139   C     0.36959   0.65184   0.40943   0.00000  Uiso   1.00
C140   C     0.86959   0.15184   0.40943   0.00000  Uiso   1.00
C141   C     0.36959   0.34816   0.40943   0.00000  Uiso   1.00
C142   C     0.86959   0.84816   0.40943   0.00000  Uiso   1.00
C143   C     0.63041   0.34816   0.59057   0.00000  Uiso   1.00
C144   C     0.13041   0.84816   0.59057   0.00000  Uiso   1.00
C145   C     0.62202   0.67485   0.73247   0.00000  Uiso   1.00
C146   C     0.12202   0.17485   0.73247   0.00000  Uiso   1.00
C147   C     0.37798   0.67485   0.26753   0.00000  Uiso   1.00
C148   C     0.87798   0.17485   0.26753   0.00000  Uiso   1.00
C149   C     0.37798   0.32515   0.26753   0.00000  Uiso   1.00
C150   C     0.87798   0.82515   0.26753   0.00000  Uiso   1.00
C151   C     0.62202   0.32515   0.73247   0.00000  Uiso   1.00
C152   C     0.12202   0.82515   0.73247   0.00000  Uiso   1.00
C153   C     0.64244   0.69087   0.71179   0.00000  Uiso   1.00
C154   C     0.14244   0.19087   0.71179   0.00000  Uiso   1.00
C155   C     0.35756   0.69087   0.28821   0.00000  Uiso   1.00
C156   C     0.85756   0.19087   0.28821   0.00000  Uiso   1.00
C157   C     0.35756   0.30913   0.28821   0.00000  Uiso   1.00
C158   C     0.85756   0.80913   0.28821   0.00000  Uiso   1.00
C159   C     0.64244   0.30913   0.71179   0.00000  Uiso   1.00
C160   C     0.14244   0.80913   0.71179   0.00000  Uiso   1.00
C161   C     0.66628   0.67998   0.55310   0.00000  Uiso   1.00
C162   C     0.16628   0.17998   0.55310   0.00000  Uiso   1.00
C163   C     0.33372   0.67998   0.44690   0.00000  Uiso   1.00
C164   C     0.83372   0.17998   0.44690   0.00000  Uiso   1.00
C165   C     0.33372   0.32002   0.44690   0.00000  Uiso   1.00
C166   C     0.83372   0.82002   0.44690   0.00000  Uiso   1.00
C167   C     0.66628   0.32002   0.55310   0.00000  Uiso   1.00
C168   C     0.16628   0.82002   0.55310   0.00000  Uiso   1.00
S169   S     0.66376   0.64960   0.42640   0.00000  Uiso   1.00
S170   S     0.16376   0.14960   0.42640   0.00000  Uiso   1.00
S171   S     0.33624   0.64960   0.57360   0.00000  Uiso   1.00
S172   S     0.83624   0.14960   0.57360   0.00000  Uiso   1.00
S173   S     0.33624   0.35040   0.57360   0.00000  Uiso   1.00
S174   S     0.83624   0.85040   0.57360   0.00000  Uiso   1.00
S175   S     0.66376   0.35040   0.42640   0.00000  Uiso   1.00
S176   S     0.16376   0.85040   0.42640   0.00000  Uiso   1.00
C177   C     0.69147   0.69333   0.50062   0.00000  Uiso   1.00
C178   C     0.19147   0.19333   0.50062   0.00000  Uiso   1.00
C179   C     0.30853   0.69333   0.49938   0.00000  Uiso   1.00
C180   C     0.80853   0.19333   0.49938   0.00000  Uiso   1.00
C181   C     0.30853   0.30667   0.49938   0.00000  Uiso   1.00
C182   C     0.80853   0.80667   0.49938   0.00000  Uiso   1.00
C183   C     0.69147   0.30667   0.50062   0.00000  Uiso   1.00
C184   C     0.19147   0.80667   0.50062   0.00000  Uiso   1.00
C185   C     0.71542   0.68329   0.31494   0.00000  Uiso   1.00
C186   C     0.21542   0.18329   0.31494   0.00000  Uiso   1.00
C187   C     0.28458   0.68329   0.68506   0.00000  Uiso   1.00
C188   C     0.78458   0.18329   0.68506   0.00000  Uiso   1.00
C189   C     0.28458   0.31671   0.68506   0.00000  Uiso   1.00
C190   C     0.78458   0.81671   0.68506   0.00000  Uiso   1.00
C191   C     0.71542   0.31671   0.31494   0.00000  Uiso   1.00
C192   C     0.21542   0.81671   0.31494   0.00000  Uiso   1.00
C193   C     0.73468   0.70026   0.30855   0.00000  Uiso   1.00
C194   C     0.23468   0.20026   0.30855   0.00000  Uiso   1.00
C195   C     0.26532   0.70026   0.69145   0.00000  Uiso   1.00
C196   C     0.76532   0.20026   0.69145   0.00000  Uiso   1.00
C197   C     0.26532   0.29974   0.69145   0.00000  Uiso   1.00
C198   C     0.76532   0.79974   0.69145   0.00000  Uiso   1.00
C199   C     0.73468   0.29974   0.30855   0.00000  Uiso   1.00
C200   C     0.23468   0.79974   0.30855   0.00000  Uiso   1.00
C201   C     0.72649   0.72184   0.47678   0.00000  Uiso   1.00
C202   C     0.22649   0.22184   0.47678   0.00000  Uiso   1.00
C203   C     0.27351   0.72184   0.52322   0.00000  Uiso   1.00
C204   C     0.77351   0.22184   0.52322   0.00000  Uiso   1.00
C205   C     0.27351   0.27817   0.52322   0.00000  Uiso   1.00
C206   C     0.77351   0.77816   0.52322   0.00000  Uiso   1.00
C207   C     0.72649   0.27817   0.47678   0.00000  Uiso   1.00
C208   C     0.22649   0.77816   0.47678   0.00000  Uiso   1.00
S209   S     0.69351   0.72335   0.65865   0.00000  Uiso   1.00
S210   S     0.19351   0.22335   0.65865   0.00000  Uiso   1.00
S211   S     0.30649   0.72335   0.34135   0.00000  Uiso   1.00
S212   S     0.80649   0.22335   0.34135   0.00000  Uiso   1.00
S213   S     0.30649   0.27665   0.34135   0.00000  Uiso   1.00
S214   S     0.80649   0.77665   0.34135   0.00000  Uiso   1.00
S215   S     0.69351   0.27665   0.65865   0.00000  Uiso   1.00
S216   S     0.19351   0.77665   0.65865   0.00000  Uiso   1.00
H217   H     0.60175   0.67972   0.85021   0.00000  Uiso   1.00
H218   H     0.10175   0.17972   0.85021   0.00000  Uiso   1.00
H219   H     0.39825   0.67972   0.14979   0.00000  Uiso   1.00
H220   H     0.89825   0.17972   0.14979   0.00000  Uiso   1.00
H221   H     0.39825   0.32028   0.14979   0.00000  Uiso   1.00
H222   H     0.89825   0.82028   0.14979   0.00000  Uiso   1.00
H223   H     0.60175   0.32028   0.85021   0.00000  Uiso   1.00
H224   H     0.10175   0.82028   0.85021   0.00000  Uiso   1.00
H225   H     0.64007   0.70979   0.81047   0.00000  Uiso   1.00
H226   H     0.14007   0.20979   0.81047   0.00000  Uiso   1.00
H227   H     0.35993   0.70979   0.18953   0.00000  Uiso   1.00
H228   H     0.85993   0.20979   0.18953   0.00000  Uiso   1.00
H229   H     0.35993   0.29022   0.18953   0.00000  Uiso   1.00
H230   H     0.85993   0.79022   0.18953   0.00000  Uiso   1.00
H231   H     0.64007   0.29022   0.81047   0.00000  Uiso   1.00
H232   H     0.14007   0.79022   0.81047   0.00000  Uiso   1.00
H233   H     0.71834   0.66521   0.18808   0.00000  Uiso   1.00
H234   H     0.21834   0.16521   0.18808   0.00000  Uiso   1.00
H235   H     0.28166   0.66521   0.81192   0.00000  Uiso   1.00
H236   H     0.78166   0.16521   0.81192   0.00000  Uiso   1.00
H237   H     0.28166   0.33479   0.81192   0.00000  Uiso   1.00
H238   H     0.78166   0.83479   0.81192   0.00000  Uiso   1.00
H239   H     0.71834   0.33479   0.18808   0.00000  Uiso   1.00
H240   H     0.21834   0.83479   0.18808   0.00000  Uiso   1.00
N241   N     0.76185   0.69962   0.13802   0.00000  Uiso   1.00
N242   N     0.26185   0.19962   0.13802   0.00000  Uiso   1.00
N243   N     0.23815   0.69962   0.86198   0.00000  Uiso   1.00
N244   N     0.73815   0.19962   0.86198   0.00000  Uiso   1.00
N245   N     0.23815   0.30038   0.86198   0.00000  Uiso   1.00
N246   N     0.73815   0.80038   0.86198   0.00000  Uiso   1.00
N247   N     0.76185   0.30038   0.13802   0.00000  Uiso   1.00
N248   N     0.26185   0.80038   0.13802   0.00000  Uiso   1.00
C249   C     0.77053   0.72265   0.21159   0.00000  Uiso   1.00
C250   C     0.27053   0.22265   0.21159   0.00000  Uiso   1.00
C251   C     0.22947   0.72265   0.78841   0.00000  Uiso   1.00
C252   C     0.72947   0.22265   0.78841   0.00000  Uiso   1.00
C253   C     0.22947   0.27736   0.78841   0.00000  Uiso   1.00
C254   C     0.72947   0.77736   0.78841   0.00000  Uiso   1.00
C255   C     0.77053   0.27736   0.21159   0.00000  Uiso   1.00
C256   C     0.27053   0.77736   0.21159   0.00000  Uiso   1.00
C257   C     0.74926   0.73838   0.43466   0.00000  Uiso   1.00
C258   C     0.24926   0.23838   0.43466   0.00000  Uiso   1.00
C259   C     0.25074   0.73838   0.56534   0.00000  Uiso   1.00
C260   C     0.75074   0.23838   0.56534   0.00000  Uiso   1.00
C261   C     0.25074   0.26162   0.56534   0.00000  Uiso   1.00
C262   C     0.75074   0.76162   0.56534   0.00000  Uiso   1.00
C263   C     0.74926   0.26162   0.43466   0.00000  Uiso   1.00
C264   C     0.24926   0.76162   0.43466   0.00000  Uiso   1.00
O265   O     0.79311   0.72917   0.09822   0.00000  Uiso   1.00
O266   O     0.29311   0.22917   0.09822   0.00000  Uiso   1.00
O267   O     0.20689   0.72917   0.90178   0.00000  Uiso   1.00
O268   O     0.70689   0.22917   0.90178   0.00000  Uiso   1.00
O269   O     0.20689   0.27083   0.90178   0.00000  Uiso   1.00
O270   O     0.70689   0.77083   0.90178   0.00000  Uiso   1.00
O271   O     0.79311   0.27083   0.09822   0.00000  Uiso   1.00
O272   O     0.29311   0.77083   0.09822   0.00000  Uiso   1.00
C273   C     0.72436   0.82172   1.06754   0.00000  Uiso   1.00
C274   C     0.22436   0.32172   1.06754   0.00000  Uiso   1.00
C275   C     0.27564   0.82172  -0.06753   0.00000  Uiso   1.00
C276   C     0.77564   0.32172  -0.06753   0.00000  Uiso   1.00
C277   C     0.27564   0.17828  -0.06753   0.00000  Uiso   1.00
C278   C     0.77564   0.67828  -0.06753   0.00000  Uiso   1.00
C279   C     0.72436   0.17828   1.06754   0.00000  Uiso   1.00
C280   C     0.22436   0.67828   1.06754   0.00000  Uiso   1.00
C281   C     0.69513   0.81698   1.23280   0.00000  Uiso   1.00
C282   C     0.19513   0.31698   1.23280   0.00000  Uiso   1.00
C283   C     0.30487   0.81698  -0.23280   0.00000  Uiso   1.00
C284   C     0.80487   0.31698  -0.23280   0.00000  Uiso   1.00
C285   C     0.30487   0.18302  -0.23280   0.00000  Uiso   1.00
C286   C     0.80487   0.68302  -0.23280   0.00000  Uiso   1.00
C287   C     0.69513   0.18302   1.23280   0.00000  Uiso   1.00
C288   C     0.19513   0.68302   1.23280   0.00000  Uiso   1.00
C289   C     0.68138   0.84037   1.41943   0.00000  Uiso   1.00
C290   C     0.18138   0.34037   1.41943   0.00000  Uiso   1.00
C291   C     0.31862   0.84037  -0.41943   0.00000  Uiso   1.00
C292   C     0.81862   0.34037  -0.41943   0.00000  Uiso   1.00
C293   C     0.31862   0.15963  -0.41943   0.00000  Uiso   1.00
C294   C     0.81862   0.65963  -0.41943   0.00000  Uiso   1.00
C295   C     0.68138   0.15963   1.41943   0.00000  Uiso   1.00
C296   C     0.18138   0.65963   1.41943   0.00000  Uiso   1.00
C297   C     0.65239   0.83506   1.59006   0.00000  Uiso   1.00
C298   C     0.15239   0.33506   1.59006   0.00000  Uiso   1.00
C299   C     0.34761   0.83506  -0.59006   0.00000  Uiso   1.00
C300   C     0.84761   0.33506  -0.59006   0.00000  Uiso   1.00
C301   C     0.34761   0.16494  -0.59006   0.00000  Uiso   1.00
C302   C     0.84761   0.66494  -0.59006   0.00000  Uiso   1.00
C303   C     0.65239   0.16494   1.59006   0.00000  Uiso   1.00
C304   C     0.15239   0.66494   1.59006   0.00000  Uiso   1.00
H305   H     0.72698   0.83820   0.88640   0.00000  Uiso   1.00
H306   H     0.22698   0.33820   0.88640   0.00000  Uiso   1.00
H307   H     0.27303   0.83820   0.11360   0.00000  Uiso   1.00
H308   H     0.77303   0.33820   0.11360   0.00000  Uiso   1.00
H309   H     0.27303   0.16180   0.11360   0.00000  Uiso   1.00
H310   H     0.77303   0.66180   0.11360   0.00000  Uiso   1.00
H311   H     0.72698   0.16180   0.88640   0.00000  Uiso   1.00
H312   H     0.22698   0.66180   0.88640   0.00000  Uiso   1.00
H313   H     0.73378   0.82637   1.28788   0.00000  Uiso   1.00
H314   H     0.23378   0.32637   1.28788   0.00000  Uiso   1.00
H315   H     0.26622   0.82637  -0.28788   0.00000  Uiso   1.00
H316   H     0.76622   0.32637  -0.28788   0.00000  Uiso   1.00
H317   H     0.26622   0.17363  -0.28788   0.00000  Uiso   1.00
H318   H     0.76622   0.67363  -0.28788   0.00000  Uiso   1.00
H319   H     0.73378   0.17363   1.28788   0.00000  Uiso   1.00
H320   H     0.23378   0.67363   1.28788   0.00000  Uiso   1.00
H321   H     0.69278   0.80105   1.42536   0.00000  Uiso   1.00
H322   H     0.19278   0.30105   1.42536   0.00000  Uiso   1.00
H323   H     0.30722   0.80105  -0.42536   0.00000  Uiso   1.00
H324   H     0.80722   0.30105  -0.42536   0.00000  Uiso   1.00
H325   H     0.30722   0.19895  -0.42536   0.00000  Uiso   1.00
H326   H     0.80722   0.69895  -0.42536   0.00000  Uiso   1.00
H327   H     0.69278   0.19895   1.42536   0.00000  Uiso   1.00
H328   H     0.19278   0.69895   1.42536   0.00000  Uiso   1.00
H329   H     0.68570   0.81103   1.01915   0.00000  Uiso   1.00
H330   H     0.18570   0.31103   1.01915   0.00000  Uiso   1.00
H331   H     0.31430   0.81103  -0.01915   0.00000  Uiso   1.00
H332   H     0.81430   0.31103  -0.01915   0.00000  Uiso   1.00
H333   H     0.31430   0.18897  -0.01915   0.00000  Uiso   1.00
H334   H     0.81430   0.68897  -0.01915   0.00000  Uiso   1.00
H335   H     0.68570   0.18897   1.01915   0.00000  Uiso   1.00
H336   H     0.18570   0.68897   1.01915   0.00000  Uiso   1.00
H337   H     0.68323   0.85596   1.22225   0.00000  Uiso   1.00
H338   H     0.18323   0.35596   1.22225   0.00000  Uiso   1.00
H339   H     0.31677   0.85596  -0.22225   0.00000  Uiso   1.00
H340   H     0.81677   0.35596  -0.22225   0.00000  Uiso   1.00
H341   H     0.31677   0.14405  -0.22225   0.00000  Uiso   1.00
H342   H     0.81677   0.64405  -0.22225   0.00000  Uiso   1.00
H343   H     0.68323   0.14405   1.22225   0.00000  Uiso   1.00
H344   H     0.18323   0.64405   1.22225   0.00000  Uiso   1.00
H345   H     0.69098   0.84679   1.62976   0.00000  Uiso   1.00
H346   H     0.19098   0.34679   1.62976   0.00000  Uiso   1.00
H347   H     0.30902   0.84679  -0.62976   0.00000  Uiso   1.00
H348   H     0.80902   0.34679  -0.62976   0.00000  Uiso   1.00
H349   H     0.30902   0.15321  -0.62976   0.00000  Uiso   1.00
H350   H     0.80902   0.65321  -0.62976   0.00000  Uiso   1.00
H351   H     0.69098   0.15321   1.62976   0.00000  Uiso   1.00
H352   H     0.19098   0.65321   1.62976   0.00000  Uiso   1.00
H353   H     0.64969   0.81821   1.76467   0.00000  Uiso   1.00
H354   H     0.14969   0.31821   1.76467   0.00000  Uiso   1.00
H355   H     0.35031   0.81821  -0.76467   0.00000  Uiso   1.00
H356   H     0.85031   0.31821  -0.76467   0.00000  Uiso   1.00
H357   H     0.35031   0.18179  -0.76467   0.00000  Uiso   1.00
H358   H     0.85031   0.68179  -0.76467   0.00000  Uiso   1.00
H359   H     0.64969   0.18179   1.76467   0.00000  Uiso   1.00
H360   H     0.14969   0.68179   1.76467   0.00000  Uiso   1.00
H361   H     0.64185   0.83199   1.37669   0.00000  Uiso   1.00
H362   H     0.14185   0.33199   1.37669   0.00000  Uiso   1.00
H363   H     0.35816   0.83199  -0.37669   0.00000  Uiso   1.00
H364   H     0.85816   0.33199  -0.37669   0.00000  Uiso   1.00
H365   H     0.35816   0.16802  -0.37669   0.00000  Uiso   1.00
H366   H     0.85816   0.66802  -0.37669   0.00000  Uiso   1.00
H367   H     0.64185   0.16802   1.37669   0.00000  Uiso   1.00
H368   H     0.14185   0.66802   1.37669   0.00000  Uiso   1.00
H369   H     0.64312   0.85108   1.75913   0.00000  Uiso   1.00
H370   H     0.14312   0.35108   1.75913   0.00000  Uiso   1.00
H371   H     0.35688   0.85108  -0.75913   0.00000  Uiso   1.00
H372   H     0.85688   0.35108  -0.75913   0.00000  Uiso   1.00
H373   H     0.35688   0.14892  -0.75913   0.00000  Uiso   1.00
H374   H     0.85688   0.64892  -0.75913   0.00000  Uiso   1.00
H375   H     0.64312   0.14892   1.75913   0.00000  Uiso   1.00
H376   H     0.14312   0.64892   1.75913   0.00000  Uiso   1.00
C377   C     0.48650   0.50000   0.49494   0.00000  Uiso   1.00
C378   C     0.98650   0.00000   0.49494   0.00000  Uiso   1.00
C379   C     0.51350   0.50000   0.50506   0.00000  Uiso   1.00
C380   C     0.01350   0.00000   0.50506   0.00000  Uiso   1.00
C381   C     0.43356   0.50000   0.48139   0.00000  Uiso   1.00
C382   C     0.93356   0.00000   0.48139   0.00000  Uiso   1.00
C383   C     0.56644   0.50000   0.51861   0.00000  Uiso   1.00
C384   C     0.06644   0.00000   0.51861   0.00000  Uiso   1.00
H385   H     0.41345   0.50000   0.46331   0.00000  Uiso   1.00
H386   H     0.91345   0.00000   0.46331   0.00000  Uiso   1.00
H387   H     0.58655   0.50000   0.53669   0.00000  Uiso   1.00
H388   H     0.08655   0.00000   0.53669   0.00000  Uiso   1.00
loop_
_geom_bond_atom_site_label_1
_geom_bond_atom_site_label_2
_geom_bond_distance
_geom_bond_site_symmetry_2
_ccdc_geom_bond_type
C1     C9      1.429   .     S
C1     C25     1.507   .     S
C1     C381    1.402   .     D
C2     C10     1.429   .     S
C2     C26     1.507   .     S
C2     C382    1.402   .     D
C3     C11     1.429   .     S
C3     C27     1.507   .     D
C3     C383    1.402   .     S
C4     C12     1.429   .     S
C4     C28     1.507   .     D
C4     C384    1.402   .     S
C5     C13     1.429   .     S
C5     C29     1.507   .     S
C5     C383    1.402   .     D
C6     C14     1.429   .     S
C6     C30     1.507   .     S
C6     C384    1.402   1_565 D
C7     C15     1.429   .     S
C7     C31     1.507   .     D
C7     C381    1.402   .     S
C8     C16     1.429   .     S
C8     C32     1.507   .     D
C8     C382    1.402   1_565 S
C9     C17     1.403   .     S
C9     C377    1.423   .     D
C10    C18     1.403   .     D
C10    C378    1.423   .     S
C11    C19     1.403   .     S
C11    C379    1.423   .     D
C12    C20     1.403   .     D
C12    C380    1.423   .     S
C13    C21     1.403   .     D
C13    C379    1.423   .     S
C14    C22     1.403   .     S
C14    C380    1.423   1_565 D
C15    C23     1.403   .     D
C15    C377    1.423   .     S
C16    C24     1.403   .     S
C16    C378    1.423   1_565 D
C17    C19     1.384   .     D
C17    H33     1.073   .     S
C18    C20     1.384   1_655 S
C18    H34     1.073   .     S
C19    H35     1.073   .     S
C20    C18     1.384   1_455 S
C20    H36     1.073   .     S
C21    C23     1.384   .     S
C21    H37     1.073   .     S
C22    C24     1.384   1_455 D
C22    H38     1.073   .     S
C23    H39     1.073   .     S
C24    C22     1.384   1_655 D
C24    H40     1.073   .     S
C25    C43     1.403   .     D
C25    C75     1.411   .     S
C26    C44     1.403   .     S
C26    C76     1.411   .     D
C27    C41     1.403   .     S
C27    C73     1.411   .     S
C28    C42     1.403   .     S
C28    C74     1.411   .     S
C29    C47     1.403   .     D
C29    C79     1.411   .     S
C30    C48     1.403   .     D
C30    C80     1.411   .     S
C31    C45     1.403   .     S
C31    C77     1.411   .     S
C32    C46     1.403   .     S
C32    C78     1.411   .     S
C41    C49     1.397   .     D
C41    H97     1.071   .     S
C42    C50     1.397   .     D
C42    H98     1.071   .     S
C43    C51     1.397   .     S
C43    H99     1.071   .     S
C44    C52     1.397   .     D
C44    H100    1.071   .     S
C45    C53     1.397   .     D
C45    H101    1.071   .     S
C46    C54     1.397   .     D
C46    H102    1.071   .     S
C47    C55     1.397   .     S
C47    H103    1.071   .     S
C48    C56     1.397   .     S
C48    H104    1.071   .     S
C49    C57     1.406   .     S
C49    H105    1.079   .     S
C50    C58     1.406   .     S
C50    H106    1.079   .     S
C51    C59     1.406   .     D
C51    H107    1.079   .     S
C52    C60     1.406   .     S
C52    H108    1.079   .     S
C53    C61     1.406   .     S
C53    H109    1.079   .     S
C54    C62     1.406   .     S
C54    H110    1.079   .     S
C55    C63     1.406   .     D
C55    H111    1.079   .     S
C56    C64     1.406   .     D
C56    H112    1.079   .     S
C57    C65     1.399   .     S
C57    N81     1.441   .     D
C58    C66     1.399   .     S
C58    N82     1.441   .     D
C59    C67     1.399   .     S
C59    N83     1.441   .     S
C60    C68     1.399   .     D
C60    N84     1.441   .     S
C61    C69     1.399   .     S
C61    N85     1.441   .     D
C62    C70     1.399   .     S
C62    N86     1.441   .     D
C63    C71     1.399   .     S
C63    N87     1.441   .     S
C64    C72     1.399   .     S
C64    N88     1.441   .     S
C65    C73     1.405   .     D
C65    H113    1.082   .     S
C66    C74     1.405   .     D
C66    H114    1.082   .     S
C67    C75     1.405   .     D
C67    H115    1.082   .     S
C68    C76     1.405   .     S
C68    H116    1.082   .     S
C69    C77     1.405   .     D
C69    H117    1.082   .     S
C70    C78     1.405   .     D
C70    H118    1.082   .     S
C71    C79     1.405   .     D
C71    H119    1.082   .     S
C72    C80     1.405   .     D
C72    H120    1.082   .     S
C73    H121    1.083   .     S
C74    H122    1.083   .     S
C75    H123    1.083   .     S
C76    H124    1.083   .     S
C77    H125    1.083   .     S
C78    H126    1.083   .     S
C79    H127    1.083   .     S
C80    H128    1.083   .     S
N81    C89     1.302   .     S
N82    C90     1.302   .     S
N83    C91     1.302   .     D
N84    C92     1.302   .     D
N85    C93     1.302   .     S
N86    C94     1.302   .     S
N87    C95     1.302   .     D
N88    C96     1.302   .     D
C89    H129    1.080   .     S
C89    C137    1.475   .     D
C90    H130    1.080   .     S
C90    C138    1.475   .     D
C91    H131    1.080   .     S
C91    C139    1.475   .     S
C92    H132    1.080   .     S
C92    C140    1.475   .     S
C93    H133    1.080   .     S
C93    C141    1.475   .     D
C94    H134    1.080   .     S
C94    C142    1.475   .     D
C95    H135    1.080   .     S
C95    C143    1.475   .     S
C96    H136    1.080   .     S
C96    C144    1.475   .     S
C137   C145    1.379   .     S
C137   S169    1.717   .     S
C138   C146    1.379   .     S
C138   S170    1.717   .     S
C139   C147    1.379   .     D
C139   S171    1.717   .     S
C140   C148    1.379   .     D
C140   S172    1.717   .     S
C141   C149    1.379   .     S
C141   S173    1.717   .     S
C142   C150    1.379   .     S
C142   S174    1.717   .     S
C143   C151    1.379   .     D
C143   S175    1.717   .     S
C144   C152    1.379   .     D
C144   S176    1.717   .     S
C145   C153    1.369   .     D
C145   H217    1.082   .     S
C146   C154    1.369   .     D
C146   H218    1.082   .     S
C147   C155    1.369   .     S
C147   H219    1.082   .     S
C148   C156    1.369   .     S
C148   H220    1.082   .     S
C149   C157    1.369   .     D
C149   H221    1.082   .     S
C150   C158    1.369   .     D
C150   H222    1.082   .     S
C151   C159    1.369   .     S
C151   H223    1.082   .     S
C152   C160    1.369   .     S
C152   H224    1.082   .     S
C153   C161    1.380   .     S
C153   H225    1.083   .     S
C154   C162    1.380   .     S
C154   H226    1.083   .     S
C155   C163    1.380   .     D
C155   H227    1.083   .     S
C156   C164    1.380   .     D
C156   H228    1.083   .     S
C157   C165    1.380   .     S
C157   H229    1.083   .     S
C158   C166    1.380   .     S
C158   H230    1.083   .     S
C159   C167    1.380   .     D
C159   H231    1.083   .     S
C160   C168    1.380   .     D
C160   H232    1.083   .     S
C161   S169    1.722   .     S
C161   C177    1.482   .     D
C162   S170    1.722   .     S
C162   C178    1.482   .     D
C163   S171    1.722   .     S
C163   C179    1.482   .     S
C164   S172    1.722   .     S
C164   C180    1.482   .     S
C165   S173    1.722   .     S
C165   C181    1.482   .     D
C166   S174    1.722   .     S
C166   C182    1.482   .     D
C167   S175    1.722   .     S
C167   C183    1.482   .     S
C168   S176    1.722   .     S
C168   C184    1.482   .     S
C177   C185    1.390   .     S
C177   S209    1.739   .     S
C178   C186    1.390   .     S
C178   S210    1.739   .     S
C179   C187    1.390   .     D
C179   S211    1.739   .     S
C180   C188    1.390   .     D
C180   S212    1.739   .     S
C181   C189    1.390   .     S
C181   S213    1.739   .     S
C182   C190    1.390   .     S
C182   S214    1.739   .     S
C183   C191    1.390   .     D
C183   S215    1.739   .     S
C184   C192    1.390   .     D
C184   S216    1.739   .     S
C185   C193    1.364   .     D
C185   H233    1.081   .     S
C186   C194    1.364   .     D
C186   H234    1.081   .     S
C187   C195    1.364   .     S
C187   H235    1.081   .     S
C188   C196    1.364   .     S
C188   H236    1.081   .     S
C189   C197    1.364   .     D
C189   H237    1.081   .     S
C190   C198    1.364   .     D
C190   H238    1.081   .     S
C191   C199    1.364   .     S
C191   H239    1.081   .     S
C192   C200    1.364   .     S
C192   H240    1.081   .     S
C193   C201    1.344   .     S
C193   N241    1.416   .     S
C194   C202    1.344   .     S
C194   N242    1.416   .     S
C195   C203    1.344   .     D
C195   N243    1.416   .     S
C196   C204    1.344   .     D
C196   N244    1.416   .     S
C197   C205    1.344   .     S
C197   N245    1.416   .     S
C198   C206    1.344   .     S
C198   N246    1.416   .     S
C199   C207    1.344   .     D
C199   N247    1.416   .     S
C200   C208    1.344   .     D
C200   N248    1.416   .     S
C201   S209    1.704   .     S
C201   C257    1.474   .     D
C202   S210    1.704   .     S
C202   C258    1.474   .     D
C203   S211    1.704   .     S
C203   C259    1.474   .     S
C204   S212    1.704   .     S
C204   C260    1.474   .     S
C205   S213    1.704   .     S
C205   C261    1.474   .     D
C206   S214    1.704   .     S
C206   C262    1.474   .     D
C207   S215    1.704   .     S
C207   C263    1.474   .     S
C208   S216    1.704   .     S
C208   C264    1.474   .     S
N241   C249    1.377   .     S
N241   C278    1.473   .     S
N242   C250    1.377   .     S
N242   C277    1.473   .     S
N243   C251    1.377   .     S
N243   C280    1.473   .     S
N244   C252    1.377   .     S
N244   C279    1.473   .     S
N245   C253    1.377   .     S
N245   C274    1.473   .     S
N246   C254    1.377   .     S
N246   C273    1.473   .     S
N247   C255    1.377   .     S
N247   C276    1.473   .     S
N248   C256    1.377   .     S
N248   C275    1.473   .     S
C249   C257    1.487   .     S
C249   O265    1.212   .     D
C250   C258    1.487   .     S
C250   O266    1.212   .     D
C251   C259    1.487   .     S
C251   O267    1.212   .     D
C252   C260    1.487   .     S
C252   O268    1.212   .     D
C253   C261    1.487   .     S
C253   O269    1.212   .     D
C254   C262    1.487   .     S
C254   O270    1.212   .     D
C255   C263    1.487   .     S
C255   O271    1.212   .     D
C256   C264    1.487   .     S
C256   O272    1.212   .     D
C257   C262    1.357   .     S
C258   C261    1.357   .     S
C259   C264    1.357   .     D
C260   C263    1.357   .     D
C273   C281    1.532   .     S
C273   H305    1.110   .     S
C273   H313    1.108   .     S
C274   C282    1.532   .     S
C274   H306    1.110   .     S
C274   H314    1.108   .     S
C275   C283    1.532   .     S
C275   H307    1.110   .     S
C275   H315    1.108   .     S
C276   C284    1.532   .     S
C276   H308    1.110   .     S
C276   H316    1.108   .     S
C277   C285    1.532   .     S
C277   H309    1.110   .     S
C277   H317    1.108   .     S
C278   C286    1.532   .     S
C278   H310    1.110   .     S
C278   H318    1.108   .     S
C279   C287    1.532   .     S
C279   H311    1.110   .     S
C279   H319    1.108   .     S
C280   C288    1.532   .     S
C280   H312    1.110   .     S
C280   H320    1.108   .     S
C281   C289    1.534   .     S
C281   H321    1.114   .     S
C281   H329    1.105   .     S
C282   C290    1.534   .     S
C282   H322    1.114   .     S
C282   H330    1.105   .     S
C283   C291    1.534   .     S
C283   H323    1.114   .     S
C283   H331    1.105   .     S
C284   C292    1.534   .     S
C284   H324    1.114   .     S
C284   H332    1.105   .     S
C285   C293    1.534   .     S
C285   H325    1.114   .     S
C285   H333    1.105   .     S
C286   C294    1.534   .     S
C286   H326    1.114   .     S
C286   H334    1.105   .     S
C287   C295    1.534   .     S
C287   H327    1.114   .     S
C287   H335    1.105   .     S
C288   C296    1.534   .     S
C288   H328    1.114   .     S
C288   H336    1.105   .     S
C289   C297    1.529   .     S
C289   H337    1.113   .     S
C289   H345    1.108   .     S
C290   C298    1.529   .     S
C290   H338    1.113   .     S
C290   H346    1.108   .     S
C291   C299    1.529   .     S
C291   H339    1.113   .     S
C291   H347    1.108   .     S
C292   C300    1.529   .     S
C292   H340    1.113   .     S
C292   H348    1.108   .     S
C293   C301    1.529   .     S
C293   H341    1.113   .     S
C293   H349    1.108   .     S
C294   C302    1.529   .     S
C294   H342    1.113   .     S
C294   H350    1.108   .     S
C295   C303    1.529   .     S
C295   H343    1.113   .     S
C295   H351    1.108   .     S
C296   C304    1.529   .     S
C296   H344    1.113   .     S
C296   H352    1.108   .     S
C297   H353    1.112   .     S
C297   H361    1.109   .     S
C297   H369    1.112   .     S
C298   H354    1.112   .     S
C298   H362    1.109   .     S
C298   H370    1.112   .     S
C299   H355    1.112   .     S
C299   H363    1.109   .     S
C299   H371    1.112   .     S
C300   H356    1.112   .     S
C300   H364    1.109   .     S
C300   H372    1.112   .     S
C301   H357    1.112   .     S
C301   H365    1.109   .     S
C301   H373    1.112   .     S
C302   H358    1.112   .     S
C302   H366    1.109   .     S
C302   H374    1.112   .     S
C303   H359    1.112   .     S
C303   H367    1.109   .     S
C303   H375    1.112   .     S
C304   H360    1.112   .     S
C304   H368    1.109   .     S
C304   H376    1.112   .     S
C377   C379    1.439   .     S
C378   C16     1.423   1_545 D
C378   C380    1.439   1_655 S
C380   C378    1.439   1_455 S
C380   C14     1.423   1_545 D
C381   H385    1.084   .     S
C382   C8      1.402   1_545 S
C382   H386    1.084   .     S
C383   H387    1.084   .     S
C384   C6      1.402   1_545 D
C384   H388    1.084   .     S
