data_409
_audit_creation_date              2023-09-08
_audit_creation_method            'Materials Studio'
_symmetry_space_group_name_H-M    'P1'
_symmetry_Int_Tables_number       1
_symmetry_cell_setting            triclinic
loop_
_symmetry_equiv_pos_as_xyz
  x,y,z
_cell_length_a                    43.7510
_cell_length_b                    43.7510
_cell_length_c                    4.3340
_cell_angle_alpha                 90.0000
_cell_angle_beta                  90.0000
_cell_angle_gamma                 120.0000
loop_
_atom_site_label
_atom_site_type_symbol
_atom_site_fract_x
_atom_site_fract_y
_atom_site_fract_z
_atom_site_U_iso_or_equiv
_atom_site_adp_type
_atom_site_occupancy
C1     C     0.36998   0.68147   0.13039   0.00000  Uiso   1.00
C2     C     0.37850   0.74248   0.13574   0.00000  Uiso   1.00
C3     C     0.35536   0.70361   0.13068   0.00000  Uiso   1.00
C4     C     0.42179   0.81664   0.15491   0.00000  Uiso   1.00
C5     C     0.39126   0.80076  -0.02848   0.00000  Uiso   1.00
C6     C     0.36994   0.76413  -0.03946   0.00000  Uiso   1.00
C7     C     0.40903   0.75822   0.31939   0.00000  Uiso   1.00
C8     C     0.43051   0.79488   0.32880   0.00000  Uiso   1.00
C9     C     0.47868   0.97651   0.66769   0.00000  Uiso   1.00
C10    C     0.44220   0.95511   0.71199   0.00000  Uiso   1.00
C11    C     0.42473   0.92026   0.60735   0.00000  Uiso   1.00
C12    C     0.44345   0.90638   0.45764   0.00000  Uiso   1.00
C13    C     0.48032   0.92727   0.42041   0.00000  Uiso   1.00
C14    C     0.49752   0.96241   0.52230   0.00000  Uiso   1.00
N15    N     0.42509   0.87066   0.34852   0.00000  Uiso   1.00
C16    C     0.44321   0.85664   0.16266   0.00000  Uiso   1.00
C17    C     0.48121   0.87194   0.28119   0.00000  Uiso   1.00
C18    C     0.50118   0.91235   0.26601   0.00000  Uiso   1.00
O19    O     0.53365   0.92439   0.42487   0.00000  Uiso   1.00
C20    C     0.56318   0.94454   0.23361   0.00000  Uiso   1.00
C21    C     0.57284   0.92001   0.06668   0.00000  Uiso   1.00
C22    C     0.59677   0.39406   0.57260   0.00000  Uiso   1.00
C23    C     0.60950   0.37093   0.62034   0.00000  Uiso   1.00
C24    C     0.63789   0.37993   0.82174   0.00000  Uiso   1.00
C25    C     0.65301   0.41245   0.97694   0.00000  Uiso   1.00
C26    C     0.64032   0.43572   0.92821   0.00000  Uiso   1.00
C27    C     0.67785   0.57582   0.37084   0.00000  Uiso   1.00
C28    C     0.51721   0.50305   0.75488   0.00000  Uiso   1.00
C29    C     0.49980   0.47018   0.90380   0.00000  Uiso   1.00
C30    C     0.51696   0.45088   0.94896   0.00000  Uiso   1.00
C31    C     0.55149   0.46403   0.84303   0.00000  Uiso   1.00
C32    C     0.57008   0.49806   0.71162   0.00000  Uiso   1.00
C33    C     0.55255   0.51715   0.66601   0.00000  Uiso   1.00
N34    N     0.56696   0.44190   0.84751   0.00000  Uiso   1.00
C35    C     0.59770   0.45115   0.65411   0.00000  Uiso   1.00
C36    C     0.61238   0.42696   0.72093   0.00000  Uiso   1.00
C37    C     0.62405   0.49060   0.69489   0.00000  Uiso   1.00
C38    C     0.60766   0.51304   0.59551   0.00000  Uiso   1.00
O39    O     0.62902   0.54740   0.72041   0.00000  Uiso   1.00
C40    C     0.64403   0.57354   0.48852   0.00000  Uiso   1.00
C41    C     0.70351   0.34745   0.85734   0.00000  Uiso   1.00
C42    C     0.68067   0.31081   0.86036   0.00000  Uiso   1.00
H43    H     0.39986   0.69335   0.12991   0.00000  Uiso   1.00
H44    H     0.38363   0.81784  -0.17080   0.00000  Uiso   1.00
H45    H     0.34539   0.75161  -0.19146   0.00000  Uiso   1.00
H46    H     0.41646   0.74104   0.46248   0.00000  Uiso   1.00
H47    H     0.45525   0.80717   0.47854   0.00000  Uiso   1.00
H48    H     0.42670   0.96615   0.83382   0.00000  Uiso   1.00
H49    H     0.39507   0.90296   0.64372   0.00000  Uiso   1.00
H50    H     0.52719   0.97955   0.48559   0.00000  Uiso   1.00
H51    H     0.49085   0.85350   0.36466   0.00000  Uiso   1.00
H52    H     0.57565   0.97447   0.22468   0.00000  Uiso   1.00
H53    H     0.55123   0.89421  -0.03617   0.00000  Uiso   1.00
H54    H     0.60170   0.92740   0.04425   0.00000  Uiso   1.00
H55    H     0.57342   0.38633   0.41155   0.00000  Uiso   1.00
H56    H     0.59685   0.34446   0.49541   0.00000  Uiso   1.00
H57    H     0.67581   0.42005   1.14418   0.00000  Uiso   1.00
H58    H     0.65262   0.46195   1.05674   0.00000  Uiso   1.00
H59    H     0.67657   0.55622   0.19072   0.00000  Uiso   1.00
H60    H     0.70449   0.59713   0.46272   0.00000  Uiso   1.00
H61    H     0.47154   0.45914   0.98841   0.00000  Uiso   1.00
H62    H     0.50282   0.42433   1.07245   0.00000  Uiso   1.00
H63    H     0.56703   0.54444   0.55561   0.00000  Uiso   1.00
H64    H     0.65162   0.49959   0.78842   0.00000  Uiso   1.00
H65    H     0.63050   0.58899   0.41857   0.00000  Uiso   1.00
H66    H     0.69189   0.29225   0.86533   0.00000  Uiso   1.00
H67    H     0.39676   0.85326   0.40485   0.00000  Uiso   1.00
H68    H     0.86253   0.44443   0.99666   0.00000  Uiso   1.00
C69    C     0.31853   0.68851   0.13039   0.00000  Uiso   1.00
C70    C     0.25752   0.63602   0.13574   0.00000  Uiso   1.00
C71    C     0.29639   0.65175   0.13068   0.00000  Uiso   1.00
C72    C     0.18336   0.60515   0.15491   0.00000  Uiso   1.00
C73    C     0.19924   0.59050  -0.02848   0.00000  Uiso   1.00
C74    C     0.23587   0.60581  -0.03946   0.00000  Uiso   1.00
C75    C     0.24178   0.65081   0.31939   0.00000  Uiso   1.00
C76    C     0.20512   0.63563   0.32880   0.00000  Uiso   1.00
C77    C     0.02349   0.50217   0.66769   0.00000  Uiso   1.00
C78    C     0.04489   0.48709   0.71199   0.00000  Uiso   1.00
C79    C     0.07974   0.50447   0.60735   0.00000  Uiso   1.00
C80    C     0.09362   0.53707   0.45764   0.00000  Uiso   1.00
C81    C     0.07273   0.55305   0.42041   0.00000  Uiso   1.00
C82    C     0.03759   0.53511   0.52230   0.00000  Uiso   1.00
N83    N     0.12934   0.55443   0.34852   0.00000  Uiso   1.00
C84    C     0.14336   0.58657   0.16266   0.00000  Uiso   1.00
C85    C     0.12806   0.60927   0.28119   0.00000  Uiso   1.00
C86    C     0.08765   0.58883   0.26601   0.00000  Uiso   1.00
O87    O     0.07561   0.60926   0.42487   0.00000  Uiso   1.00
C88    C     0.05546   0.61864   0.23361   0.00000  Uiso   1.00
C89    C     0.07999   0.65283   0.06668   0.00000  Uiso   1.00
C90    C     0.60594   0.20271   0.57260   0.00000  Uiso   1.00
C91    C     0.62907   0.23857   0.62034   0.00000  Uiso   1.00
C92    C     0.62007   0.25796   0.82174   0.00000  Uiso   1.00
C93    C     0.58755   0.24056   0.97694   0.00000  Uiso   1.00
C94    C     0.56428   0.20460   0.92821   0.00000  Uiso   1.00
C95    C     0.42418   0.10203   0.37084   0.00000  Uiso   1.00
C96    C     0.49695   0.01416   0.75488   0.00000  Uiso   1.00
C97    C     0.52982   0.02962   0.90380   0.00000  Uiso   1.00
C98    C     0.54912   0.06608   0.94896   0.00000  Uiso   1.00
C99    C     0.53597   0.08746   0.84303   0.00000  Uiso   1.00
C100   C     0.50194   0.07202   0.71162   0.00000  Uiso   1.00
C101   C     0.48285   0.03540   0.66601   0.00000  Uiso   1.00
N102   N     0.55810   0.12506   0.84751   0.00000  Uiso   1.00
C103   C     0.54885   0.14655   0.65411   0.00000  Uiso   1.00
C104   C     0.57304   0.18542   0.72093   0.00000  Uiso   1.00
C105   C     0.50940   0.13345   0.69489   0.00000  Uiso   1.00
C106   C     0.48696   0.09462   0.59551   0.00000  Uiso   1.00
O107   O     0.45260   0.08162   0.72041   0.00000  Uiso   1.00
C108   C     0.42646   0.07049   0.48852   0.00000  Uiso   1.00
C109   C     0.65255   0.35606   0.85734   0.00000  Uiso   1.00
C110   C     0.68919   0.36986   0.86036   0.00000  Uiso   1.00
H111   H     0.30665   0.70651   0.12991   0.00000  Uiso   1.00
H112   H     0.18216   0.56579  -0.17080   0.00000  Uiso   1.00
H113   H     0.24839   0.59378  -0.19146   0.00000  Uiso   1.00
H114   H     0.25896   0.67542   0.46248   0.00000  Uiso   1.00
H115   H     0.19283   0.64808   0.47854   0.00000  Uiso   1.00
H116   H     0.03385   0.46055   0.83382   0.00000  Uiso   1.00
H117   H     0.09704   0.49211   0.64372   0.00000  Uiso   1.00
H118   H     0.02045   0.54764   0.48559   0.00000  Uiso   1.00
H119   H     0.14650   0.63735   0.36466   0.00000  Uiso   1.00
H120   H     0.02553   0.60118   0.22468   0.00000  Uiso   1.00
H121   H     0.10579   0.65703  -0.03617   0.00000  Uiso   1.00
H122   H     0.07260   0.67429   0.04425   0.00000  Uiso   1.00
H123   H     0.61367   0.18709   0.41155   0.00000  Uiso   1.00
H124   H     0.65554   0.25239   0.49541   0.00000  Uiso   1.00
H125   H     0.57995   0.25577   1.14418   0.00000  Uiso   1.00
H126   H     0.53805   0.19066   1.05674   0.00000  Uiso   1.00
H127   H     0.44378   0.12034   0.19072   0.00000  Uiso   1.00
H128   H     0.40287   0.10736   0.46272   0.00000  Uiso   1.00
H129   H     0.54086   0.01239   0.98841   0.00000  Uiso   1.00
H130   H     0.57567   0.07849   1.07245   0.00000  Uiso   1.00
H131   H     0.45556   0.02259   0.55561   0.00000  Uiso   1.00
H132   H     0.50040   0.15203   0.78842   0.00000  Uiso   1.00
H133   H     0.41101   0.04151   0.41857   0.00000  Uiso   1.00
H134   H     0.70775   0.39964   0.86533   0.00000  Uiso   1.00
H135   H     0.14674   0.54350   0.40485   0.00000  Uiso   1.00
H136   H     0.55557   0.41809   0.99666   0.00000  Uiso   1.00
C137   C     0.31149   0.63002   0.13039   0.00000  Uiso   1.00
C138   C     0.36398   0.62150   0.13574   0.00000  Uiso   1.00
C139   C     0.34825   0.64464   0.13068   0.00000  Uiso   1.00
C140   C     0.39485   0.57821   0.15491   0.00000  Uiso   1.00
C141   C     0.40950   0.60874  -0.02848   0.00000  Uiso   1.00
C142   C     0.39419   0.63006  -0.03946   0.00000  Uiso   1.00
C143   C     0.34919   0.59097   0.31939   0.00000  Uiso   1.00
C144   C     0.36437   0.56949   0.32880   0.00000  Uiso   1.00
C145   C     0.49783   0.52132   0.66769   0.00000  Uiso   1.00
C146   C     0.51291   0.55780   0.71199   0.00000  Uiso   1.00
C147   C     0.49553   0.57527   0.60735   0.00000  Uiso   1.00
C148   C     0.46293   0.55655   0.45764   0.00000  Uiso   1.00
C149   C     0.44695   0.51968   0.42041   0.00000  Uiso   1.00
C150   C     0.46489   0.50248   0.52230   0.00000  Uiso   1.00
N151   N     0.44557   0.57491   0.34852   0.00000  Uiso   1.00
C152   C     0.41343   0.55679   0.16266   0.00000  Uiso   1.00
C153   C     0.39073   0.51879   0.28119   0.00000  Uiso   1.00
C154   C     0.41117   0.49882   0.26601   0.00000  Uiso   1.00
O155   O     0.39074   0.46635   0.42487   0.00000  Uiso   1.00
C156   C     0.38136   0.43682   0.23361   0.00000  Uiso   1.00
C157   C     0.34717   0.42716   0.06668   0.00000  Uiso   1.00
C158   C     0.79729   0.40323   0.57260   0.00000  Uiso   1.00
C159   C     0.76143   0.39050   0.62034   0.00000  Uiso   1.00
C160   C     0.74204   0.36211   0.82174   0.00000  Uiso   1.00
C161   C     0.75944   0.34699   0.97694   0.00000  Uiso   1.00
C162   C     0.79540   0.35968   0.92821   0.00000  Uiso   1.00
C163   C     0.89797   0.32215   0.37084   0.00000  Uiso   1.00
C164   C     0.98584   0.48279   0.75488   0.00000  Uiso   1.00
C165   C     0.97038   0.50020   0.90380   0.00000  Uiso   1.00
C166   C     0.93392   0.48304   0.94896   0.00000  Uiso   1.00
C167   C     0.91254   0.44851   0.84303   0.00000  Uiso   1.00
C168   C     0.92798   0.42992   0.71162   0.00000  Uiso   1.00
C169   C     0.96460   0.44745   0.66601   0.00000  Uiso   1.00
N170   N     0.87494   0.43304   0.84751   0.00000  Uiso   1.00
C171   C     0.85345   0.40230   0.65411   0.00000  Uiso   1.00
C172   C     0.81458   0.38762   0.72093   0.00000  Uiso   1.00
C173   C     0.86655   0.37595   0.69489   0.00000  Uiso   1.00
C174   C     0.90538   0.39234   0.59551   0.00000  Uiso   1.00
O175   O     0.91838   0.37098   0.72041   0.00000  Uiso   1.00
C176   C     0.92951   0.35597   0.48852   0.00000  Uiso   1.00
C177   C     0.64394   0.29649   0.85734   0.00000  Uiso   1.00
C178   C     0.63014   0.31933   0.86036   0.00000  Uiso   1.00
H179   H     0.29349   0.60014   0.12991   0.00000  Uiso   1.00
H180   H     0.43421   0.61637  -0.17080   0.00000  Uiso   1.00
H181   H     0.40622   0.65461  -0.19146   0.00000  Uiso   1.00
H182   H     0.32458   0.58354   0.46248   0.00000  Uiso   1.00
H183   H     0.35192   0.54475   0.47854   0.00000  Uiso   1.00
H184   H     0.53945   0.57330   0.83382   0.00000  Uiso   1.00
H185   H     0.50789   0.60493   0.64372   0.00000  Uiso   1.00
H186   H     0.45236   0.47281   0.48559   0.00000  Uiso   1.00
H187   H     0.36265   0.50915   0.36466   0.00000  Uiso   1.00
H188   H     0.39882   0.42435   0.22468   0.00000  Uiso   1.00
H189   H     0.34297   0.44877  -0.03617   0.00000  Uiso   1.00
H190   H     0.32571   0.39830   0.04425   0.00000  Uiso   1.00
H191   H     0.81291   0.42658   0.41155   0.00000  Uiso   1.00
H192   H     0.74761   0.40315   0.49541   0.00000  Uiso   1.00
H193   H     0.74423   0.32419   1.14418   0.00000  Uiso   1.00
H194   H     0.80934   0.34738   1.05674   0.00000  Uiso   1.00
H195   H     0.87966   0.32343   0.19072   0.00000  Uiso   1.00
H196   H     0.89264   0.29551   0.46272   0.00000  Uiso   1.00
H197   H     0.98761   0.52846   0.98841   0.00000  Uiso   1.00
H198   H     0.92151   0.49718   1.07245   0.00000  Uiso   1.00
H199   H     0.97741   0.43297   0.55561   0.00000  Uiso   1.00
H200   H     0.84797   0.34838   0.78842   0.00000  Uiso   1.00
H201   H     0.95849   0.36950   0.41857   0.00000  Uiso   1.00
H202   H     0.60036   0.30811   0.86533   0.00000  Uiso   1.00
H203   H     0.45650   0.60324   0.40485   0.00000  Uiso   1.00
H204   H     0.58191   0.13748   0.99666   0.00000  Uiso   1.00
loop_
_geom_bond_atom_site_label_1
_geom_bond_atom_site_label_2
_geom_bond_distance
_geom_bond_site_symmetry_2
_ccdc_geom_bond_type
C1     C3      1.402   .     D
C1     H43     1.140   .     S
C1     C139    1.403   .     S
C2     C3      1.482   .     S
C2     C6      1.403   .     D
C2     C7      1.404   .     S
C3     C69     1.403   .     S
C4     C5      1.404   .     D
C4     C8      1.408   .     S
C4     C16     1.517   .     S
C5     C6      1.395   .     S
C5     H44     1.140   .     S
C6     H45     1.140   .     S
C7     C8      1.396   .     D
C7     H46     1.140   .     S
C8     H47     1.140   .     S
C9     C10     1.402   .     D
C9     C14     1.402   .     S
C9     C96     1.476   1_565 S
C10    C11     1.396   .     S
C10    H48     1.140   .     S
C11    C12     1.399   .     D
C11    H49     1.140   .     S
C12    C13     1.410   .     S
C12    N15     1.434   .     S
C13    C14     1.403   .     D
C13    C18     1.517   .     S
C14    H50     1.140   .     S
N15    C16     1.463   .     D
N15    H67     1.110   .     S
C16    C17     1.537   .     S
C17    C18     1.533   .     D
C17    H51     1.140   .     S
C18    O19     1.422   .     S
O19    C20     1.412   .     S
C20    C21     1.519   .     D
C20    H52     1.140   .     S
C21    H53     1.140   .     S
C21    H54     1.140   .     S
C22    C23     1.393   .     D
C22    C36     1.403   .     S
C22    H55     1.140   .     S
C23    C24     1.404   .     S
C23    H56     1.140   .     S
C24    C25     1.405   .     D
C24    C109    1.482   .     S
C25    C26     1.398   .     S
C25    H57     1.140   .     S
C26    C36     1.407   .     D
C26    H58     1.140   .     S
C27    C40     1.520   .     D
C27    H59     1.140   .     S
C27    H60     1.140   .     S
C28    C29     1.403   .     D
C28    C33     1.402   .     S
C28    C145    1.476   .     S
C29    C30     1.396   .     S
C29    H61     1.140   .     S
C30    C31     1.398   .     D
C30    H62     1.140   .     S
C31    C32     1.411   .     S
C31    N34     1.432   .     S
C32    C33     1.402   .     D
C32    C38     1.519   .     S
C33    H63     1.140   .     S
N34    C35     1.460   .     D
N34    H136    1.110   .     S
C35    C36     1.515   .     S
C35    C37     1.533   .     S
C37    C38     1.539   .     D
C37    H64     1.140   .     S
C38    O39     1.422   .     S
O39    C40     1.414   .     S
C40    H65     1.140   .     S
C41    C42     1.402   .     D
C41    C110    1.403   .     S
C41    C160    1.482   .     S
C42    H66     1.140   .     S
C42    C177    1.403   .     S
H68    N170    1.110   .     S
C69    C71     1.402   .     D
C69    H111    1.140   .     S
C70    C71     1.482   .     S
C70    C74     1.403   .     D
C70    C75     1.404   .     S
C71    C137    1.403   .     S
C72    C73     1.404   .     D
C72    C76     1.408   .     S
C72    C84     1.517   .     S
C73    C74     1.395   .     S
C73    H112    1.140   .     S
C74    H113    1.140   .     S
C75    C76     1.396   .     D
C75    H114    1.140   .     S
C76    H115    1.140   .     S
C77    C78     1.402   .     D
C77    C82     1.402   .     S
C77    C164    1.476   1_455 S
C78    C79     1.396   .     S
C78    H116    1.140   .     S
C79    C80     1.399   .     D
C79    H117    1.140   .     S
C80    C81     1.410   .     S
C80    N83     1.434   .     S
C81    C82     1.403   .     D
C81    C86     1.517   .     S
C82    H118    1.140   .     S
N83    C84     1.463   .     D
N83    H135    1.110   .     S
C84    C85     1.537   .     S
C85    C86     1.533   .     D
C85    H119    1.140   .     S
C86    O87     1.422   .     S
O87    C88     1.412   .     S
C88    C89     1.519   .     D
C88    H120    1.140   .     S
C89    H121    1.140   .     S
C89    H122    1.140   .     S
C90    C91     1.393   .     D
C90    C104    1.403   .     S
C90    H123    1.140   .     S
C91    C92     1.404   .     S
C91    H124    1.140   .     S
C92    C93     1.405   .     D
C92    C177    1.482   .     S
C93    C94     1.398   .     S
C93    H125    1.140   .     S
C94    C104    1.407   .     D
C94    H126    1.140   .     S
C95    C108    1.520   .     D
C95    H127    1.140   .     S
C95    H128    1.140   .     S
C96    C9      1.476   1_545 S
C96    C97     1.403   .     D
C96    C101    1.402   .     S
C97    C98     1.396   .     S
C97    H129    1.140   .     S
C98    C99     1.398   .     D
C98    H130    1.140   .     S
C99    C100    1.411   .     S
C99    N102    1.432   .     S
C100   C101    1.402   .     D
C100   C106    1.519   .     S
C101   H131    1.140   .     S
N102   C103    1.460   .     D
N102   H204    1.110   .     S
C103   C104    1.515   .     S
C103   C105    1.533   .     S
C105   C106    1.539   .     D
C105   H132    1.140   .     S
C106   O107    1.422   .     S
O107   C108    1.414   .     S
C108   H133    1.140   .     S
C109   C110    1.402   .     D
C109   C178    1.403   .     S
C110   H134    1.140   .     S
C137   C139    1.402   .     D
C137   H179    1.140   .     S
C138   C139    1.482   .     S
C138   C142    1.403   .     D
C138   C143    1.404   .     S
C140   C141    1.404   .     D
C140   C144    1.408   .     S
C140   C152    1.517   .     S
C141   C142    1.395   .     S
C141   H180    1.140   .     S
C142   H181    1.140   .     S
C143   C144    1.396   .     D
C143   H182    1.140   .     S
C144   H183    1.140   .     S
C145   C146    1.402   .     D
C145   C150    1.402   .     S
C146   C147    1.396   .     S
C146   H184    1.140   .     S
C147   C148    1.399   .     D
C147   H185    1.140   .     S
C148   C149    1.410   .     S
C148   N151    1.434   .     S
C149   C150    1.403   .     D
C149   C154    1.517   .     S
C150   H186    1.140   .     S
N151   C152    1.463   .     D
N151   H203    1.110   .     S
C152   C153    1.537   .     S
C153   C154    1.533   .     D
C153   H187    1.140   .     S
C154   O155    1.422   .     S
O155   C156    1.412   .     S
C156   C157    1.519   .     D
C156   H188    1.140   .     S
C157   H189    1.140   .     S
C157   H190    1.140   .     S
C158   C159    1.393   .     D
C158   C172    1.403   .     S
C158   H191    1.140   .     S
C159   C160    1.404   .     S
C159   H192    1.140   .     S
C160   C161    1.405   .     D
C161   C162    1.398   .     S
C161   H193    1.140   .     S
C162   C172    1.407   .     D
C162   H194    1.140   .     S
C163   C176    1.520   .     D
C163   H195    1.140   .     S
C163   H196    1.140   .     S
C164   C77     1.476   1_655 S
C164   C165    1.403   .     D
C164   C169    1.402   .     S
C165   C166    1.396   .     S
C165   H197    1.140   .     S
C166   C167    1.398   .     D
C166   H198    1.140   .     S
C167   C168    1.411   .     S
C167   N170    1.432   .     S
C168   C169    1.402   .     D
C168   C174    1.519   .     S
C169   H199    1.140   .     S
N170   C171    1.460   .     D
C171   C172    1.515   .     S
C171   C173    1.533   .     S
C173   C174    1.539   .     D
C173   H200    1.140   .     S
C174   O175    1.422   .     S
O175   C176    1.414   .     S
C176   H201    1.140   .     S
C177   C178    1.402   .     D
C178   H202    1.140   .     S
