data_41
_audit_creation_date              2023-09-08
_audit_creation_method            'Materials Studio'
_symmetry_space_group_name_H-M    'P1'
_symmetry_Int_Tables_number       1
_symmetry_cell_setting            triclinic
loop_
_symmetry_equiv_pos_as_xyz
  x,y,z
_cell_length_a                    36.3649
_cell_length_b                    36.3649
_cell_length_c                    3.8378
_cell_angle_alpha                 90.0000
_cell_angle_beta                  90.0000
_cell_angle_gamma                 120.0000
loop_
_atom_site_label
_atom_site_type_symbol
_atom_site_fract_x
_atom_site_fract_y
_atom_site_fract_z
_atom_site_U_iso_or_equiv
_atom_site_adp_type
_atom_site_occupancy
C1     C     0.40710   0.56021   0.83586   0.00000  Uiso   1.00
C2     C     0.42840   0.60225   0.95656   0.00000  Uiso   1.00
C3     C     0.41095   0.62841   0.90796   0.00000  Uiso   1.00
C4     C     0.37221   0.61360   0.72924   0.00000  Uiso   1.00
C5     C     0.35193   0.57187   0.59614   0.00000  Uiso   1.00
C6     C     0.36892   0.54536   0.65314   0.00000  Uiso   1.00
C7     C     0.35231   0.64086   0.69696   0.00000  Uiso   1.00
C8     C     0.37750   0.68539   0.69354   0.00000  Uiso   1.00
C9     C     0.46896   0.89211   0.91417   0.00000  Uiso   1.00
N10    N     0.45427   0.91560   1.07203   0.00000  Uiso   1.00
C11    C     0.47722   0.95624   1.19027   0.00000  Uiso   1.00
C12    C     0.45614   0.47802   1.20808   0.00000  Uiso   1.00
C13    C     0.47770   0.45585   1.31584   0.00000  Uiso   1.00
C14    C     0.95498   0.54705   1.26545   0.00000  Uiso   1.00
C15    C     0.91502   0.53338   1.40294   0.00000  Uiso   1.00
S16    S     0.97626   0.59575   1.06393   0.00000  Uiso   1.00
C17    C     0.93050   0.59623   1.15630   0.00000  Uiso   1.00
C18    C     0.90079   0.56109   1.33558   0.00000  Uiso   1.00
C19    C     0.07648   0.36818   1.05197   0.00000  Uiso   1.00
H20    H     0.45773   0.61456   1.10133   0.00000  Uiso   1.00
H21    H     0.42718   0.65961   1.02544   0.00000  Uiso   1.00
H22    H     0.32296   0.55952   0.44605   0.00000  Uiso   1.00
H23    H     0.35219   0.51318   0.55383   0.00000  Uiso   1.00
H24    H     0.41162   0.69983   0.69784   0.00000  Uiso   1.00
H25    H     0.50196   0.90598   0.84055   0.00000  Uiso   1.00
H26    H     0.42221   0.46095   1.17004   0.00000  Uiso   1.00
H27    H     0.89699   0.50439   1.55009   0.00000  Uiso   1.00
H28    H     0.87022   0.55617   1.41905   0.00000  Uiso   1.00
H29    H     0.08074   0.35296   1.28685   0.00000  Uiso   1.00
H30    H     0.10539   0.38061   0.88771   0.00000  Uiso   1.00
H31    H     0.04884   0.34393   0.90221   0.00000  Uiso   1.00
C32    C     0.43979   0.84689   0.83586   0.00000  Uiso   1.00
C33    C     0.39775   0.82615   0.95656   0.00000  Uiso   1.00
C34    C     0.37159   0.78254   0.90796   0.00000  Uiso   1.00
C35    C     0.38640   0.75861   0.72924   0.00000  Uiso   1.00
C36    C     0.42813   0.78006   0.59614   0.00000  Uiso   1.00
C37    C     0.45464   0.82356   0.65314   0.00000  Uiso   1.00
C38    C     0.35914   0.71145   0.69696   0.00000  Uiso   1.00
C39    C     0.31461   0.69211   0.69354   0.00000  Uiso   1.00
C40    C     0.10789   0.57685   0.91417   0.00000  Uiso   1.00
N41    N     0.08440   0.53867   1.07203   0.00000  Uiso   1.00
C42    C     0.04376   0.52098   1.19027   0.00000  Uiso   1.00
C43    C     0.52198   0.97812   1.20808   0.00000  Uiso   1.00
C44    C     0.54415   0.02185   1.31584   0.00000  Uiso   1.00
C45    C     0.45295   0.40793   1.26545   0.00000  Uiso   1.00
C46    C     0.46662   0.38164   1.40294   0.00000  Uiso   1.00
S47    S     0.40425   0.38051   1.06393   0.00000  Uiso   1.00
C48    C     0.40377   0.33427   1.15630   0.00000  Uiso   1.00
C49    C     0.43891   0.33970   1.33558   0.00000  Uiso   1.00
C50    C     0.63182   0.70830   1.05197   0.00000  Uiso   1.00
H51    H     0.38544   0.84317   1.10133   0.00000  Uiso   1.00
H52    H     0.34039   0.76757   1.02544   0.00000  Uiso   1.00
H53    H     0.44048   0.76344   0.44605   0.00000  Uiso   1.00
H54    H     0.48682   0.83901   0.55383   0.00000  Uiso   1.00
H55    H     0.30017   0.71179   0.69784   0.00000  Uiso   1.00
H56    H     0.09402   0.59598   0.84055   0.00000  Uiso   1.00
H57    H     0.53905   0.96126   1.17004   0.00000  Uiso   1.00
H58    H     0.49561   0.39260   1.55009   0.00000  Uiso   1.00
H59    H     0.44383   0.31405   1.41905   0.00000  Uiso   1.00
H60    H     0.64704   0.72778   1.28685   0.00000  Uiso   1.00
H61    H     0.61939   0.72478   0.88771   0.00000  Uiso   1.00
H62    H     0.65607   0.70491   0.90221   0.00000  Uiso   1.00
C63    C     0.15311   0.59290   0.83586   0.00000  Uiso   1.00
C64    C     0.17385   0.57160   0.95656   0.00000  Uiso   1.00
C65    C     0.21746   0.58905   0.90796   0.00000  Uiso   1.00
C66    C     0.24139   0.62779   0.72924   0.00000  Uiso   1.00
C67    C     0.21994   0.64807   0.59614   0.00000  Uiso   1.00
C68    C     0.17644   0.63108   0.65314   0.00000  Uiso   1.00
C69    C     0.28855   0.64769   0.69696   0.00000  Uiso   1.00
C70    C     0.30789   0.62250   0.69354   0.00000  Uiso   1.00
C71    C     0.42315   0.53104   0.91417   0.00000  Uiso   1.00
N72    N     0.46133   0.54573   1.07203   0.00000  Uiso   1.00
C73    C     0.47902   0.52278   1.19027   0.00000  Uiso   1.00
C74    C     0.02188   0.54386   1.20808   0.00000  Uiso   1.00
C75    C     0.97815   0.52230   1.31584   0.00000  Uiso   1.00
C76    C     0.59207   0.04502   1.26545   0.00000  Uiso   1.00
C77    C     0.61836   0.08498   1.40294   0.00000  Uiso   1.00
S78    S     0.61949   0.02374   1.06393   0.00000  Uiso   1.00
C79    C     0.66573   0.06950   1.15630   0.00000  Uiso   1.00
C80    C     0.66030   0.09921   1.33558   0.00000  Uiso   1.00
C81    C     0.29170   0.92352   1.05197   0.00000  Uiso   1.00
H82    H     0.15683   0.54227   1.10133   0.00000  Uiso   1.00
H83    H     0.23243   0.57282   1.02544   0.00000  Uiso   1.00
H84    H     0.23656   0.67704   0.44605   0.00000  Uiso   1.00
H85    H     0.16099   0.64781   0.55383   0.00000  Uiso   1.00
H86    H     0.28821   0.58838   0.69784   0.00000  Uiso   1.00
H87    H     0.40402   0.49804   0.84055   0.00000  Uiso   1.00
H88    H     0.03874   0.57779   1.17004   0.00000  Uiso   1.00
H89    H     0.60740   0.10301   1.55009   0.00000  Uiso   1.00
H90    H     0.68595   0.12978   1.41905   0.00000  Uiso   1.00
H91    H     0.27222   0.91926   1.28685   0.00000  Uiso   1.00
H92    H     0.27522   0.89461   0.88771   0.00000  Uiso   1.00
H93    H     0.29509   0.95116   0.90221   0.00000  Uiso   1.00
C94    C     0.59290   0.43979   0.83586   0.00000  Uiso   1.00
C95    C     0.57160   0.39775   0.95656   0.00000  Uiso   1.00
C96    C     0.58905   0.37159   0.90796   0.00000  Uiso   1.00
C97    C     0.62779   0.38640   0.72924   0.00000  Uiso   1.00
C98    C     0.64807   0.42813   0.59614   0.00000  Uiso   1.00
C99    C     0.63108   0.45464   0.65314   0.00000  Uiso   1.00
C100   C     0.64769   0.35914   0.69696   0.00000  Uiso   1.00
C101   C     0.62250   0.31461   0.69354   0.00000  Uiso   1.00
C102   C     0.53104   0.10789   0.91417   0.00000  Uiso   1.00
N103   N     0.54573   0.08440   1.07203   0.00000  Uiso   1.00
C104   C     0.52278   0.04376   1.19027   0.00000  Uiso   1.00
C105   C     0.54386   0.52198   1.20808   0.00000  Uiso   1.00
C106   C     0.52230   0.54415   1.31584   0.00000  Uiso   1.00
C107   C     0.04502   0.45295   1.26545   0.00000  Uiso   1.00
C108   C     0.08498   0.46662   1.40294   0.00000  Uiso   1.00
S109   S     0.02374   0.40425   1.06393   0.00000  Uiso   1.00
C110   C     0.06950   0.40377   1.15630   0.00000  Uiso   1.00
C111   C     0.09921   0.43891   1.33558   0.00000  Uiso   1.00
C112   C     0.92352   0.63182   1.05197   0.00000  Uiso   1.00
H113   H     0.54227   0.38544   1.10133   0.00000  Uiso   1.00
H114   H     0.57282   0.34039   1.02544   0.00000  Uiso   1.00
H115   H     0.67704   0.44048   0.44605   0.00000  Uiso   1.00
H116   H     0.64781   0.48682   0.55383   0.00000  Uiso   1.00
H117   H     0.58838   0.30017   0.69784   0.00000  Uiso   1.00
H118   H     0.49804   0.09402   0.84055   0.00000  Uiso   1.00
H119   H     0.57779   0.53905   1.17004   0.00000  Uiso   1.00
H120   H     0.10301   0.49561   1.55009   0.00000  Uiso   1.00
H121   H     0.12978   0.44383   1.41905   0.00000  Uiso   1.00
H122   H     0.91926   0.64704   1.28685   0.00000  Uiso   1.00
H123   H     0.89461   0.61939   0.88771   0.00000  Uiso   1.00
H124   H     0.95116   0.65607   0.90221   0.00000  Uiso   1.00
C125   C     0.56021   0.15311   0.83586   0.00000  Uiso   1.00
C126   C     0.60225   0.17385   0.95656   0.00000  Uiso   1.00
C127   C     0.62841   0.21746   0.90796   0.00000  Uiso   1.00
C128   C     0.61360   0.24139   0.72924   0.00000  Uiso   1.00
C129   C     0.57187   0.21994   0.59614   0.00000  Uiso   1.00
C130   C     0.54536   0.17644   0.65314   0.00000  Uiso   1.00
C131   C     0.64086   0.28855   0.69696   0.00000  Uiso   1.00
C132   C     0.68539   0.30789   0.69354   0.00000  Uiso   1.00
C133   C     0.89211   0.42315   0.91417   0.00000  Uiso   1.00
N134   N     0.91560   0.46133   1.07203   0.00000  Uiso   1.00
C135   C     0.95624   0.47902   1.19027   0.00000  Uiso   1.00
C136   C     0.47802   0.02188   1.20808   0.00000  Uiso   1.00
C137   C     0.45585   0.97815   1.31584   0.00000  Uiso   1.00
C138   C     0.54705   0.59207   1.26545   0.00000  Uiso   1.00
C139   C     0.53338   0.61836   1.40294   0.00000  Uiso   1.00
S140   S     0.59575   0.61949   1.06393   0.00000  Uiso   1.00
C141   C     0.59623   0.66573   1.15630   0.00000  Uiso   1.00
C142   C     0.56109   0.66030   1.33558   0.00000  Uiso   1.00
C143   C     0.36818   0.29170   1.05197   0.00000  Uiso   1.00
H144   H     0.61456   0.15683   1.10133   0.00000  Uiso   1.00
H145   H     0.65961   0.23243   1.02544   0.00000  Uiso   1.00
H146   H     0.55952   0.23656   0.44605   0.00000  Uiso   1.00
H147   H     0.51318   0.16099   0.55383   0.00000  Uiso   1.00
H148   H     0.69983   0.28821   0.69784   0.00000  Uiso   1.00
H149   H     0.90598   0.40402   0.84055   0.00000  Uiso   1.00
H150   H     0.46095   0.03874   1.17004   0.00000  Uiso   1.00
H151   H     0.50439   0.60740   1.55009   0.00000  Uiso   1.00
H152   H     0.55617   0.68595   1.41905   0.00000  Uiso   1.00
H153   H     0.35296   0.27222   1.28685   0.00000  Uiso   1.00
H154   H     0.38061   0.27522   0.88771   0.00000  Uiso   1.00
H155   H     0.34393   0.29509   0.90221   0.00000  Uiso   1.00
C156   C     0.84689   0.40710   0.83586   0.00000  Uiso   1.00
C157   C     0.82615   0.42840   0.95656   0.00000  Uiso   1.00
C158   C     0.78254   0.41095   0.90796   0.00000  Uiso   1.00
C159   C     0.75861   0.37221   0.72924   0.00000  Uiso   1.00
C160   C     0.78006   0.35193   0.59614   0.00000  Uiso   1.00
C161   C     0.82356   0.36892   0.65314   0.00000  Uiso   1.00
C162   C     0.71145   0.35231   0.69696   0.00000  Uiso   1.00
C163   C     0.69211   0.37750   0.69354   0.00000  Uiso   1.00
C164   C     0.57685   0.46896   0.91417   0.00000  Uiso   1.00
N165   N     0.53867   0.45427   1.07203   0.00000  Uiso   1.00
C166   C     0.52098   0.47722   1.19027   0.00000  Uiso   1.00
C167   C     0.97812   0.45614   1.20808   0.00000  Uiso   1.00
C168   C     0.02185   0.47770   1.31584   0.00000  Uiso   1.00
C169   C     0.40793   0.95498   1.26545   0.00000  Uiso   1.00
C170   C     0.38164   0.91502   1.40294   0.00000  Uiso   1.00
S171   S     0.38051   0.97626   1.06393   0.00000  Uiso   1.00
C172   C     0.33427   0.93050   1.15630   0.00000  Uiso   1.00
C173   C     0.33970   0.90079   1.33558   0.00000  Uiso   1.00
C174   C     0.70830   0.07648   1.05197   0.00000  Uiso   1.00
H175   H     0.84317   0.45773   1.10133   0.00000  Uiso   1.00
H176   H     0.76757   0.42718   1.02544   0.00000  Uiso   1.00
H177   H     0.76344   0.32296   0.44605   0.00000  Uiso   1.00
H178   H     0.83901   0.35219   0.55383   0.00000  Uiso   1.00
H179   H     0.71179   0.41162   0.69784   0.00000  Uiso   1.00
H180   H     0.59598   0.50196   0.84055   0.00000  Uiso   1.00
H181   H     0.96126   0.42221   1.17004   0.00000  Uiso   1.00
H182   H     0.39260   0.89699   1.55009   0.00000  Uiso   1.00
H183   H     0.31405   0.87022   1.41905   0.00000  Uiso   1.00
H184   H     0.72778   0.08074   1.28685   0.00000  Uiso   1.00
H185   H     0.72478   0.10539   0.88771   0.00000  Uiso   1.00
H186   H     0.70491   0.04884   0.90221   0.00000  Uiso   1.00
loop_
_geom_bond_atom_site_label_1
_geom_bond_atom_site_label_2
_geom_bond_distance
_geom_bond_site_symmetry_2
_ccdc_geom_bond_type
C1     C2      1.403   .     S
C1     C6      1.400   .     D
C1     C71     1.475   .     S
C2     C3      1.395   .     D
C2     H20     1.081   .     S
C3     C4      1.409   .     S
C3     H21     1.081   .     S
C4     C5      1.410   .     D
C4     C7      1.496   .     S
C5     C6      1.398   .     S
C5     H22     1.082   .     S
C6     H23     1.083   .     S
C7     C8      1.406   .     D
C7     C70     1.406   .     S
C8     H24     1.079   .     S
C8     C38     1.406   .     S
C9     N10     1.356   .     D
C9     H25     1.081   .     S
C9     C32     1.475   .     S
N10    C11     1.361   .     S
C11    C43     1.411   .     D
C11    C137    1.446   .     S
C12    C13     1.438   .     S
C12    H26     1.078   .     S
C12    C73     1.411   .     D
C13    C45     1.522   .     S
C13    C166    1.446   .     D
C14    C15     1.384   .     D
C14    S16     1.721   .     S
C14    C75     1.522   .     S
C15    C18     1.368   .     S
C15    H27     1.081   .     S
S16    C17     1.710   .     S
C17    C18     1.376   .     D
C17    C112    1.493   .     S
C18    H28     1.082   .     S
C19    H29     1.108   .     S
C19    H30     1.110   .     S
C19    H31     1.110   .     S
C19    C110    1.493   .     S
C32    C33     1.403   .     D
C32    C37     1.400   .     S
C33    C34     1.395   .     S
C33    H51     1.081   .     S
C34    C35     1.409   .     D
C34    H52     1.081   .     S
C35    C36     1.410   .     S
C35    C38     1.496   .     S
C36    C37     1.398   .     D
C36    H53     1.082   .     S
C37    H54     1.083   .     S
C38    C39     1.406   .     D
C39    H55     1.079   .     S
C39    C69     1.406   .     S
C40    N41     1.356   .     D
C40    H56     1.081   .     S
C40    C63     1.475   .     S
N41    C42     1.361   .     S
C42    C74     1.411   .     D
C42    C168    1.446   .     S
C43    C44     1.438   1_565 S
C43    H57     1.078   .     S
C44    C43     1.438   1_545 S
C44    C76     1.522   .     S
C44    C104    1.446   .     D
C45    C46     1.384   .     D
C45    S47     1.721   .     S
C46    C49     1.368   .     S
C46    H58     1.081   .     S
S47    C48     1.710   .     S
C48    C49     1.376   .     D
C48    C143    1.493   .     S
C49    H59     1.082   .     S
C50    H60     1.108   .     S
C50    H61     1.110   .     S
C50    H62     1.110   .     S
C50    C141    1.493   .     S
C63    C64     1.403   .     D
C63    C68     1.400   .     S
C64    C65     1.395   .     S
C64    H82     1.081   .     S
C65    C66     1.409   .     D
C65    H83     1.081   .     S
C66    C67     1.410   .     S
C66    C69     1.496   .     S
C67    C68     1.398   .     D
C67    H84     1.082   .     S
C68    H85     1.083   .     S
C69    C70     1.406   .     D
C70    H86     1.079   .     S
C71    N72     1.356   .     D
C71    H87     1.081   .     S
N72    C73     1.361   .     S
C73    C106    1.446   .     S
C74    C75     1.438   1_455 S
C74    H88     1.078   .     S
C75    C74     1.438   1_655 S
C75    C135    1.446   .     D
C76    C77     1.384   .     D
C76    S78     1.721   .     S
C77    C80     1.368   .     S
C77    H89     1.081   .     S
S78    C79     1.710   .     S
C79    C80     1.376   .     D
C79    C174    1.493   .     S
C80    H90     1.082   .     S
C81    H91     1.108   .     S
C81    H92     1.110   .     S
C81    H93     1.110   .     S
C81    C172    1.493   .     S
C94    C95     1.403   .     D
C94    C99     1.400   .     S
C94    C164    1.475   .     S
C95    C96     1.395   .     S
C95    H113    1.081   .     S
C96    C97     1.409   .     D
C96    H114    1.081   .     S
C97    C98     1.410   .     S
C97    C100    1.496   .     S
C98    C99     1.398   .     D
C98    H115    1.082   .     S
C99    H116    1.083   .     S
C100   C101    1.406   .     D
C100   C163    1.406   .     S
C101   H117    1.079   .     S
C101   C131    1.406   .     S
C102   N103    1.356   .     D
C102   H118    1.081   .     S
C102   C125    1.475   .     S
N103   C104    1.361   .     S
C104   C136    1.411   .     S
C105   C106    1.438   .     D
C105   H119    1.078   .     S
C105   C166    1.411   .     S
C106   C138    1.522   .     S
C107   C108    1.384   .     D
C107   S109    1.721   .     S
C107   C168    1.522   .     S
C108   C111    1.368   .     S
C108   H120    1.081   .     S
S109   C110    1.710   .     S
C110   C111    1.376   .     D
C111   H121    1.082   .     S
C112   H122    1.108   .     S
C112   H123    1.110   .     S
C112   H124    1.110   .     S
C125   C126    1.403   .     S
C125   C130    1.400   .     D
C126   C127    1.395   .     D
C126   H144    1.081   .     S
C127   C128    1.409   .     S
C127   H145    1.081   .     S
C128   C129    1.410   .     D
C128   C131    1.496   .     S
C129   C130    1.398   .     S
C129   H146    1.082   .     S
C130   H147    1.083   .     S
C131   C132    1.406   .     D
C132   H148    1.079   .     S
C132   C162    1.406   .     S
C133   N134    1.356   .     D
C133   H149    1.081   .     S
C133   C156    1.475   .     S
N134   C135    1.361   .     S
C135   C167    1.411   .     S
C136   C137    1.438   1_545 D
C136   H150    1.078   .     S
C137   C136    1.438   1_565 D
C137   C169    1.522   .     S
C138   C139    1.384   .     D
C138   S140    1.721   .     S
C139   C142    1.368   .     S
C139   H151    1.081   .     S
S140   C141    1.710   .     S
C141   C142    1.376   .     D
C142   H152    1.082   .     S
C143   H153    1.108   .     S
C143   H154    1.110   .     S
C143   H155    1.110   .     S
C156   C157    1.403   .     D
C156   C161    1.400   .     S
C157   C158    1.395   .     S
C157   H175    1.081   .     S
C158   C159    1.409   .     D
C158   H176    1.081   .     S
C159   C160    1.410   .     S
C159   C162    1.496   .     S
C160   C161    1.398   .     D
C160   H177    1.082   .     S
C161   H178    1.083   .     S
C162   C163    1.406   .     D
C163   H179    1.079   .     S
C164   N165    1.356   .     D
C164   H180    1.081   .     S
N165   C166    1.361   .     S
C167   C168    1.438   1_655 D
C167   H181    1.078   .     S
C168   C167    1.438   1_455 D
C169   C170    1.384   .     D
C169   S171    1.721   .     S
C170   C173    1.368   .     S
C170   H182    1.081   .     S
S171   C172    1.710   .     S
C172   C173    1.376   .     D
C173   H183    1.082   .     S
C174   H184    1.108   .     S
C174   H185    1.110   .     S
C174   H186    1.110   .     S
