data_410
_audit_creation_date              2023-09-08
_audit_creation_method            'Materials Studio'
_symmetry_space_group_name_H-M    'P1'
_symmetry_Int_Tables_number       1
_symmetry_cell_setting            triclinic
loop_
_symmetry_equiv_pos_as_xyz
  x,y,z
_cell_length_a                    17.9000
_cell_length_b                    17.9000
_cell_length_c                    3.5400
_cell_angle_alpha                 90.0000
_cell_angle_beta                  90.0000
_cell_angle_gamma                 120.0000
loop_
_atom_site_label
_atom_site_type_symbol
_atom_site_fract_x
_atom_site_fract_y
_atom_site_fract_z
_atom_site_U_iso_or_equiv
_atom_site_adp_type
_atom_site_occupancy
C1     C     0.31524   0.58045  -0.35156   0.00000  Uiso   1.00
C2     C     0.24741   0.59907  -0.36300   0.00000  Uiso   1.00
C3     C     0.29884   0.49646  -0.29316   0.00000  Uiso   1.00
N4     N     0.22667   0.44354  -0.10121   0.00000  Uiso   1.00
C5     C     0.11246   0.32604   0.18790   0.00000  Uiso   1.00
C6     C     0.06848   0.23879   0.28981   0.00000  Uiso   1.00
C7     C     0.23017   0.31011  -0.06343   0.00000  Uiso   1.00
C8     C     0.77797   0.96193   0.02281   0.00000  Uiso   1.00
H9     H     0.08613   0.36390   0.24843   0.00000  Uiso   1.00
H10    H     0.28944   0.33544  -0.18698   0.00000  Uiso   1.00
H11    H     0.81287   0.02495  -0.05719   0.00000  Uiso   1.00
C12    C     0.05098   0.09236   0.24735   0.00000  Uiso   1.00
C13    C     0.16873   0.80746   0.00607   0.00000  Uiso   1.00
C14    C     0.10087   0.18318   0.19405   0.00000  Uiso   1.00
C15    C     0.95077   0.91074   0.25963   0.00000  Uiso   1.00
H16    H     0.91520   0.84556   0.26801   0.00000  Uiso   1.00
H17    H     0.18467   0.54974  -0.36279   0.00000  Uiso   1.00
H18    H     0.13628   0.65848  -0.38057   0.00000  Uiso   1.00
C19    C     0.41955   0.73479  -0.35156   0.00000  Uiso   1.00
C20    C     0.40094   0.64835  -0.36300   0.00000  Uiso   1.00
C21    C     0.50353   0.80238  -0.29316   0.00000  Uiso   1.00
N22    N     0.55646   0.78313  -0.10121   0.00000  Uiso   1.00
C23    C     0.67397   0.78643   0.18790   0.00000  Uiso   1.00
C24    C     0.76121   0.82969   0.28981   0.00000  Uiso   1.00
C25    C     0.68989   0.92006  -0.06343   0.00000  Uiso   1.00
C26    C     0.03807   0.81604   0.02281   0.00000  Uiso   1.00
H27    H     0.63610   0.72222   0.24843   0.00000  Uiso   1.00
H28    H     0.66456   0.95400  -0.18698   0.00000  Uiso   1.00
C29    C     0.90764   0.95862   0.24735   0.00000  Uiso   1.00
C30    C     0.19254   0.36127   0.00607   0.00000  Uiso   1.00
C31    C     0.81682   0.91770   0.19405   0.00000  Uiso   1.00
H32    H     0.45026   0.63493  -0.36279   0.00000  Uiso   1.00
H33    H     0.34152   0.47780  -0.38057   0.00000  Uiso   1.00
C34    C     0.26521   0.68476  -0.35156   0.00000  Uiso   1.00
C35    C     0.35165   0.75259  -0.36300   0.00000  Uiso   1.00
C36    C     0.19762   0.70116  -0.29316   0.00000  Uiso   1.00
N37    N     0.21687   0.77333  -0.10121   0.00000  Uiso   1.00
C38    C     0.21357   0.88754   0.18790   0.00000  Uiso   1.00
C39    C     0.17031   0.93152   0.28981   0.00000  Uiso   1.00
C40    C     0.07994   0.76983  -0.06343   0.00000  Uiso   1.00
C41    C     0.18396   0.22203   0.02281   0.00000  Uiso   1.00
H42    H     0.27778   0.91388   0.24843   0.00000  Uiso   1.00
H43    H     0.04600   0.71056  -0.18698   0.00000  Uiso   1.00
C44    C     0.04138   0.94902   0.24735   0.00000  Uiso   1.00
C45    C     0.63873   0.83127   0.00607   0.00000  Uiso   1.00
C46    C     0.08231   0.89913   0.19405   0.00000  Uiso   1.00
H47    H     0.36507   0.81533  -0.36279   0.00000  Uiso   1.00
H48    H     0.52220   0.86372  -0.38057   0.00000  Uiso   1.00
H49    H     0.01232   0.21749   0.43582   0.00000  Uiso   1.00
H50    H     0.78251   0.79483   0.43582   0.00000  Uiso   1.00
H51    H     0.97505   0.78791  -0.05719   0.00000  Uiso   1.00
C52    C     0.08926   0.04002   0.25963   0.00000  Uiso   1.00
H53    H     0.15444   0.06964   0.26801   0.00000  Uiso   1.00
H54    H     0.20517   0.98768   0.43582   0.00000  Uiso   1.00
H55    H     0.21209   0.18713  -0.05719   0.00000  Uiso   1.00
C56    C     0.95998   0.04923   0.25963   0.00000  Uiso   1.00
H57    H     0.93036   0.08480   0.26801   0.00000  Uiso   1.00
loop_
_geom_bond_atom_site_label_1
_geom_bond_atom_site_label_2
_geom_bond_distance
_geom_bond_site_symmetry_2
_ccdc_geom_bond_type
C1     C2      1.411   .     D
C1     C3      1.396   .     S
C1     C20     1.403   .     S
C2     H17     1.024   .     S
C2     C34     1.403   .     S
C3     N4      1.343   .     D
C3     H33     1.023   .     S
N4     C30     1.337   .     S
C5     C6      1.400   .     D
C5     H9      1.023   .     S
C5     C30     1.401   .     S
C6     C14     1.421   .     S
C6     H49     1.020   .     S
C7     H10     1.021   .     S
C7     C30     1.404   .     D
C7     C41     1.400   .     S
C8     H11     1.019   1_565 S
C8     C25     1.400   .     D
C8     C31     1.424   .     S
H11    C8      1.019   1_545 S
C12    C14     1.423   .     S
C12    C52     1.411   .     S
C12    C56     1.412   1_455 D
C13    N37     1.337   .     S
C13    C38     1.401   .     D
C13    C40     1.404   .     S
C14    C41     1.424   .     D
C15    H16     1.012   .     S
C15    C29     1.412   .     D
C15    C44     1.411   1_655 S
H18    C36     1.023   .     S
C19    C20     1.411   .     D
C19    C21     1.396   .     S
C19    C35     1.403   .     S
C20    H32     1.024   .     S
C21    N22     1.343   .     D
C21    H48     1.023   .     S
N22    C45     1.337   .     S
C23    C24     1.400   .     S
C23    H27     1.023   .     S
C23    C45     1.401   .     D
C24    C31     1.421   .     D
C24    H50     1.020   .     S
C25    H28     1.021   .     S
C25    C45     1.404   .     S
C26    C40     1.400   .     D
C26    C46     1.424   .     S
C26    H51     1.019   1_455 S
C29    C31     1.423   .     S
C29    C56     1.411   1_565 S
C34    C35     1.411   .     D
C34    C36     1.396   .     S
C35    H47     1.024   .     S
C36    N37     1.343   .     D
C38    C39     1.400   .     S
C38    H42     1.023   .     S
C39    C46     1.421   .     D
C39    H54     1.020   .     S
C40    H43     1.021   .     S
C41    H55     1.019   .     S
C44    C15     1.411   1_455 S
C44    C46     1.423   .     S
C44    C52     1.412   1_565 D
H51    C26     1.019   1_655 S
C52    C44     1.412   1_545 D
C52    H53     1.012   .     S
C56    C12     1.412   1_655 D
C56    C29     1.411   1_545 S
C56    H57     1.012   .     S
