data_411
_audit_creation_date              2023-09-08
_audit_creation_method            'Materials Studio'
_symmetry_space_group_name_H-M    'P1'
_symmetry_Int_Tables_number       1
_symmetry_cell_setting            triclinic
loop_
_symmetry_equiv_pos_as_xyz
  x,y,z
_cell_length_a                    18.5500
_cell_length_b                    18.5500
_cell_length_c                    3.7000
_cell_angle_alpha                 90.0000
_cell_angle_beta                  90.0000
_cell_angle_gamma                 120.0000
loop_
_atom_site_label
_atom_site_type_symbol
_atom_site_fract_x
_atom_site_fract_y
_atom_site_fract_z
_atom_site_U_iso_or_equiv
_atom_site_adp_type
_atom_site_occupancy
C1     C     0.61301   0.24617   0.50000   0.00000  Uiso   1.00
C2     C     0.69925   0.27962   0.50000   0.00000  Uiso   1.00
C3     C     0.49177   0.27269   0.50000   0.00000  Uiso   1.00
N4     N     0.43854   0.19543   0.50000   0.00000  Uiso   1.00
C5     C     0.35198   0.15972   0.50000   0.00000  Uiso   1.00
C6     C     0.30635   0.07398   0.50000   0.00000  Uiso   1.00
C7     C     0.22104   0.03443   0.50000   0.00000  Uiso   1.00
C8     C     0.17941   0.08095   0.50000   0.00000  Uiso   1.00
C9     C     0.22816   0.16862   0.50000   0.00000  Uiso   1.00
C10    C     0.31300   0.20734   0.50000   0.00000  Uiso   1.00
C11    C     0.08726   0.03942   0.50000   0.00000  Uiso   1.00
C12    C     0.04674   0.08544   0.50000   0.00000  Uiso   1.00
H13    H     0.47117   0.31734   0.50000   0.00000  Uiso   1.00
H14    H     0.33737   0.03760   0.50000   0.00000  Uiso   1.00
H15    H     0.19147   0.96780   0.50000   0.00000  Uiso   1.00
H16    H     0.20478   0.21105   0.50000   0.00000  Uiso   1.00
H17    H     0.34591   0.27440   0.50000   0.00000  Uiso   1.00
H18    H     0.08199   0.15058   0.50000   0.00000  Uiso   1.00
C19    C     0.75383   0.36684   0.50000   0.00000  Uiso   1.00
C20    C     0.72038   0.41963   0.50000   0.00000  Uiso   1.00
O21    O     0.56486   0.15835   0.50000   0.00000  Uiso   1.00
C22    C     0.72731   0.21908   0.50000   0.00000  Uiso   1.00
N23    N     0.80457   0.24311   0.50000   0.00000  Uiso   1.00
C24    C     0.84028   0.19226   0.50000   0.00000  Uiso   1.00
C25    C     0.92602   0.23237   0.50000   0.00000  Uiso   1.00
C26    C     0.96557   0.18661   0.50000   0.00000  Uiso   1.00
C27    C     0.91905   0.09846   0.50000   0.00000  Uiso   1.00
C28    C     0.83138   0.05954   0.50000   0.00000  Uiso   1.00
C29    C     0.79266   0.10566   0.50000   0.00000  Uiso   1.00
C30    C     0.96058   0.04784   0.50000   0.00000  Uiso   1.00
C31    C     0.91456   0.96130   0.50000   0.00000  Uiso   1.00
H32    H     0.50283   0.12455   0.50000   0.00000  Uiso   1.00
H33    H     0.68266   0.15383   0.50000   0.00000  Uiso   1.00
H34    H     0.96240   0.29977   0.50000   0.00000  Uiso   1.00
H35    H     0.03220   0.22367   0.50000   0.00000  Uiso   1.00
H36    H     0.78895   0.99373   0.50000   0.00000  Uiso   1.00
H37    H     0.72560   0.07151   0.50000   0.00000  Uiso   1.00
H38    H     0.84942   0.93141   0.50000   0.00000  Uiso   1.00
C39    C     0.63316   0.38699   0.50000   0.00000  Uiso   1.00
C40    C     0.58037   0.30075   0.50000   0.00000  Uiso   1.00
C41    C     0.78092   0.50823   0.50000   0.00000  Uiso   1.00
N42    N     0.75689   0.56146   0.50000   0.00000  Uiso   1.00
C43    C     0.80774   0.64802   0.50000   0.00000  Uiso   1.00
C44    C     0.76763   0.69365   0.50000   0.00000  Uiso   1.00
C45    C     0.81339   0.77896   0.50000   0.00000  Uiso   1.00
C46    C     0.90154   0.82059   0.50000   0.00000  Uiso   1.00
C47    C     0.94046   0.77184   0.50000   0.00000  Uiso   1.00
C48    C     0.89434   0.68700   0.50000   0.00000  Uiso   1.00
C49    C     0.95216   0.91274   0.50000   0.00000  Uiso   1.00
C50    C     0.03870   0.95326   0.50000   0.00000  Uiso   1.00
H51    H     0.84617   0.52883   0.50000   0.00000  Uiso   1.00
H52    H     0.70023   0.66263   0.50000   0.00000  Uiso   1.00
H53    H     0.77633   0.80853   0.50000   0.00000  Uiso   1.00
H54    H     0.00627   0.79522   0.50000   0.00000  Uiso   1.00
H55    H     0.92849   0.65409   0.50000   0.00000  Uiso   1.00
H56    H     0.06859   0.91801   0.50000   0.00000  Uiso   1.00
H57    H     0.82075   0.39280   0.50000   0.00000  Uiso   1.00
H58    H     0.60720   0.42795   0.50000   0.00000  Uiso   1.00
loop_
_geom_bond_atom_site_label_1
_geom_bond_atom_site_label_2
_geom_bond_distance
_geom_bond_site_symmetry_2
_ccdc_geom_bond_type
C1     C2      1.397   .     D
C1     O21     1.413   .     S
C1     C40     1.416   .     S
C2     C19     1.416   .     S
C2     C22     1.455   .     S
C3     N4      1.270   .     D
C3     H13     1.072   .     S
C3     C40     1.455   .     S
N4     C5      1.398   .     S
C5     C6      1.378   .     S
C5     C10     1.394   .     D
C6     C7      1.372   .     D
C6     H14     1.084   .     S
C7     C8      1.417   .     S
C7     H15     1.073   1_545 S
C8     C9      1.411   .     D
C8     C11     1.483   .     S
C9     C10     1.365   .     S
C9     H16     1.072   .     S
C10    H17     1.077   .     S
C11    C12     1.391   .     S
C11    C50     1.388   1_545 D
C12    H18     1.048   .     S
C12    C30     1.388   1_455 D
H15    C7      1.073   1_565 S
C19    C20     1.397   .     D
C19    H57     1.084   .     S
C20    C39     1.416   .     S
C20    C41     1.455   .     S
O21    H32     0.998   .     S
C22    N23     1.270   .     D
C22    H33     1.072   .     S
N23    C24     1.398   .     S
C24    C25     1.378   .     D
C24    C29     1.394   .     S
C25    C26     1.372   .     S
C25    H34     1.084   .     S
C26    C27     1.417   .     D
C26    H35     1.073   1_655 S
C27    C28     1.411   .     S
C27    C30     1.483   .     S
C28    C29     1.365   .     D
C28    H36     1.072   1_545 S
C29    H37     1.077   .     S
C30    C12     1.388   1_655 D
C30    C31     1.391   1_545 S
C31    C30     1.391   1_565 S
C31    H38     1.048   .     S
C31    C49     1.388   .     D
H35    C26     1.073   1_455 S
H36    C28     1.072   1_565 S
C39    C40     1.397   .     D
C39    H58     1.084   .     S
C41    N42     1.270   .     D
C41    H51     1.072   .     S
N42    C43     1.398   .     S
C43    C44     1.378   .     D
C43    C48     1.394   .     S
C44    C45     1.372   .     S
C44    H52     1.084   .     S
C45    C46     1.417   .     D
C45    H53     1.073   .     S
C46    C47     1.411   .     S
C46    C49     1.483   .     S
C47    C48     1.365   .     D
C47    H54     1.072   1_655 S
C48    H55     1.077   .     S
C49    C50     1.391   1_655 S
C50    C49     1.391   1_455 S
C50    C11     1.388   1_565 D
C50    H56     1.048   .     S
H54    C47     1.072   1_455 S
