data_412
_audit_creation_date              2023-09-08
_audit_creation_method            'Materials Studio'
_symmetry_space_group_name_H-M    'P1'
_symmetry_Int_Tables_number       1
_symmetry_cell_setting            triclinic
loop_
_symmetry_equiv_pos_as_xyz
  x,y,z
_cell_length_a                    37.5250
_cell_length_b                    37.5250
_cell_length_c                    5.4230
_cell_angle_alpha                 90.0000
_cell_angle_beta                  90.0000
_cell_angle_gamma                 120.0000
loop_
_atom_site_label
_atom_site_type_symbol
_atom_site_fract_x
_atom_site_fract_y
_atom_site_fract_z
_atom_site_U_iso_or_equiv
_atom_site_adp_type
_atom_site_occupancy
C1     C     0.70945   0.35938   0.35342   0.00000  Uiso   1.00
C2     C     0.68339   0.37609   0.35411   0.00000  Uiso   1.00
C3     C     0.75308   0.38595   0.32300   0.00000  Uiso   1.00
C4     C     0.78934   0.40806   0.28550   0.00000  Uiso   1.00
C5     C     0.83219   0.43428   0.22716   0.00000  Uiso   1.00
C6     C     0.84536   0.47267   0.11999   0.00000  Uiso   1.00
C7     C     0.88654   0.49798   0.04152   0.00000  Uiso   1.00
C8     C     0.91371   0.48188   0.06280   0.00000  Uiso   1.00
C9     C     0.90077   0.44406   0.18776   0.00000  Uiso   1.00
C10    C     0.85989   0.42042   0.26475   0.00000  Uiso   1.00
C11    C     0.90003   0.53997  -0.08484   0.00000  Uiso   1.00
C12    C     0.87092   0.55703  -0.02335   0.00000  Uiso   1.00
C13    C     0.89916   0.53404  -0.36537   0.00000  Uiso   1.00
C14    C     0.94403   0.57333  -0.00564   0.00000  Uiso   1.00
C15    C     0.92850   0.42759   0.23817   0.00000  Uiso   1.00
N16    N     0.96635   0.45149   0.30722   0.00000  Uiso   1.00
C17    C     0.99428   0.43599   0.36341   0.00000  Uiso   1.00
O18    O     0.95197   0.50232  -0.05479   0.00000  Uiso   1.00
H19    H     0.69634   0.40917   0.34465   0.00000  Uiso   1.00
H20    H     0.82253   0.48181   0.09464   0.00000  Uiso   1.00
H21    H     0.84945   0.39083   0.35236   0.00000  Uiso   1.00
H22    H     0.86703   0.55796   0.17906   0.00000  Uiso   1.00
H23    H     0.84024   0.53839  -0.11063   0.00000  Uiso   1.00
H24    H     0.88326   0.58874  -0.09628   0.00000  Uiso   1.00
H25    H     0.86759   0.51111  -0.42585   0.00000  Uiso   1.00
H26    H     0.92034   0.52295  -0.42273   0.00000  Uiso   1.00
H27    H     0.90845   0.56360  -0.46075   0.00000  Uiso   1.00
H28    H     0.96801   0.57122  -0.11320   0.00000  Uiso   1.00
H29    H     0.94925   0.57081   0.19321   0.00000  Uiso   1.00
H30    H     0.94972   0.60493  -0.04035   0.00000  Uiso   1.00
H31    H     0.91579   0.39452   0.23344   0.00000  Uiso   1.00
H32    H     0.02247   0.45259   0.24892   0.00000  Uiso   1.00
H33    H     0.97988   0.40270   0.31752   0.00000  Uiso   1.00
H34    H     0.96491   0.48482  -0.08861   0.00000  Uiso   1.00
C35    C     0.64062   0.35007   0.35342   0.00000  Uiso   1.00
C36    C     0.62391   0.30730   0.35411   0.00000  Uiso   1.00
C37    C     0.61405   0.36713   0.32300   0.00000  Uiso   1.00
C38    C     0.59194   0.38128   0.28550   0.00000  Uiso   1.00
C39    C     0.56572   0.39791   0.22716   0.00000  Uiso   1.00
C40    C     0.52733   0.37269   0.11999   0.00000  Uiso   1.00
C41    C     0.50202   0.38856   0.04152   0.00000  Uiso   1.00
C42    C     0.51812   0.43183   0.06280   0.00000  Uiso   1.00
C43    C     0.55594   0.45671   0.18776   0.00000  Uiso   1.00
C44    C     0.57958   0.43947   0.26475   0.00000  Uiso   1.00
C45    C     0.46003   0.36006  -0.08484   0.00000  Uiso   1.00
C46    C     0.44297   0.31389  -0.02335   0.00000  Uiso   1.00
C47    C     0.46596   0.36512  -0.36537   0.00000  Uiso   1.00
C48    C     0.42667   0.37070  -0.00564   0.00000  Uiso   1.00
C49    C     0.57241   0.50091   0.23817   0.00000  Uiso   1.00
N50    N     0.54851   0.51486   0.30722   0.00000  Uiso   1.00
C51    C     0.56401   0.55829   0.36341   0.00000  Uiso   1.00
O52    O     0.49768   0.44965  -0.05479   0.00000  Uiso   1.00
H53    H     0.59083   0.28717   0.34465   0.00000  Uiso   1.00
H54    H     0.51819   0.34072   0.09464   0.00000  Uiso   1.00
H55    H     0.60917   0.45862   0.35236   0.00000  Uiso   1.00
H56    H     0.44204   0.30907   0.17906   0.00000  Uiso   1.00
H57    H     0.46161   0.30185  -0.11063   0.00000  Uiso   1.00
H58    H     0.41126   0.29452  -0.09628   0.00000  Uiso   1.00
H59    H     0.48889   0.35648  -0.42585   0.00000  Uiso   1.00
H60    H     0.47705   0.39739  -0.42273   0.00000  Uiso   1.00
H61    H     0.43640   0.34485  -0.46075   0.00000  Uiso   1.00
H62    H     0.42878   0.39679  -0.11320   0.00000  Uiso   1.00
H63    H     0.42919   0.37844   0.19321   0.00000  Uiso   1.00
H64    H     0.39507   0.34479  -0.04035   0.00000  Uiso   1.00
H65    H     0.60548   0.52127   0.23344   0.00000  Uiso   1.00
H66    H     0.54741   0.56988   0.24892   0.00000  Uiso   1.00
H67    H     0.59730   0.57718   0.31752   0.00000  Uiso   1.00
H68    H     0.51518   0.48009  -0.08861   0.00000  Uiso   1.00
C69    C     0.64993   0.29055   0.35342   0.00000  Uiso   1.00
C70    C     0.69270   0.31661   0.35411   0.00000  Uiso   1.00
C71    C     0.63287   0.24692   0.32300   0.00000  Uiso   1.00
C72    C     0.61872   0.21066   0.28550   0.00000  Uiso   1.00
C73    C     0.60209   0.16781   0.22716   0.00000  Uiso   1.00
C74    C     0.62731   0.15464   0.11999   0.00000  Uiso   1.00
C75    C     0.61144   0.11346   0.04152   0.00000  Uiso   1.00
C76    C     0.56817   0.08629   0.06280   0.00000  Uiso   1.00
C77    C     0.54329   0.09923   0.18776   0.00000  Uiso   1.00
C78    C     0.56053   0.14011   0.26475   0.00000  Uiso   1.00
C79    C     0.63994   0.09997  -0.08484   0.00000  Uiso   1.00
C80    C     0.68611   0.12908  -0.02335   0.00000  Uiso   1.00
C81    C     0.63488   0.10084  -0.36537   0.00000  Uiso   1.00
C82    C     0.62930   0.05597  -0.00564   0.00000  Uiso   1.00
C83    C     0.49909   0.07150   0.23817   0.00000  Uiso   1.00
N84    N     0.48514   0.03365   0.30722   0.00000  Uiso   1.00
C85    C     0.44171   0.00572   0.36341   0.00000  Uiso   1.00
O86    O     0.55035   0.04803  -0.05479   0.00000  Uiso   1.00
H87    H     0.71283   0.30366   0.34465   0.00000  Uiso   1.00
H88    H     0.65928   0.17747   0.09464   0.00000  Uiso   1.00
H89    H     0.54138   0.15055   0.35236   0.00000  Uiso   1.00
H90    H     0.69093   0.13297   0.17906   0.00000  Uiso   1.00
H91    H     0.69815   0.15976  -0.11063   0.00000  Uiso   1.00
H92    H     0.70548   0.11674  -0.09628   0.00000  Uiso   1.00
H93    H     0.64352   0.13241  -0.42585   0.00000  Uiso   1.00
H94    H     0.60261   0.07966  -0.42273   0.00000  Uiso   1.00
H95    H     0.65515   0.09155  -0.46075   0.00000  Uiso   1.00
H96    H     0.60321   0.03199  -0.11320   0.00000  Uiso   1.00
H97    H     0.62156   0.05075   0.19321   0.00000  Uiso   1.00
H98    H     0.65521   0.05028  -0.04035   0.00000  Uiso   1.00
H99    H     0.47873   0.08421   0.23344   0.00000  Uiso   1.00
H100   H     0.43012   0.97753   0.24892   0.00000  Uiso   1.00
H101   H     0.42282   0.02012   0.31752   0.00000  Uiso   1.00
H102   H     0.51991   0.03509  -0.08861   0.00000  Uiso   1.00
C103   C     0.35938   0.70945   0.64658   0.00000  Uiso   1.00
C104   C     0.37609   0.68339   0.64589   0.00000  Uiso   1.00
C105   C     0.38595   0.75308   0.67700   0.00000  Uiso   1.00
C106   C     0.40806   0.78934   0.71450   0.00000  Uiso   1.00
C107   C     0.43428   0.83219   0.77284   0.00000  Uiso   1.00
C108   C     0.47267   0.84536   0.88001   0.00000  Uiso   1.00
C109   C     0.49798   0.88654   0.95848   0.00000  Uiso   1.00
C110   C     0.48188   0.91371   0.93720   0.00000  Uiso   1.00
C111   C     0.44406   0.90077   0.81224   0.00000  Uiso   1.00
C112   C     0.42042   0.85989   0.73525   0.00000  Uiso   1.00
C113   C     0.53997   0.90003   1.08484   0.00000  Uiso   1.00
C114   C     0.55703   0.87092   1.02335   0.00000  Uiso   1.00
C115   C     0.53404   0.89916   1.36537   0.00000  Uiso   1.00
C116   C     0.57333   0.94403   1.00564   0.00000  Uiso   1.00
C117   C     0.42759   0.92850   0.76183   0.00000  Uiso   1.00
N118   N     0.45149   0.96635   0.69278   0.00000  Uiso   1.00
C119   C     0.43599   0.99428   0.63659   0.00000  Uiso   1.00
O120   O     0.50232   0.95197   1.05479   0.00000  Uiso   1.00
H121   H     0.40917   0.69634   0.65535   0.00000  Uiso   1.00
H122   H     0.48181   0.82253   0.90536   0.00000  Uiso   1.00
H123   H     0.39083   0.84945   0.64764   0.00000  Uiso   1.00
H124   H     0.55796   0.86703   0.82094   0.00000  Uiso   1.00
H125   H     0.53839   0.84024   1.11063   0.00000  Uiso   1.00
H126   H     0.58874   0.88326   1.09628   0.00000  Uiso   1.00
H127   H     0.51111   0.86759   1.42585   0.00000  Uiso   1.00
H128   H     0.52295   0.92034   1.42273   0.00000  Uiso   1.00
H129   H     0.56360   0.90845   1.46075   0.00000  Uiso   1.00
H130   H     0.57122   0.96801   1.11320   0.00000  Uiso   1.00
H131   H     0.57081   0.94925   0.80679   0.00000  Uiso   1.00
H132   H     0.60493   0.94972   1.04035   0.00000  Uiso   1.00
H133   H     0.39452   0.91579   0.76656   0.00000  Uiso   1.00
H134   H     0.45259   0.02247   0.75108   0.00000  Uiso   1.00
H135   H     0.40270   0.97988   0.68248   0.00000  Uiso   1.00
H136   H     0.48482   0.96491   1.08861   0.00000  Uiso   1.00
C137   C     0.35007   0.64062   0.64658   0.00000  Uiso   1.00
C138   C     0.30730   0.62391   0.64589   0.00000  Uiso   1.00
C139   C     0.36713   0.61405   0.67700   0.00000  Uiso   1.00
C140   C     0.38128   0.59194   0.71450   0.00000  Uiso   1.00
C141   C     0.39791   0.56572   0.77284   0.00000  Uiso   1.00
C142   C     0.37269   0.52733   0.88001   0.00000  Uiso   1.00
C143   C     0.38856   0.50202   0.95848   0.00000  Uiso   1.00
C144   C     0.43183   0.51812   0.93720   0.00000  Uiso   1.00
C145   C     0.45671   0.55594   0.81224   0.00000  Uiso   1.00
C146   C     0.43947   0.57958   0.73525   0.00000  Uiso   1.00
C147   C     0.36006   0.46003   1.08484   0.00000  Uiso   1.00
C148   C     0.31389   0.44297   1.02335   0.00000  Uiso   1.00
C149   C     0.36512   0.46596   1.36537   0.00000  Uiso   1.00
C150   C     0.37070   0.42667   1.00564   0.00000  Uiso   1.00
C151   C     0.50091   0.57241   0.76183   0.00000  Uiso   1.00
N152   N     0.51486   0.54851   0.69278   0.00000  Uiso   1.00
C153   C     0.55829   0.56401   0.63659   0.00000  Uiso   1.00
O154   O     0.44965   0.49768   1.05479   0.00000  Uiso   1.00
H155   H     0.28717   0.59083   0.65535   0.00000  Uiso   1.00
H156   H     0.34072   0.51819   0.90536   0.00000  Uiso   1.00
H157   H     0.45862   0.60917   0.64764   0.00000  Uiso   1.00
H158   H     0.30907   0.44204   0.82094   0.00000  Uiso   1.00
H159   H     0.30185   0.46161   1.11063   0.00000  Uiso   1.00
H160   H     0.29452   0.41126   1.09628   0.00000  Uiso   1.00
H161   H     0.35648   0.48889   1.42585   0.00000  Uiso   1.00
H162   H     0.39739   0.47705   1.42273   0.00000  Uiso   1.00
H163   H     0.34485   0.43640   1.46075   0.00000  Uiso   1.00
H164   H     0.39679   0.42878   1.11320   0.00000  Uiso   1.00
H165   H     0.37844   0.42919   0.80679   0.00000  Uiso   1.00
H166   H     0.34479   0.39507   1.04035   0.00000  Uiso   1.00
H167   H     0.52127   0.60548   0.76656   0.00000  Uiso   1.00
H168   H     0.56988   0.54741   0.75108   0.00000  Uiso   1.00
H169   H     0.57718   0.59730   0.68248   0.00000  Uiso   1.00
H170   H     0.48009   0.51518   1.08861   0.00000  Uiso   1.00
C171   C     0.29055   0.64993   0.64658   0.00000  Uiso   1.00
C172   C     0.31661   0.69270   0.64589   0.00000  Uiso   1.00
C173   C     0.24692   0.63287   0.67700   0.00000  Uiso   1.00
C174   C     0.21066   0.61872   0.71450   0.00000  Uiso   1.00
C175   C     0.16781   0.60209   0.77284   0.00000  Uiso   1.00
C176   C     0.15464   0.62731   0.88001   0.00000  Uiso   1.00
C177   C     0.11346   0.61144   0.95848   0.00000  Uiso   1.00
C178   C     0.08629   0.56817   0.93720   0.00000  Uiso   1.00
C179   C     0.09923   0.54329   0.81224   0.00000  Uiso   1.00
C180   C     0.14011   0.56053   0.73525   0.00000  Uiso   1.00
C181   C     0.09997   0.63994   1.08484   0.00000  Uiso   1.00
C182   C     0.12908   0.68611   1.02335   0.00000  Uiso   1.00
C183   C     0.10084   0.63488   1.36537   0.00000  Uiso   1.00
C184   C     0.05597   0.62930   1.00564   0.00000  Uiso   1.00
C185   C     0.07150   0.49909   0.76183   0.00000  Uiso   1.00
N186   N     0.03365   0.48514   0.69278   0.00000  Uiso   1.00
C187   C     0.00572   0.44171   0.63659   0.00000  Uiso   1.00
O188   O     0.04803   0.55035   1.05479   0.00000  Uiso   1.00
H189   H     0.30366   0.71283   0.65535   0.00000  Uiso   1.00
H190   H     0.17747   0.65928   0.90536   0.00000  Uiso   1.00
H191   H     0.15055   0.54138   0.64764   0.00000  Uiso   1.00
H192   H     0.13297   0.69093   0.82094   0.00000  Uiso   1.00
H193   H     0.15976   0.69815   1.11063   0.00000  Uiso   1.00
H194   H     0.11674   0.70548   1.09628   0.00000  Uiso   1.00
H195   H     0.13241   0.64352   1.42585   0.00000  Uiso   1.00
H196   H     0.07966   0.60261   1.42273   0.00000  Uiso   1.00
H197   H     0.09155   0.65515   1.46075   0.00000  Uiso   1.00
H198   H     0.03199   0.60321   1.11320   0.00000  Uiso   1.00
H199   H     0.05075   0.62156   0.80679   0.00000  Uiso   1.00
H200   H     0.05028   0.65521   1.04035   0.00000  Uiso   1.00
H201   H     0.08421   0.47873   0.76656   0.00000  Uiso   1.00
H202   H     0.97753   0.43012   0.75108   0.00000  Uiso   1.00
H203   H     0.02012   0.42282   0.68248   0.00000  Uiso   1.00
H204   H     0.03509   0.51991   1.08861   0.00000  Uiso   1.00
loop_
_geom_bond_atom_site_label_1
_geom_bond_atom_site_label_2
_geom_bond_distance
_geom_bond_site_symmetry_2
_ccdc_geom_bond_type
C1     C2      1.401   .     D
C1     C3      1.439   .     S
C1     C70     1.401   .     S
C2     H19     1.085   .     S
C2     C35     1.401   .     S
C3     C4      1.205   .     T
C4     C5      1.439   .     S
C5     C6      1.395   .     D
C5     C10     1.390   .     S
C6     C7      1.415   .     S
C6     H20     1.079   .     S
C7     C8      1.426   .     D
C7     C11     1.553   .     S
C8     C9      1.421   .     S
C8     O18     1.398   .     S
C9     C10     1.398   .     D
C9     C15     1.477   .     S
C10    H21     1.085   .     S
C11    C12     1.554   .     S
C11    C13     1.535   .     S
C11    C14     1.553   .     S
C12    H22     1.110   .     S
C12    H23     1.111   .     S
C12    H24     1.112   .     S
C13    H25     1.110   .     S
C13    H26     1.110   .     S
C13    H27     1.110   .     S
C14    H28     1.108   .     S
C14    H29     1.108   .     S
C14    H30     1.111   .     S
C15    N16     1.299   .     D
C15    H31     1.085   .     S
N16    C17     1.463   .     S
C17    H32     1.111   1_655 S
C17    H33     1.113   .     S
C17    C187    1.527   1_655 S
O18    H34     1.010   .     S
H32    C17     1.111   1_455 S
C35    C36     1.401   .     D
C35    C37     1.439   .     S
C36    H53     1.085   .     S
C36    C69     1.401   .     S
C37    C38     1.205   .     T
C38    C39     1.439   .     S
C39    C40     1.395   .     D
C39    C44     1.390   .     S
C40    C41     1.415   .     S
C40    H54     1.079   .     S
C41    C42     1.426   .     D
C41    C45     1.553   .     S
C42    C43     1.421   .     S
C42    O52     1.398   .     S
C43    C44     1.398   .     D
C43    C49     1.477   .     S
C44    H55     1.085   .     S
C45    C46     1.554   .     S
C45    C47     1.535   .     S
C45    C48     1.553   .     S
C46    H56     1.110   .     S
C46    H57     1.111   .     S
C46    H58     1.112   .     S
C47    H59     1.110   .     S
C47    H60     1.110   .     S
C47    H61     1.110   .     S
C48    H62     1.108   .     S
C48    H63     1.108   .     S
C48    H64     1.111   .     S
C49    N50     1.299   .     D
C49    H65     1.085   .     S
N50    C51     1.463   .     S
C51    H66     1.111   .     S
C51    H67     1.113   .     S
C51    C153    1.527   .     S
O52    H68     1.010   .     S
C69    C70     1.401   .     D
C69    C71     1.439   .     S
C70    H87     1.085   .     S
C71    C72     1.205   .     T
C72    C73     1.439   .     S
C73    C74     1.395   .     D
C73    C78     1.390   .     S
C74    C75     1.415   .     S
C74    H88     1.079   .     S
C75    C76     1.426   .     D
C75    C79     1.553   .     S
C76    C77     1.421   .     S
C76    O86     1.398   .     S
C77    C78     1.398   .     D
C77    C83     1.477   .     S
C78    H89     1.085   .     S
C79    C80     1.554   .     S
C79    C81     1.535   .     S
C79    C82     1.553   .     S
C80    H90     1.110   .     S
C80    H91     1.111   .     S
C80    H92     1.112   .     S
C81    H93     1.110   .     S
C81    H94     1.110   .     S
C81    H95     1.110   .     S
C82    H96     1.108   .     S
C82    H97     1.108   .     S
C82    H98     1.111   .     S
C83    N84     1.299   .     D
C83    H99     1.085   .     S
N84    C85     1.463   .     S
C85    H100    1.111   1_545 S
C85    H101    1.113   .     S
C85    C119    1.527   1_545 S
O86    H102    1.010   .     S
H100   C85     1.111   1_565 S
C103   C104    1.401   .     D
C103   C105    1.439   .     S
C103   C172    1.401   .     S
C104   H121    1.085   .     S
C104   C137    1.401   .     S
C105   C106    1.205   .     T
C106   C107    1.439   .     S
C107   C108    1.395   .     D
C107   C112    1.390   .     S
C108   C109    1.415   .     S
C108   H122    1.079   .     S
C109   C110    1.426   .     D
C109   C113    1.553   .     S
C110   C111    1.421   .     S
C110   O120    1.398   .     S
C111   C112    1.398   .     D
C111   C117    1.477   .     S
C112   H123    1.085   .     S
C113   C114    1.554   .     S
C113   C115    1.535   .     S
C113   C116    1.553   .     S
C114   H124    1.110   .     S
C114   H125    1.111   .     S
C114   H126    1.112   .     S
C115   H127    1.110   .     S
C115   H128    1.110   .     S
C115   H129    1.110   .     S
C116   H130    1.108   .     S
C116   H131    1.108   .     S
C116   H132    1.111   .     S
C117   N118    1.299   .     D
C117   H133    1.085   .     S
N118   C119    1.463   .     S
C119   C85     1.527   1_565 S
C119   H134    1.111   1_565 S
C119   H135    1.113   .     S
O120   H136    1.010   .     S
H134   C119    1.111   1_545 S
C137   C138    1.401   .     D
C137   C139    1.439   .     S
C138   H155    1.085   .     S
C138   C171    1.401   .     S
C139   C140    1.205   .     T
C140   C141    1.439   .     S
C141   C142    1.395   .     D
C141   C146    1.390   .     S
C142   C143    1.415   .     S
C142   H156    1.079   .     S
C143   C144    1.426   .     D
C143   C147    1.553   .     S
C144   C145    1.421   .     S
C144   O154    1.398   .     S
C145   C146    1.398   .     D
C145   C151    1.477   .     S
C146   H157    1.085   .     S
C147   C148    1.554   .     S
C147   C149    1.535   .     S
C147   C150    1.553   .     S
C148   H158    1.110   .     S
C148   H159    1.111   .     S
C148   H160    1.112   .     S
C149   H161    1.110   .     S
C149   H162    1.110   .     S
C149   H163    1.110   .     S
C150   H164    1.108   .     S
C150   H165    1.108   .     S
C150   H166    1.111   .     S
C151   N152    1.299   .     D
C151   H167    1.085   .     S
N152   C153    1.463   .     S
C153   H168    1.111   .     S
C153   H169    1.113   .     S
O154   H170    1.010   .     S
C171   C172    1.401   .     D
C171   C173    1.439   .     S
C172   H189    1.085   .     S
C173   C174    1.205   .     T
C174   C175    1.439   .     S
C175   C176    1.395   .     D
C175   C180    1.390   .     S
C176   C177    1.415   .     S
C176   H190    1.079   .     S
C177   C178    1.426   .     D
C177   C181    1.553   .     S
C178   C179    1.421   .     S
C178   O188    1.398   .     S
C179   C180    1.398   .     D
C179   C185    1.477   .     S
C180   H191    1.085   .     S
C181   C182    1.554   .     S
C181   C183    1.535   .     S
C181   C184    1.553   .     S
C182   H192    1.110   .     S
C182   H193    1.111   .     S
C182   H194    1.112   .     S
C183   H195    1.110   .     S
C183   H196    1.110   .     S
C183   H197    1.110   .     S
C184   H198    1.108   .     S
C184   H199    1.108   .     S
C184   H200    1.111   .     S
C185   N186    1.299   .     D
C185   H201    1.085   .     S
N186   C187    1.463   .     S
C187   C17     1.527   1_455 S
C187   H202    1.111   1_455 S
C187   H203    1.113   .     S
O188   H204    1.010   .     S
H202   C187    1.111   1_655 S
