data_416
_audit_creation_date              2023-09-08
_audit_creation_method            'Materials Studio'
_symmetry_space_group_name_H-M    'P1'
_symmetry_Int_Tables_number       1
_symmetry_cell_setting            triclinic
loop_
_symmetry_equiv_pos_as_xyz
  x,y,z
_cell_length_a                    21.2500
_cell_length_b                    21.2500
_cell_length_c                    4.6250
_cell_angle_alpha                 90.0000
_cell_angle_beta                  90.0000
_cell_angle_gamma                 120.0000
loop_
_atom_site_label
_atom_site_type_symbol
_atom_site_fract_x
_atom_site_fract_y
_atom_site_fract_z
_atom_site_U_iso_or_equiv
_atom_site_adp_type
_atom_site_occupancy
O1     O     0.32901   0.59528   0.78910   0.00000  Uiso   1.00
O2     O     0.40472   0.73373   0.78910   0.00000  Uiso   1.00
O3     O     0.26627   0.67099   0.78910   0.00000  Uiso   1.00
O4     O     0.40472   0.67099   0.21090   0.00000  Uiso   1.00
O5     O     0.26627   0.59528   0.21090   0.00000  Uiso   1.00
O6     O     0.32901   0.73373   0.21090   0.00000  Uiso   1.00
O7     O     0.67099   0.40472   0.21090   0.00000  Uiso   1.00
O8     O     0.59528   0.26627   0.21090   0.00000  Uiso   1.00
O9     O     0.73373   0.32901   0.21090   0.00000  Uiso   1.00
O10    O     0.59528   0.32901   0.78910   0.00000  Uiso   1.00
O11    O     0.73373   0.40472   0.78910   0.00000  Uiso   1.00
O12    O     0.67099   0.26627   0.78910   0.00000  Uiso   1.00
C13    C     0.37678   0.57476   0.89154   0.00000  Uiso   1.00
C14    C     0.42524   0.80202   0.89154   0.00000  Uiso   1.00
C15    C     0.19798   0.62322   0.89154   0.00000  Uiso   1.00
C16    C     0.42524   0.62322   0.10846   0.00000  Uiso   1.00
C17    C     0.19798   0.57476   0.10846   0.00000  Uiso   1.00
C18    C     0.37678   0.80202   0.10846   0.00000  Uiso   1.00
C19    C     0.62322   0.42524   0.10846   0.00000  Uiso   1.00
C20    C     0.57476   0.19798   0.10846   0.00000  Uiso   1.00
C21    C     0.80202   0.37678   0.10846   0.00000  Uiso   1.00
C22    C     0.57476   0.37678   0.89154   0.00000  Uiso   1.00
C23    C     0.80202   0.42524   0.89154   0.00000  Uiso   1.00
C24    C     0.62322   0.19798   0.89154   0.00000  Uiso   1.00
C25    C     0.38593   0.51966   0.79049   0.00000  Uiso   1.00
C26    C     0.48034   0.86627   0.79049   0.00000  Uiso   1.00
C27    C     0.13373   0.61407   0.79049   0.00000  Uiso   1.00
C28    C     0.48034   0.61407   0.20951   0.00000  Uiso   1.00
C29    C     0.13373   0.51966   0.20951   0.00000  Uiso   1.00
C30    C     0.38593   0.86627   0.20951   0.00000  Uiso   1.00
C31    C     0.61407   0.48034   0.20951   0.00000  Uiso   1.00
C32    C     0.51966   0.13373   0.20951   0.00000  Uiso   1.00
C33    C     0.86627   0.38593   0.20951   0.00000  Uiso   1.00
C34    C     0.51966   0.38593   0.79049   0.00000  Uiso   1.00
C35    C     0.86627   0.48034   0.79049   0.00000  Uiso   1.00
C36    C     0.61407   0.13373   0.79049   0.00000  Uiso   1.00
H37    H     0.35337   0.48782   0.64805   0.00000  Uiso   1.00
H38    H     0.51218   0.86555   0.64805   0.00000  Uiso   1.00
H39    H     0.13445   0.64663   0.64805   0.00000  Uiso   1.00
H40    H     0.51218   0.64663   0.35195   0.00000  Uiso   1.00
H41    H     0.13445   0.48782   0.35195   0.00000  Uiso   1.00
H42    H     0.35337   0.86555   0.35195   0.00000  Uiso   1.00
H43    H     0.64663   0.51218   0.35195   0.00000  Uiso   1.00
H44    H     0.48782   0.13445   0.35195   0.00000  Uiso   1.00
H45    H     0.86555   0.35337   0.35195   0.00000  Uiso   1.00
H46    H     0.48782   0.35337   0.64805   0.00000  Uiso   1.00
H47    H     0.86555   0.51218   0.64805   0.00000  Uiso   1.00
H48    H     0.64663   0.13445   0.64805   0.00000  Uiso   1.00
C49    C     0.44318   0.50814   0.89206   0.00000  Uiso   1.00
C50    C     0.49186   0.93504   0.89206   0.00000  Uiso   1.00
C51    C     0.06496   0.55682   0.89206   0.00000  Uiso   1.00
C52    C     0.49186   0.55682   0.10794   0.00000  Uiso   1.00
C53    C     0.06496   0.50814   0.10794   0.00000  Uiso   1.00
C54    C     0.44318   0.93504   0.10794   0.00000  Uiso   1.00
C55    C     0.55682   0.49186   0.10794   0.00000  Uiso   1.00
C56    C     0.50814   0.06496   0.10794   0.00000  Uiso   1.00
C57    C     0.93504   0.44318   0.10794   0.00000  Uiso   1.00
C58    C     0.50814   0.44318   0.89206   0.00000  Uiso   1.00
C59    C     0.93504   0.49186   0.89206   0.00000  Uiso   1.00
C60    C     0.55682   0.06496   0.89206   0.00000  Uiso   1.00
H61    H     0.42856   0.39108   0.41573   0.00000  Uiso   1.00
H62    H     0.60892   0.03748   0.41573   0.00000  Uiso   1.00
H63    H     0.96252   0.57144   0.41573   0.00000  Uiso   1.00
H64    H     0.60892   0.57144   0.58427   0.00000  Uiso   1.00
H65    H     0.96252   0.39108   0.58427   0.00000  Uiso   1.00
H66    H     0.42856   0.03748   0.58427   0.00000  Uiso   1.00
H67    H     0.57144   0.60892   0.58427   0.00000  Uiso   1.00
H68    H     0.39108   0.96252   0.58427   0.00000  Uiso   1.00
H69    H     0.03748   0.42856   0.58427   0.00000  Uiso   1.00
H70    H     0.39108   0.42856   0.41573   0.00000  Uiso   1.00
H71    H     0.03748   0.60892   0.41573   0.00000  Uiso   1.00
H72    H     0.57144   0.96252   0.41573   0.00000  Uiso   1.00
Li73   Li    0.46143   0.73071   0.50000   0.00000  Uiso   1.00
Li74   Li    0.26928   0.73071   0.50000   0.00000  Uiso   1.00
Li75   Li    0.26928   0.53857   0.50000   0.00000  Uiso   1.00
Li76   Li    0.53857   0.26928   0.50000   0.00000  Uiso   1.00
Li77   Li    0.73071   0.26928   0.50000   0.00000  Uiso   1.00
Li78   Li    0.73071   0.46143   0.50000   0.00000  Uiso   1.00
Si79   Si    0.33333   0.66667   0.00000   0.00000  Uiso   1.00
Si80   Si    0.66667   0.33333   0.00000   0.00000  Uiso   1.00
C81    C     0.45184   0.45184   0.78454   0.00000  Uiso   1.00
C82    C     0.54816  -0.00000   0.78454   0.00000  Uiso   1.00
C83    C     0.00000   0.54816   0.78454   0.00000  Uiso   1.00
C84    C     0.54816   0.54816   0.21546   0.00000  Uiso   1.00
C85    C     0.00000   0.45184   0.21546   0.00000  Uiso   1.00
C86    C     0.45184   0.00000   0.21546   0.00000  Uiso   1.00
C87    C     0.40154   0.40154   0.55403   0.00000  Uiso   1.00
C88    C     0.59846   0.00000   0.55403   0.00000  Uiso   1.00
C89    C     0.00000   0.59846   0.55403   0.00000  Uiso   1.00
C90    C     0.59846   0.59846   0.44597   0.00000  Uiso   1.00
C91    C     0.00000   0.40154   0.44597   0.00000  Uiso   1.00
C92    C     0.40154   0.00000   0.44597   0.00000  Uiso   1.00
H93    H     0.36077   0.36077   0.64245   0.00000  Uiso   1.00
H94    H     0.63923   0.00000   0.64245   0.00000  Uiso   1.00
H95    H     0.00000   0.63923   0.64245   0.00000  Uiso   1.00
H96    H     0.63923   0.63923   0.35755   0.00000  Uiso   1.00
H97    H     0.00000   0.36077   0.35755   0.00000  Uiso   1.00
H98    H     0.36077   0.00000   0.35755   0.00000  Uiso   1.00
loop_
_geom_bond_atom_site_label_1
_geom_bond_atom_site_label_2
_geom_bond_distance
_geom_bond_site_symmetry_2
_ccdc_geom_bond_type
O1     C13     1.374   .     S
O1     Si79    1.767   1_556 S
O2     C14     1.374   .     S
O2     Si79    1.767   1_556 S
O3     C15     1.374   .     S
O3     Si79    1.767   1_556 S
O4     C16     1.374   .     S
O4     Si79    1.767   .     S
O5     C17     1.374   .     S
O5     Si79    1.767   .     S
O6     C18     1.374   .     S
O6     Si79    1.767   .     S
O7     C19     1.374   .     S
O7     Si80    1.767   .     S
O8     C20     1.374   .     S
O8     Si80    1.767   .     S
O9     C21     1.374   .     S
O9     Si80    1.767   .     S
O10    C22     1.374   .     S
O10    Si80    1.767   1_556 S
O11    C23     1.374   .     S
O11    Si80    1.767   1_556 S
O12    C24     1.374   .     S
O12    Si80    1.767   1_556 S
C13    C25     1.362   .     D
C13    C16     1.438   1_556 S
C14    C26     1.362   .     D
C14    C18     1.438   1_556 S
C15    C27     1.362   .     D
C15    C17     1.438   1_556 S
C16    C28     1.362   .     D
C16    C13     1.438   1_554 S
C17    C29     1.362   .     D
C17    C15     1.438   1_554 S
C18    C30     1.362   .     D
C18    C14     1.438   1_554 S
C19    C31     1.362   .     D
C19    C22     1.438   1_554 S
C20    C32     1.362   .     D
C20    C24     1.438   1_554 S
C21    C33     1.362   .     D
C21    C23     1.438   1_554 S
C22    C34     1.362   .     D
C22    C19     1.438   1_556 S
C23    C35     1.362   .     D
C23    C21     1.438   1_556 S
C24    C36     1.362   .     D
C24    C20     1.438   1_556 S
C25    H37     0.950   .     S
C25    C49     1.435   .     S
C26    H38     0.950   .     S
C26    C50     1.435   .     S
C27    H39     0.950   .     S
C27    C51     1.435   .     S
C28    H40     0.950   .     S
C28    C52     1.435   .     S
C29    H41     0.950   .     S
C29    C53     1.435   .     S
C30    H42     0.950   .     S
C30    C54     1.435   .     S
C31    C55     1.435   .     S
C31    H43     0.950   .     S
C32    H44     0.950   .     S
C32    C56     1.435   .     S
C33    H45     0.950   .     S
C33    C57     1.435   .     S
C34    H46     0.950   .     S
C34    C58     1.435   .     S
C35    H47     0.950   .     S
C35    C59     1.435   .     S
C36    H48     0.950   .     S
C36    C60     1.435   .     S
C49    C81     1.390   .     S
C49    C52     1.438   1_556 D
C50    C54     1.438   1_556 S
C50    C82     1.390   1_565 D
C51    C83     1.390   .     S
C51    C53     1.438   1_556 D
C52    C84     1.390   .     S
C52    C49     1.438   1_554 D
C53    C85     1.390   .     S
C53    C51     1.438   1_554 D
C54    C50     1.438   1_554 S
C54    C86     1.390   1_565 D
C55    C84     1.390   .     D
C55    C58     1.438   1_554 S
C56    C86     1.390   .     S
C56    C60     1.438   1_554 D
C57    C59     1.438   1_554 S
C57    C85     1.390   1_655 D
C58    C81     1.390   .     D
C58    C55     1.438   1_556 S
C59    C57     1.438   1_556 S
C59    C83     1.390   1_655 D
C60    C82     1.390   .     S
C60    C56     1.438   1_556 D
H61    C87     0.957   .     S
H62    C88     0.957   .     S
H63    C89     0.957   1_655 S
H64    C90     0.957   .     S
H65    C91     0.957   1_655 S
H66    C92     0.957   .     S
H67    C90     0.957   .     S
H68    C92     0.957   1_565 S
H69    C91     0.957   .     S
H70    C87     0.957   .     S
H71    C89     0.957   .     S
H72    C88     0.957   1_565 S
Si79   O1      1.767   1_554 S
Si79   O2      1.767   1_554 S
Si79   O3      1.767   1_554 S
Si80   O10     1.767   1_554 S
Si80   O11     1.767   1_554 S
Si80   O12     1.767   1_554 S
C81    C87     1.510   .     S
C82    C88     1.510   .     S
C82    C50     1.390   1_545 D
C83    C89     1.510   .     S
C83    C59     1.390   1_455 D
C84    C90     1.510   .     S
C85    C91     1.510   .     S
C85    C57     1.390   1_455 D
C86    C92     1.510   .     S
C86    C54     1.390   1_545 D
C87    H93     0.958   .     S
C88    H94     0.958   .     S
C88    H72     0.957   1_545 S
C89    H95     0.958   .     S
C89    H63     0.957   1_455 S
C90    H96     0.958   .     S
C91    H97     0.958   .     S
C91    H65     0.957   1_455 S
C92    H98     0.958   .     S
C92    H68     0.957   1_545 S
