data_417
_audit_creation_date              2023-09-08
_audit_creation_method            'Materials Studio'
_symmetry_space_group_name_H-M    'P1'
_symmetry_Int_Tables_number       1
_symmetry_cell_setting            triclinic
loop_
_symmetry_equiv_pos_as_xyz
  x,y,z
_cell_length_a                    43.0000
_cell_length_b                    43.0000
_cell_length_c                    4.5000
_cell_angle_alpha                 90.0000
_cell_angle_beta                  90.0000
_cell_angle_gamma                 120.0000
loop_
_atom_site_label
_atom_site_type_symbol
_atom_site_fract_x
_atom_site_fract_y
_atom_site_fract_z
_atom_site_U_iso_or_equiv
_atom_site_adp_type
_atom_site_occupancy
C1     C     0.43530   0.03674   0.52369   0.00000  Uiso   1.00
C2     C     0.50064   0.03036   0.50204   0.00000  Uiso   1.00
C3     C     0.45864   0.06956   0.38016   0.00000  Uiso   1.00
C4     C     0.45903   0.10113   0.45156   0.00000  Uiso   1.00
C5     C     0.43631   0.10209   0.67100   0.00000  Uiso   1.00
C6     C     0.41371   0.06977   0.81887   0.00000  Uiso   1.00
C7     C     0.41406   0.03840   0.75516   0.00000  Uiso   1.00
C8     C     0.53009   0.03606   0.32746   0.00000  Uiso   1.00
C9     C     0.48420   0.95172   0.33083   0.00000  Uiso   1.00
C10    C     0.46424   0.96263   0.50826   0.00000  Uiso   1.00
C11    C     0.44507   0.94052   0.74803   0.00000  Uiso   1.00
C12    C     0.44503   0.90883   0.80129   0.00000  Uiso   1.00
C13    C     0.00290   0.53258   0.55676   0.00000  Uiso   1.00
C14    C     0.00438   0.56550   0.55238   0.00000  Uiso   1.00
C15    C     0.03879   0.60075   0.58181   0.00000  Uiso   1.00
C16    C     0.46421   0.99765   0.46527   0.00000  Uiso   1.00
C17    C     0.56293   0.06700   0.36014   0.00000  Uiso   1.00
C18    C     0.56723   0.09393   0.55809   0.00000  Uiso   1.00
C19    C     0.53821   0.08765   0.74038   0.00000  Uiso   1.00
C20    C     0.50608   0.05579   0.71964   0.00000  Uiso   1.00
N21    N     0.43702   0.13499   0.72276   0.00000  Uiso   1.00
N22    N     0.59994   0.12615   0.55936   0.00000  Uiso   1.00
C23    C     0.41919   0.14585   0.88647   0.00000  Uiso   1.00
C24    C     0.60979   0.15522   0.71292   0.00000  Uiso   1.00
C25    C     0.64436   0.18649   0.64732   0.00000  Uiso   1.00
C26    C     0.42389   0.18160   0.83586   0.00000  Uiso   1.00
C27    C     0.44940   0.20597   0.63298   0.00000  Uiso   1.00
C28    C     0.45253   0.23870   0.57081   0.00000  Uiso   1.00
C29    C     0.43062   0.25062   0.71260   0.00000  Uiso   1.00
C30    C     0.40603   0.22684   0.92867   0.00000  Uiso   1.00
C31    C     0.40309   0.19392   0.98417   0.00000  Uiso   1.00
C32    C     0.66864   0.18479   0.44753   0.00000  Uiso   1.00
C33    C     0.70095   0.21457   0.37657   0.00000  Uiso   1.00
C34    C     0.71238   0.24890   0.50644   0.00000  Uiso   1.00
C35    C     0.68737   0.25024   0.70689   0.00000  Uiso   1.00
C36    C     0.65526   0.22015   0.77763   0.00000  Uiso   1.00
C37    C     0.43281   0.28421   0.63009   0.00000  Uiso   1.00
C38    C     0.74793   0.27972   0.45547   0.00000  Uiso   1.00
C39    C     0.46364   0.31144   0.48108   0.00000  Uiso   1.00
C40    C     0.46472   0.34183   0.37150   0.00000  Uiso   1.00
C41    C     0.43641   0.34894   0.41538   0.00000  Uiso   1.00
C42    C     0.40647   0.32293   0.57444   0.00000  Uiso   1.00
C43    C     0.40447   0.29182   0.67585   0.00000  Uiso   1.00
C44    C     0.77279   0.27860   0.25360   0.00000  Uiso   1.00
C45    C     0.80755   0.30660   0.22699   0.00000  Uiso   1.00
C46    C     0.82085   0.33839   0.39512   0.00000  Uiso   1.00
C47    C     0.79620   0.33980   0.59308   0.00000  Uiso   1.00
C48    C     0.76130   0.31216   0.62064   0.00000  Uiso   1.00
C49    C     0.43946   0.38203   0.30227   0.00000  Uiso   1.00
C50    C     0.85800   0.36739   0.36273   0.00000  Uiso   1.00
N51    N     0.41386   0.38928   0.34784   0.00000  Uiso   1.00
C52    C     0.43340   1.00062   0.45503   0.00000  Uiso   1.00
C53    C     0.39516   0.96816   0.42015   0.00000  Uiso   1.00
C54    C     0.06502   0.60620   0.79196   0.00000  Uiso   1.00
C55    C     0.09560   0.63933   0.81956   0.00000  Uiso   1.00
C56    C     0.10066   0.66852   0.64650   0.00000  Uiso   1.00
C57    C     0.07424   0.66330   0.43927   0.00000  Uiso   1.00
C58    C     0.04381   0.63011   0.40870   0.00000  Uiso   1.00
C59    C     0.36480   0.97270   0.42594   0.00000  Uiso   1.00
C60    C     0.33031   0.94372   0.45187   0.00000  Uiso   1.00
C61    C     0.32382   0.90836   0.45391   0.00000  Uiso   1.00
C62    C     0.35332   0.90382   0.39222   0.00000  Uiso   1.00
C63    C     0.38776   0.93272   0.37077   0.00000  Uiso   1.00
N64    N     0.13161   0.70158   0.67948   0.00000  Uiso   1.00
C65    C     0.13617   0.73265   0.60794   0.00000  Uiso   1.00
C66    C     0.17260   0.76216   0.60912   0.00000  Uiso   1.00
N67    N     0.28901   0.87930   0.50065   0.00000  Uiso   1.00
C68    C     0.28180   0.84734   0.57468   0.00000  Uiso   1.00
C69    C     0.24469   0.81916   0.58887   0.00000  Uiso   1.00
C70    C     0.20134   0.75650   0.67797   0.00000  Uiso   1.00
C71    C     0.23647   0.78418   0.66513   0.00000  Uiso   1.00
C72    C     0.21577   0.82493   0.52940   0.00000  Uiso   1.00
C73    C     0.18066   0.79723   0.53958   0.00000  Uiso   1.00
H74    H     0.47790   0.07180   0.21200   0.00000  Uiso   1.00
H75    H     0.47738   0.12603   0.33067   0.00000  Uiso   1.00
H76    H     0.39482   0.06873   0.98740   0.00000  Uiso   1.00
H77    H     0.39648   0.01459   0.88951   0.00000  Uiso   1.00
H78    H     0.52825   0.01749   0.15427   0.00000  Uiso   1.00
H79    H     0.58522   0.07068   0.21756   0.00000  Uiso   1.00
H80    H     0.54016   0.10769   0.90109   0.00000  Uiso   1.00
H81    H     0.48418   0.05097   0.86924   0.00000  Uiso   1.00
H82    H     0.39843   0.12837   1.04716   0.00000  Uiso   1.00
H83    H     0.59271   0.15821   0.87975   0.00000  Uiso   1.00
H84    H     0.46700   0.19841   0.51313   0.00000  Uiso   1.00
H85    H     0.47111   0.25481   0.39111   0.00000  Uiso   1.00
H86    H     0.38911   0.23458   1.05725   0.00000  Uiso   1.00
C87    C     0.41715   0.42333   0.30826   0.00000  Uiso   1.00
N88    N     0.86854   0.39797   0.49548   0.00000  Uiso   1.00
C89    C     0.90195   0.43035   0.50207   0.00000  Uiso   1.00
C90    C     0.44213   0.44956   0.11433   0.00000  Uiso   1.00
C91    C     0.44762   0.48419   0.11622   0.00000  Uiso   1.00
C92    C     0.42763   0.49387   0.30264   0.00000  Uiso   1.00
C93    C     0.40057   0.46674   0.47784   0.00000  Uiso   1.00
C94    C     0.39571   0.43245   0.47963   0.00000  Uiso   1.00
C95    C     0.93336   0.43522   0.36168   0.00000  Uiso   1.00
C96    C     0.96544   0.46752   0.38165   0.00000  Uiso   1.00
C97    C     0.96759   0.49697   0.53770   0.00000  Uiso   1.00
C98    C     0.93624   0.49178   0.67949   0.00000  Uiso   1.00
C99    C     0.90442   0.45940   0.66465   0.00000  Uiso   1.00
C100   C     0.43287   0.53148   0.31491   0.00000  Uiso   1.00
C101   C     0.39789   0.53132   0.34301   0.00000  Uiso   1.00
C102   C     0.46591   0.56297   0.31241   0.00000  Uiso   1.00
C103   C     0.46954   0.60026   0.34261   0.00000  Uiso   1.00
C104   C     0.50123   0.56266   0.30497   0.00000  Uiso   1.00
C105   C     0.97219   0.57061   0.53004   0.00000  Uiso   1.00
C106   C     0.50606   0.53739   0.46516   0.00000  Uiso   1.00
C107   C     0.53863   0.53824   0.46903   0.00000  Uiso   1.00
C108   C     0.56843   0.56470   0.31264   0.00000  Uiso   1.00
C109   C     0.56347   0.58926   0.14232   0.00000  Uiso   1.00
C110   C     0.53092   0.58857   0.14307   0.00000  Uiso   1.00
C111   C     0.49709   0.62655   0.52091   0.00000  Uiso   1.00
C112   C     0.50001   0.65976   0.56753   0.00000  Uiso   1.00
C113   C     0.47569   0.66870   0.44042   0.00000  Uiso   1.00
C114   C     0.44890   0.64311   0.25417   0.00000  Uiso   1.00
C115   C     0.44586   0.60993   0.20808   0.00000  Uiso   1.00
C116   C     0.39351   0.55361   0.54455   0.00000  Uiso   1.00
C117   C     0.36145   0.55359   0.56024   0.00000  Uiso   1.00
C118   C     0.33208   0.53017   0.38343   0.00000  Uiso   1.00
C119   C     0.33584   0.50662   0.19135   0.00000  Uiso   1.00
C120   C     0.36807   0.50698   0.17424   0.00000  Uiso   1.00
C121   C     0.97201   0.59801   0.69970   0.00000  Uiso   1.00
H122   H     0.38335   0.17702   1.15311   0.00000  Uiso   1.00
H123   H     0.66155   0.15886   0.34304   0.00000  Uiso   1.00
H124   H     0.71769   0.21002   0.21749   0.00000  Uiso   1.00
H125   H     0.69312   0.27531   0.81854   0.00000  Uiso   1.00
H126   H     0.63776   0.22322   0.94043   0.00000  Uiso   1.00
H127   H     0.48697   0.30771   0.45132   0.00000  Uiso   1.00
H128   H     0.48886   0.36139   0.25039   0.00000  Uiso   1.00
H129   H     0.38380   0.32723   0.62206   0.00000  Uiso   1.00
H130   H     0.37969   0.27281   0.79109   0.00000  Uiso   1.00
H131   H     0.76534   0.25545   0.10824   0.00000  Uiso   1.00
H132   H     0.82507   0.30318   0.06709   0.00000  Uiso   1.00
H133   H     0.80489   0.36333   0.73783   0.00000  Uiso   1.00
H134   H     0.74511   0.31593   0.79068   0.00000  Uiso   1.00
H135   H     0.46539   0.40137   0.20161   0.00000  Uiso   1.00
H136   H     0.87576   0.36202   0.22241   0.00000  Uiso   1.00
H137   H     0.45830   0.44306  -0.03570   0.00000  Uiso   1.00
H138   H     0.46862   0.50413  -0.02580   0.00000  Uiso   1.00
H139   H     0.38351   0.47222   0.62552   0.00000  Uiso   1.00
H140   H     0.37564   0.41239   0.62974   0.00000  Uiso   1.00
H141   H     0.93315   0.41316   0.23596   0.00000  Uiso   1.00
H142   H     0.98910   0.46918   0.27488   0.00000  Uiso   1.00
H143   H     0.93605   0.51333   0.80601   0.00000  Uiso   1.00
H144   H     0.88091   0.45725   0.78175   0.00000  Uiso   1.00
H145   H     0.48415   0.51631   0.59294   0.00000  Uiso   1.00
H146   H     0.54077   0.51745   0.59500   0.00000  Uiso   1.00
H147   H     0.58587   0.61025   0.01295   0.00000  Uiso   1.00
H148   H     0.52964   0.60960   0.01806   0.00000  Uiso   1.00
H149   H     0.51660   0.62131   0.63331   0.00000  Uiso   1.00
H150   H     0.52148   0.67894   0.71498   0.00000  Uiso   1.00
H151   H     0.42949   0.64863   0.14115   0.00000  Uiso   1.00
H152   H     0.42319   0.59138   0.07002   0.00000  Uiso   1.00
H153   H     0.41578   0.57197   0.68642   0.00000  Uiso   1.00
H154   H     0.35934   0.57234   0.71378   0.00000  Uiso   1.00
H155   H     0.31337   0.48769   0.05142   0.00000  Uiso   1.00
H156   H     0.37004   0.48794   0.02465   0.00000  Uiso   1.00
C157   C     0.94347   0.60410   0.68622   0.00000  Uiso   1.00
C158   C     0.91349   0.58283   0.50865   0.00000  Uiso   1.00
C159   C     0.91421   0.55624   0.33127   0.00000  Uiso   1.00
C160   C     0.94322   0.55058   0.33778   0.00000  Uiso   1.00
N161   N     0.30012   0.53085   0.40545   0.00000  Uiso   1.00
N162   N     0.47921   0.70258   0.49553   0.00000  Uiso   1.00
N163   N     0.60178   0.56592   0.33554   0.00000  Uiso   1.00
C164   C     0.26931   0.51193   0.27835   0.00000  Uiso   1.00
C165   C     0.24095   0.51795   0.38123   0.00000  Uiso   1.00
C166   C     0.45750   0.71028   0.63560   0.00000  Uiso   1.00
C167   C     0.46651   0.74764   0.65258   0.00000  Uiso   1.00
C168   C     0.63307   0.58802   0.22266   0.00000  Uiso   1.00
C169   C     0.66425   0.58485   0.30268   0.00000  Uiso   1.00
N170   N     0.88384   0.58836   0.51507   0.00000  Uiso   1.00
C171   C     0.85072   0.56215   0.51324   0.00000  Uiso   1.00
C172   C     0.82076   0.56894   0.51463   0.00000  Uiso   1.00
C173   C     0.82394   0.60311   0.49066   0.00000  Uiso   1.00
C174   C     0.79424   0.60736   0.47673   0.00000  Uiso   1.00
C175   C     0.75859   0.57721   0.48685   0.00000  Uiso   1.00
C176   C     0.75564   0.54291   0.52935   0.00000  Uiso   1.00
C177   C     0.78569   0.53933   0.53739   0.00000  Uiso   1.00
C178   C     0.66366   0.56031   0.51450   0.00000  Uiso   1.00
C179   C     0.69363   0.55748   0.57130   0.00000  Uiso   1.00
C180   C     0.72736   0.58038   0.43074   0.00000  Uiso   1.00
C181   C     0.72799   0.60567   0.22145   0.00000  Uiso   1.00
C182   C     0.69744   0.60737   0.16243   0.00000  Uiso   1.00
C183   C     0.24738   0.54226   0.61446   0.00000  Uiso   1.00
C184   C     0.22108   0.54898   0.71356   0.00000  Uiso   1.00
C185   C     0.18656   0.53163   0.58915   0.00000  Uiso   1.00
C186   C     0.18015   0.50763   0.35325   0.00000  Uiso   1.00
C187   C     0.20638   0.50044   0.25581   0.00000  Uiso   1.00
C188   C     0.49636   0.77504   0.50123   0.00000  Uiso   1.00
C189   C     0.50360   0.81013   0.49526   0.00000  Uiso   1.00
C190   C     0.48154   0.82054   0.64523   0.00000  Uiso   1.00
C191   C     0.45333   0.79379   0.81585   0.00000  Uiso   1.00
H192   H     0.99378   0.61478   0.85424   0.00000  Uiso   1.00
H193   H     0.94424   0.62549   0.82367   0.00000  Uiso   1.00
H194   H     0.89151   0.53968   0.18330   0.00000  Uiso   1.00
H195   H     0.94288   0.52971   0.19735   0.00000  Uiso   1.00
H196   H     0.26353   0.49140   0.10737   0.00000  Uiso   1.00
H197   H     0.43220   0.68989   0.73893   0.00000  Uiso   1.00
H198   H     0.63771   0.60989   0.06912   0.00000  Uiso   1.00
H199   H     0.84356   0.53373   0.50776   0.00000  Uiso   1.00
H200   H     0.85075   0.62715   0.47221   0.00000  Uiso   1.00
H201   H     0.79822   0.63443   0.44253   0.00000  Uiso   1.00
H202   H     0.72892   0.51866   0.52971   0.00000  Uiso   1.00
H203   H     0.78161   0.51209   0.55995   0.00000  Uiso   1.00
H204   H     0.63903   0.54274   0.64131   0.00000  Uiso   1.00
H205   H     0.69156   0.53744   0.73398   0.00000  Uiso   1.00
H206   H     0.75293   0.62286   0.09702   0.00000  Uiso   1.00
H207   H     0.69935   0.62697  -0.00470   0.00000  Uiso   1.00
H208   H     0.27342   0.55649   0.73088   0.00000  Uiso   1.00
H209   H     0.22756   0.56783   0.89872   0.00000  Uiso   1.00
H210   H     0.15410   0.49455   0.23733   0.00000  Uiso   1.00
H211   H     0.19944   0.48117   0.07219   0.00000  Uiso   1.00
H212   H     0.51398   0.76875   0.36857   0.00000  Uiso   1.00
H213   H     0.52629   0.82916   0.35705   0.00000  Uiso   1.00
H214   H     0.43562   0.80057   0.94211   0.00000  Uiso   1.00
H215   H     0.42215   0.73905   0.95041   0.00000  Uiso   1.00
H216   H     0.16717   0.56436   0.80911   0.00000  Uiso   1.00
H217   H     0.51342   0.87586   0.49447   0.00000  Uiso   1.00
H218   H     0.12383   0.56791   0.35229   0.00000  Uiso   1.00
H219   H     0.07324   0.57630   0.31457   0.00000  Uiso   1.00
H220   H     0.01108   0.48261   0.88021   0.00000  Uiso   1.00
H221   H     0.06415   0.47640   0.93145   0.00000  Uiso   1.00
H222   H     0.50053   0.91250   0.25036   0.00000  Uiso   1.00
H223   H     0.49866   0.96648   0.13178   0.00000  Uiso   1.00
H224   H     0.42949   0.94784   0.89684   0.00000  Uiso   1.00
H225   H     0.42893   0.89168   0.98503   0.00000  Uiso   1.00
H226   H     0.06163   0.58430   0.93560   0.00000  Uiso   1.00
C227   C     0.44563   0.75838   0.81797   0.00000  Uiso   1.00
C228   C     0.15901   0.53834   0.70188   0.00000  Uiso   1.00
N229   N     0.12609   0.51459   0.64514   0.00000  Uiso   1.00
C230   C     0.48866   0.85719   0.61420   0.00000  Uiso   1.00
C231   C     0.09729   0.52086   0.63890   0.00000  Uiso   1.00
N232   N     0.46508   0.86585   0.70078   0.00000  Uiso   1.00
C233   C     0.46558   0.89826   0.63293   0.00000  Uiso   1.00
C234   C     0.09905   0.54921   0.47182   0.00000  Uiso   1.00
C235   C     0.06944   0.55352   0.44888   0.00000  Uiso   1.00
C236   C     0.03660   0.52956   0.58846   0.00000  Uiso   1.00
C237   C     0.03561   0.50201   0.76535   0.00000  Uiso   1.00
C238   C     0.06544   0.49800   0.79155   0.00000  Uiso   1.00
C239   C     0.48512   0.92059   0.39450   0.00000  Uiso   1.00
H240   H     0.11596   0.64278   0.98301   0.00000  Uiso   1.00
H241   H     0.07781   0.68572   0.29888   0.00000  Uiso   1.00
H242   H     0.02360   0.62740   0.24685   0.00000  Uiso   1.00
H243   H     0.36682   0.99916   0.41971   0.00000  Uiso   1.00
H244   H     0.30804   0.94901   0.48297   0.00000  Uiso   1.00
H245   H     0.35008   0.87696   0.36851   0.00000  Uiso   1.00
H246   H     0.40802   0.92524   0.32117   0.00000  Uiso   1.00
H247   H     0.11446   0.73721   0.53001   0.00000  Uiso   1.00
H248   H     0.30252   0.84011   0.62185   0.00000  Uiso   1.00
H249   H     0.19623   0.72952   0.74045   0.00000  Uiso   1.00
H250   H     0.25761   0.77765   0.71679   0.00000  Uiso   1.00
H251   H     0.22028   0.85162   0.46948   0.00000  Uiso   1.00
H252   H     0.15915   0.80318   0.48844   0.00000  Uiso   1.00
loop_
_geom_bond_atom_site_label_1
_geom_bond_atom_site_label_2
_geom_bond_distance
_geom_bond_site_symmetry_2
_ccdc_geom_bond_type
C1     C3      1.414   .     D
C1     C7      1.410   .     S
C1     C52     1.545   1_545 S
C2     C8      1.404   .     D
C2     C16     1.502   1_545 S
C2     C20     1.398   .     S
C3     C4      1.387   .     S
C3     H74     1.090   .     S
C4     C5      1.404   .     D
C4     H75     1.105   .     S
C5     C6      1.403   .     S
C5     N21     1.419   .     S
C6     C7      1.386   .     D
C6     H76     1.096   .     S
C7     H77     1.101   .     S
C8     C17     1.381   .     S
C8     H78     1.090   .     S
C9     C10     1.413   .     D
C9     H223    1.094   .     S
C9     C239    1.389   .     S
C10    C11     1.401   .     S
C10    C16     1.519   .     S
C11    C12     1.383   .     D
C11    H224    1.099   .     S
C12    H225    1.094   .     S
C12    C233    1.401   .     S
C13    C14     1.385   .     D
C13    C97     1.527   1_455 S
C13    C236    1.525   .     S
C14    C15     1.504   .     S
C14    C105    1.509   1_455 S
C15    C54     1.399   .     D
C15    C58     1.405   .     S
C16    C2      1.502   1_565 S
C16    C52     1.394   .     D
C17    C18     1.398   .     D
C17    H79     1.097   .     S
C18    C19     1.402   .     S
C18    N22     1.396   .     S
C19    C20     1.379   .     D
C19    H80     1.096   .     S
C20    H81     1.090   .     S
N21    C23     1.306   .     D
N22    C24     1.300   .     D
C23    C26     1.465   .     S
C23    H82     1.102   .     S
C24    C25     1.451   .     S
C24    H83     1.102   .     S
C25    C32     1.407   .     D
C25    C36     1.407   .     S
C26    C27     1.409   .     D
C26    C31     1.414   .     S
C27    C28     1.374   .     S
C27    H84     1.102   .     S
C28    C29     1.428   .     D
C28    H85     1.104   .     S
C29    C30     1.424   .     S
C29    C37     1.448   .     S
C30    C31     1.380   .     D
C30    H86     1.103   .     S
C31    H122    1.100   .     S
C32    C33     1.376   .     S
C32    H123    1.103   .     S
C33    C34     1.427   .     D
C33    H124    1.100   .     S
C34    C35     1.427   .     S
C34    C38     1.456   .     S
C35    C36     1.377   .     D
C35    H125    1.100   .     S
C36    H126    1.104   .     S
C37    C39     1.423   .     D
C37    C43     1.426   .     S
C38    C44     1.422   .     D
C38    C48     1.424   .     S
C39    C40     1.376   .     S
C39    H127    1.100   .     S
C40    C41     1.409   .     D
C40    H128    1.099   .     S
C41    C42     1.407   .     S
C41    C49     1.454   .     S
C42    C43     1.375   .     D
C42    H129    1.100   .     S
C43    H130    1.096   .     S
C44    C45     1.378   .     S
C44    H131    1.097   .     S
C45    C46     1.409   .     D
C45    H132    1.104   .     S
C46    C47     1.409   .     S
C46    C50     1.462   .     S
C47    C48     1.377   .     D
C47    H133    1.100   .     S
C48    H134    1.100   .     S
C49    N51     1.302   .     D
C49    H135    1.101   .     S
C50    N88     1.302   .     D
C50    H136    1.101   .     S
N51    C87     1.410   .     S
C52    C1      1.545   1_565 S
C52    C53     1.543   .     S
C53    C59     1.413   .     D
C53    C63     1.410   .     S
C54    C55     1.379   .     S
C54    H226    1.090   .     S
C55    C56     1.399   .     D
C55    H240    1.095   .     S
C56    C57     1.398   .     S
C56    N64     1.386   .     S
C57    C58     1.379   .     D
C57    H241    1.097   .     S
C58    H242    1.095   .     S
C59    C60     1.385   .     S
C59    H243    1.097   .     S
C60    C61     1.402   .     D
C60    H244    1.098   .     S
C61    C62     1.404   .     S
C61    N67     1.406   .     S
C62    C63     1.381   .     D
C62    H245    1.097   .     S
C63    H246    1.092   .     S
N64    C65     1.290   .     D
C65    C66     1.441   .     S
C65    H247    1.103   .     S
C66    C70     1.408   .     D
C66    C73     1.403   .     S
N67    C68     1.292   .     D
C68    C69     1.444   .     S
C68    H248    1.101   .     S
C69    C71     1.405   .     D
C69    C72     1.410   .     S
C70    C71     1.380   .     S
C70    H249    1.104   .     S
C71    H250    1.102   .     S
C72    C73     1.379   .     D
C72    H251    1.098   .     S
C73    H252    1.100   .     S
C87    C90     1.406   .     D
C87    C94     1.400   .     S
N88    C89     1.415   .     S
C89    C95     1.409   .     D
C89    C99     1.405   .     S
C90    C91     1.386   .     S
C90    H137    1.101   .     S
C91    C92     1.405   .     D
C91    H138    1.088   .     S
C92    C93     1.407   .     S
C92    C100    1.518   .     S
C93    C94     1.382   .     D
C93    H139    1.099   .     S
C94    H140    1.096   .     S
C95    C96     1.387   .     S
C95    H141    1.101   .     S
C96    C97     1.410   .     D
C96    H142    1.095   .     S
C97    C13     1.527   1_655 S
C97    C98     1.405   .     S
C98    C99     1.382   .     D
C98    H143    1.091   .     S
C99    H144    1.102   .     S
C100   C101    1.506   .     S
C100   C102    1.389   .     D
C101   C116    1.399   .     D
C101   C120    1.405   .     S
C102   C103    1.537   .     S
C102   C104    1.526   .     S
C103   C111    1.409   .     D
C103   C115    1.414   .     S
C104   C106    1.403   .     D
C104   C110    1.407   .     S
C105   C14     1.509   1_655 S
C105   C121    1.407   .     D
C105   C160    1.403   .     S
C106   C107    1.383   .     S
C106   H145    1.089   .     S
C107   C108    1.405   .     D
C107   H146    1.101   .     S
C108   C109    1.405   .     S
C108   N163    1.412   .     S
C109   C110    1.385   .     D
C109   H147    1.101   .     S
C110   H148    1.089   .     S
C111   C112    1.386   .     S
C111   H149    1.095   .     S
C112   C113    1.404   .     D
C112   H150    1.101   .     S
C113   C114    1.405   .     S
C113   N162    1.409   .     S
C114   C115    1.382   .     D
C114   H151    1.100   .     S
C115   H152    1.093   .     S
C116   C117    1.380   .     S
C116   H153    1.092   .     S
C117   C118    1.404   .     D
C117   H154    1.099   .     S
C118   C119    1.401   .     S
C118   N161    1.393   .     S
C119   C120    1.380   .     D
C119   H155    1.098   .     S
C120   H156    1.095   .     S
C121   C157    1.378   .     S
C121   H192    1.098   .     S
C157   C158    1.399   .     D
C157   H193    1.095   .     S
C158   C159    1.407   .     S
C158   N170    1.409   .     S
C159   C160    1.386   .     D
C159   H194    1.099   .     S
C160   H195    1.092   .     S
N161   C164    1.291   .     D
N162   C166    1.299   .     D
N163   C168    1.301   .     D
C164   C165    1.444   .     S
C164   H196    1.102   .     S
C165   C183    1.408   .     D
C165   C187    1.406   .     S
C166   C167    1.454   .     S
C166   H197    1.102   .     S
C167   C188    1.410   .     D
C167   C227    1.410   .     S
C168   C169    1.459   .     S
C168   H198    1.102   .     S
C169   C178    1.413   .     D
C169   C182    1.411   .     S
N170   C171    1.301   .     D
C171   C172    1.456   .     S
C171   H199    1.101   .     S
C172   C173    1.410   .     D
C172   C177    1.409   .     S
C173   C174    1.379   .     S
C173   H200    1.101   .     S
C174   C175    1.430   .     D
C174   H201    1.099   .     S
C175   C176    1.429   .     S
C175   C180    1.438   .     S
C176   C177    1.376   .     D
C176   H202    1.100   .     S
C177   H203    1.099   .     S
C178   C179    1.378   .     S
C178   H204    1.104   .     S
C179   C180    1.430   .     D
C179   H205    1.100   .     S
C180   C181    1.429   .     S
C181   C182    1.378   .     D
C181   H206    1.103   .     S
C182   H207    1.102   .     S
C183   C184    1.374   .     S
C183   H208    1.103   .     S
C184   C185    1.402   .     D
C184   H209    1.097   .     S
C185   C186    1.408   .     S
C185   C228    1.444   .     S
C186   C187    1.382   .     D
C186   H210    1.101   .     S
C187   H211    1.101   .     S
C188   C189    1.380   .     S
C188   H212    1.099   .     S
C189   C190    1.407   .     D
C189   H213    1.100   .     S
C190   C191    1.410   .     S
C190   C230    1.454   .     S
C191   H214    1.100   .     S
C191   C227    1.387   .     D
H215   C227    1.107   .     S
H216   C228    1.102   .     S
H217   C230    1.102   .     S
H218   C234    1.102   .     S
H219   C235    1.092   .     S
H220   C237    1.093   .     S
H221   C238    1.100   .     S
H222   C239    1.101   .     S
C228   N229    1.291   .     D
N229   C231    1.393   .     S
C230   N232    1.302   .     D
C231   C234    1.402   .     D
C231   C238    1.403   .     S
N232   C233    1.416   .     S
C233   C239    1.404   .     D
C234   C235    1.379   .     S
C235   C236    1.413   .     D
C236   C237    1.410   .     S
C237   C238    1.382   .     D
