data_418
_audit_creation_date              2023-09-08
_audit_creation_method            'Materials Studio'
_symmetry_space_group_name_H-M    'P1'
_symmetry_Int_Tables_number       1
_symmetry_cell_setting            triclinic
loop_
_symmetry_equiv_pos_as_xyz
  x,y,z
_cell_length_a                    51.5000
_cell_length_b                    51.5000
_cell_length_c                    4.5000
_cell_angle_alpha                 90.0000
_cell_angle_beta                  90.0000
_cell_angle_gamma                 120.0000
loop_
_atom_site_label
_atom_site_type_symbol
_atom_site_fract_x
_atom_site_fract_y
_atom_site_fract_z
_atom_site_U_iso_or_equiv
_atom_site_adp_type
_atom_site_occupancy
C1     C     0.44043   0.20778   0.63969   0.00000  Uiso   1.00
C2     C     0.44441   0.23658   0.71766   0.00000  Uiso   1.00
C3     C     0.47296   0.26345   0.68106   0.00000  Uiso   1.00
C4     C     0.47567   0.29125   0.69137   0.00000  Uiso   1.00
C5     C     0.45026   0.29481   0.74199   0.00000  Uiso   1.00
C6     C     0.42240   0.26815   0.80405   0.00000  Uiso   1.00
C7     C     0.41951   0.24030   0.79016   0.00000  Uiso   1.00
C8     C     0.45185   0.32326   0.69198   0.00000  Uiso   1.00
C9     C     0.47160   0.34422   0.47675   0.00000  Uiso   1.00
C10    C     0.47093   0.36995   0.41330   0.00000  Uiso   1.00
C11    C     0.45132   0.37747   0.55645   0.00000  Uiso   1.00
C12    C     0.43209   0.35721   0.77235   0.00000  Uiso   1.00
C13    C     0.43234   0.33133   0.83807   0.00000  Uiso   1.00
C14    C     0.45215   0.40509   0.47246   0.00000  Uiso   1.00
N15    N     0.43746   0.41510   0.62310   0.00000  Uiso   1.00
C16    C     0.43931   0.44306   0.57430   0.00000  Uiso   1.00
C17    C     0.11433   0.69781   0.39537   0.00000  Uiso   1.00
C18    C     0.14454   0.72361   0.41336   0.00000  Uiso   1.00
C19    C     0.32042   0.88059   0.57532   0.00000  Uiso   1.00
C20    C     0.29034   0.85487   0.53930   0.00000  Uiso   1.00
N21    N     0.59230   0.09860   0.32710   0.00000  Uiso   1.00
C22    C     0.59600   0.12364   0.43519   0.00000  Uiso   1.00
C23    C     0.62582   0.14972   0.46618   0.00000  Uiso   1.00
N24    N     0.89441   0.41436   0.55902   0.00000  Uiso   1.00
C25    C     0.88601   0.38977   0.40933   0.00000  Uiso   1.00
C26    C     0.85655   0.36356   0.45816   0.00000  Uiso   1.00
C27    C     0.65249   0.15065   0.37626   0.00000  Uiso   1.00
C28    C     0.68005   0.17613   0.40688   0.00000  Uiso   1.00
C29    C     0.68324   0.20320   0.52927   0.00000  Uiso   1.00
C30    C     0.65618   0.20184   0.62472   0.00000  Uiso   1.00
C31    C     0.62879   0.17611   0.59333   0.00000  Uiso   1.00
C32    C     0.83459   0.36351   0.64628   0.00000  Uiso   1.00
C33    C     0.46168   0.46540   0.39419   0.00000  Uiso   1.00
C34    C     0.46348   0.49288   0.36011   0.00000  Uiso   1.00
C35    C     0.44265   0.49927   0.49634   0.00000  Uiso   1.00
C36    C     0.42022   0.47675   0.67427   0.00000  Uiso   1.00
C37    C     0.41880   0.44947   0.71415   0.00000  Uiso   1.00
C38    C     0.44421   0.52948   0.46780   0.00000  Uiso   1.00
C39    C     0.41420   0.52832   0.45438   0.00000  Uiso   1.00
C40    C     0.47111   0.55627   0.47171   0.00000  Uiso   1.00
C41    C     0.47395   0.58688   0.45364   0.00000  Uiso   1.00
C42    C     0.50078   0.55756   0.50473   0.00000  Uiso   1.00
C43    C     0.50505   0.53968   0.71056   0.00000  Uiso   1.00
C44    C     0.53207   0.54009   0.72566   0.00000  Uiso   1.00
C45    C     0.55640   0.55969   0.54688   0.00000  Uiso   1.00
C46    C     0.55233   0.57840   0.34945   0.00000  Uiso   1.00
C47    C     0.52515   0.57754   0.33003   0.00000  Uiso   1.00
C48    C     0.49550   0.61007   0.63074   0.00000  Uiso   1.00
C49    C     0.49872   0.63833   0.62289   0.00000  Uiso   1.00
C50    C     0.48047   0.64481   0.44208   0.00000  Uiso   1.00
C51    C     0.45907   0.62158   0.26173   0.00000  Uiso   1.00
C52    C     0.45625   0.59339   0.26507   0.00000  Uiso   1.00
C53    C     0.40935   0.54924   0.60828   0.00000  Uiso   1.00
C54    C     0.38200   0.54808   0.60134   0.00000  Uiso   1.00
C55    C     0.35807   0.52580   0.43680   0.00000  Uiso   1.00
C56    C     0.36261   0.50459   0.28386   0.00000  Uiso   1.00
C57    C     0.38999   0.50565   0.29405   0.00000  Uiso   1.00
N58    N     0.33054   0.52522   0.43839   0.00000  Uiso   1.00
N59    N     0.48352   0.67361   0.45303   0.00000  Uiso   1.00
N60    N     0.58369   0.55971   0.55604   0.00000  Uiso   1.00
C61    C     0.30449   0.50527   0.33866   0.00000  Uiso   1.00
C62    C     0.27898   0.50935   0.39415   0.00000  Uiso   1.00
C63    C     0.46122   0.67854   0.41708   0.00000  Uiso   1.00
C64    C     0.46495   0.70835   0.45119   0.00000  Uiso   1.00
C65    C     0.60991   0.58160   0.48165   0.00000  Uiso   1.00
C66    C     0.63517   0.57653   0.46319   0.00000  Uiso   1.00
C67    C     0.79089   0.55666   0.44894   0.00000  Uiso   1.00
C68    C     0.80647   0.33871   0.67791   0.00000  Uiso   1.00
C69    C     0.79847   0.31090   0.53218   0.00000  Uiso   1.00
C70    C     0.82132   0.31101   0.34929   0.00000  Uiso   1.00
C71    C     0.84872   0.33644   0.31068   0.00000  Uiso   1.00
C72    C     0.17076   0.72169   0.38107   0.00000  Uiso   1.00
C73    C     0.19897   0.74660   0.39948   0.00000  Uiso   1.00
C74    C     0.20303   0.77584   0.45108   0.00000  Uiso   1.00
C75    C     0.17635   0.77756   0.48606   0.00000  Uiso   1.00
C76    C     0.14843   0.75229   0.47055   0.00000  Uiso   1.00
C77    C     0.26570   0.85648   0.42504   0.00000  Uiso   1.00
C78    C     0.23783   0.83133   0.39088   0.00000  Uiso   1.00
C79    C     0.23228   0.80221   0.47546   0.00000  Uiso   1.00
C80    C     0.25728   0.80080   0.59373   0.00000  Uiso   1.00
C81    C     0.28493   0.82617   0.62222   0.00000  Uiso   1.00
C82    C     0.71191   0.23049   0.54978   0.00000  Uiso   1.00
C83    C     0.76947   0.28449   0.55785   0.00000  Uiso   1.00
C84    C     0.73906   0.22980   0.59054   0.00000  Uiso   1.00
C85    C     0.76640   0.25541   0.59397   0.00000  Uiso   1.00
C86    C     0.74209   0.28526   0.52437   0.00000  Uiso   1.00
C87    C     0.71476   0.25951   0.51900   0.00000  Uiso   1.00
H88    H     0.49231   0.26103   0.61741   0.00000  Uiso   1.00
H89    H     0.49722   0.31145   0.63813   0.00000  Uiso   1.00
H90    H     0.40192   0.26955   0.83047   0.00000  Uiso   1.00
H91    H     0.39716   0.22047   0.81951   0.00000  Uiso   1.00
H92    H     0.48689   0.33962   0.34568   0.00000  Uiso   1.00
H93    H     0.48657   0.38478   0.24208   0.00000  Uiso   1.00
H94    H     0.41621   0.36169   0.89353   0.00000  Uiso   1.00
H95    H     0.41694   0.31653   1.00971   0.00000  Uiso   1.00
H96    H     0.46652   0.41701   0.28131   0.00000  Uiso   1.00
H97    H     0.47880   0.46203   0.28181   0.00000  Uiso   1.00
H98    H     0.48230   0.50929   0.22754   0.00000  Uiso   1.00
H99    H     0.40350   0.48033   0.78788   0.00000  Uiso   1.00
H100   H     0.40123   0.43266   0.85849   0.00000  Uiso   1.00
H101   H     0.48614   0.52461   0.85008   0.00000  Uiso   1.00
H102   H     0.53444   0.52478   0.87837   0.00000  Uiso   1.00
C103   C     0.76470   0.55979   0.44143   0.00000  Uiso   1.00
C104   C     0.76591   0.58685   0.53410   0.00000  Uiso   1.00
C105   C     0.74097   0.58975   0.53075   0.00000  Uiso   1.00
C106   C     0.71254   0.56575   0.43723   0.00000  Uiso   1.00
C107   C     0.71123   0.53842   0.34824   0.00000  Uiso   1.00
C108   C     0.73637   0.53572   0.34549   0.00000  Uiso   1.00
C109   C     0.63270   0.54829   0.50801   0.00000  Uiso   1.00
C110   C     0.65725   0.54452   0.49485   0.00000  Uiso   1.00
C111   C     0.68645   0.56915   0.43434   0.00000  Uiso   1.00
C112   C     0.68864   0.59753   0.38023   0.00000  Uiso   1.00
C113   C     0.66377   0.60082   0.39534   0.00000  Uiso   1.00
C114   C     0.28002   0.53144   0.58773   0.00000  Uiso   1.00
C115   C     0.25575   0.53546   0.62444   0.00000  Uiso   1.00
C116   C     0.22834   0.51704   0.47271   0.00000  Uiso   1.00
C117   C     0.22697   0.49406   0.28555   0.00000  Uiso   1.00
C118   C     0.25163   0.49068   0.24911   0.00000  Uiso   1.00
C119   C     0.49279   0.73496   0.47812   0.00000  Uiso   1.00
C120   C     0.49486   0.76259   0.51088   0.00000  Uiso   1.00
C121   C     0.46869   0.76566   0.52016   0.00000  Uiso   1.00
C122   C     0.44062   0.73856   0.48859   0.00000  Uiso   1.00
C123   C     0.43919   0.71133   0.45851   0.00000  Uiso   1.00
C124   C     0.20424   0.52338   0.48699   0.00000  Uiso   1.00
C125   C     0.46979   0.79365   0.57496   0.00000  Uiso   1.00
C126   C     0.21030   0.55336   0.53185   0.00000  Uiso   1.00
C127   C     0.18818   0.56050   0.49793   0.00000  Uiso   1.00
C128   C     0.15885   0.53865   0.42188   0.00000  Uiso   1.00
C129   C     0.15224   0.50878   0.39311   0.00000  Uiso   1.00
C130   C     0.17403   0.50106   0.42569   0.00000  Uiso   1.00
C131   C     0.49013   0.81476   0.78725   0.00000  Uiso   1.00
C132   C     0.49036   0.84115   0.84445   0.00000  Uiso   1.00
C133   C     0.47129   0.84914   0.69506   0.00000  Uiso   1.00
C134   C     0.45110   0.82840   0.48793   0.00000  Uiso   1.00
C135   C     0.44984   0.80158   0.43090   0.00000  Uiso   1.00
C136   C     0.41651   0.18727   0.45129   0.00000  Uiso   1.00
C137   C     0.41664   0.16302   0.32612   0.00000  Uiso   1.00
H138   H     0.57074   0.59374   0.20370   0.00000  Uiso   1.00
H139   H     0.52292   0.59227   0.16986   0.00000  Uiso   1.00
H140   H     0.50960   0.60621   0.78666   0.00000  Uiso   1.00
H141   H     0.51558   0.65552   0.76909   0.00000  Uiso   1.00
H142   H     0.44431   0.62553   0.11451   0.00000  Uiso   1.00
H143   H     0.43934   0.57580   0.12512   0.00000  Uiso   1.00
H144   H     0.42710   0.56694   0.74010   0.00000  Uiso   1.00
H145   H     0.37953   0.56529   0.72335   0.00000  Uiso   1.00
H146   H     0.34410   0.48654   0.15769   0.00000  Uiso   1.00
H147   H     0.39187   0.48804   0.17773   0.00000  Uiso   1.00
H148   H     0.30033   0.48487   0.21950   0.00000  Uiso   1.00
H149   H     0.43822   0.66051   0.37021   0.00000  Uiso   1.00
H150   H     0.61432   0.60423   0.42486   0.00000  Uiso   1.00
H151   H     0.78711   0.60581   0.61435   0.00000  Uiso   1.00
H152   H     0.74346   0.61115   0.60706   0.00000  Uiso   1.00
H153   H     0.68967   0.51945   0.27379   0.00000  Uiso   1.00
H154   H     0.73515   0.51502   0.26284   0.00000  Uiso   1.00
H155   H     0.61066   0.52843   0.55297   0.00000  Uiso   1.00
H156   H     0.65450   0.52240   0.54609   0.00000  Uiso   1.00
H157   H     0.71063   0.61699   0.32664   0.00000  Uiso   1.00
H158   H     0.66653   0.62315   0.35389   0.00000  Uiso   1.00
H159   H     0.30037   0.54626   0.71572   0.00000  Uiso   1.00
H160   H     0.25802   0.55345   0.77361   0.00000  Uiso   1.00
H161   H     0.20697   0.48002   0.15112   0.00000  Uiso   1.00
H162   H     0.24912   0.47301   0.09446   0.00000  Uiso   1.00
H163   H     0.51344   0.73356   0.47201   0.00000  Uiso   1.00
H164   H     0.51724   0.78248   0.53616   0.00000  Uiso   1.00
H165   H     0.41963   0.73916   0.50891   0.00000  Uiso   1.00
H166   H     0.41679   0.69143   0.44099   0.00000  Uiso   1.00
H167   H     0.23324   0.57186   0.57023   0.00000  Uiso   1.00
H168   H     0.19448   0.58411   0.52502   0.00000  Uiso   1.00
H169   H     0.12919   0.49111   0.34054   0.00000  Uiso   1.00
H170   H     0.16775   0.47753   0.38780   0.00000  Uiso   1.00
H171   H     0.50497   0.80949   0.91818   0.00000  Uiso   1.00
H172   H     0.50620   0.85620   1.01344   0.00000  Uiso   1.00
C173   C     0.43920   0.15603   0.39165   0.00000  Uiso   1.00
C174   C     0.46196   0.17511   0.59126   0.00000  Uiso   1.00
C175   C     0.46268   0.20002   0.71039   0.00000  Uiso   1.00
C176   C     0.78839   0.52821   0.50380   0.00000  Uiso   1.00
C177   C     0.81334   0.52520   0.51168   0.00000  Uiso   1.00
C178   C     0.84231   0.54986   0.47438   0.00000  Uiso   1.00
C179   C     0.84516   0.57816   0.42073   0.00000  Uiso   1.00
C180   C     0.82038   0.58167   0.40679   0.00000  Uiso   1.00
C181   C     0.13646   0.54718   0.37475   0.00000  Uiso   1.00
C182   C     0.47254   0.87754   0.75235   0.00000  Uiso   1.00
N183   N     0.11017   0.52701   0.28536   0.00000  Uiso   1.00
C184   C     0.08512   0.53056   0.29535   0.00000  Uiso   1.00
N185   N     0.45633   0.88494   0.59072   0.00000  Uiso   1.00
C186   C     0.45711   0.91246   0.56606   0.00000  Uiso   1.00
C187   C     0.43794   0.12984   0.25650   0.00000  Uiso   1.00
N188   N     0.45920   0.12403   0.31209   0.00000  Uiso   1.00
C189   C     0.45849   0.09670   0.27575   0.00000  Uiso   1.00
C190   C     0.86699   0.54402   0.49323   0.00000  Uiso   1.00
N191   N     0.89393   0.56574   0.54255   0.00000  Uiso   1.00
C192   C     0.91879   0.56151   0.54042   0.00000  Uiso   1.00
C193   C     0.08355   0.55121   0.48622   0.00000  Uiso   1.00
C194   C     0.05707   0.55144   0.51603   0.00000  Uiso   1.00
C195   C     0.03135   0.53214   0.35242   0.00000  Uiso   1.00
C196   C     0.03467   0.51495   0.12699   0.00000  Uiso   1.00
C197   C     0.06060   0.51318   0.11055   0.00000  Uiso   1.00
C198   C     0.47511   0.93711   0.74726   0.00000  Uiso   1.00
C199   C     0.47742   0.96468   0.69632   0.00000  Uiso   1.00
C200   C     0.46358   0.96945   0.44889   0.00000  Uiso   1.00
C201   C     0.44271   0.94379   0.29155   0.00000  Uiso   1.00
C202   C     0.43970   0.91605   0.34849   0.00000  Uiso   1.00
C203   C     0.43902   0.07407   0.08099   0.00000  Uiso   1.00
C204   C     0.43686   0.04614   0.07919   0.00000  Uiso   1.00
C205   C     0.45267   0.03896   0.28796   0.00000  Uiso   1.00
C206   C     0.47468   0.06283   0.45574   0.00000  Uiso   1.00
C207   C     0.47796   0.09109   0.44416   0.00000  Uiso   1.00
H208   H     0.43589   0.83365   0.36255   0.00000  Uiso   1.00
H209   H     0.43341   0.78674   0.26366   0.00000  Uiso   1.00
H210   H     0.39901   0.19225   0.38310   0.00000  Uiso   1.00
H211   H     0.39855   0.14932   0.16809   0.00000  Uiso   1.00
H212   H     0.47981   0.17054   0.66079   0.00000  Uiso   1.00
H213   H     0.48083   0.21508   0.86126   0.00000  Uiso   1.00
H214   H     0.76633   0.50847   0.54832   0.00000  Uiso   1.00
H215   H     0.81050   0.50287   0.55535   0.00000  Uiso   1.00
H216   H     0.86755   0.59791   0.38622   0.00000  Uiso   1.00
H217   H     0.82297   0.60391   0.36214   0.00000  Uiso   1.00
H218   H     0.14242   0.57022   0.43342   0.00000  Uiso   1.00
H219   H     0.48892   0.89256   0.91786   0.00000  Uiso   1.00
H220   H     0.41733   0.11468   0.13373   0.00000  Uiso   1.00
H221   H     0.86137   0.52055   0.46461   0.00000  Uiso   1.00
H222   H     0.10246   0.56622   0.62937   0.00000  Uiso   1.00
H223   H     0.05698   0.56683   0.68006   0.00000  Uiso   1.00
H224   H     0.01742   0.50260  -0.04160   0.00000  Uiso   1.00
H225   H     0.06208   0.49777  -0.04834   0.00000  Uiso   1.00
H226   H     0.48837   0.93520   0.92796   0.00000  Uiso   1.00
H227   H     0.49117   0.98259   0.85434   0.00000  Uiso   1.00
H228   H     0.42895   0.94467   0.11206   0.00000  Uiso   1.00
H229   H     0.42431   0.89699   0.20798   0.00000  Uiso   1.00
H230   H     0.42470   0.07818  -0.06948   0.00000  Uiso   1.00
H231   H     0.42239   0.03072  -0.09292   0.00000  Uiso   1.00
H232   H     0.48997   0.06002   0.60132   0.00000  Uiso   1.00
H233   H     0.49535   0.10874   0.58311   0.00000  Uiso   1.00
H234   H     0.90099   0.52419   0.22398   0.00000  Uiso   1.00
H235   H     0.94624   0.52180   0.19456   0.00000  Uiso   1.00
H236   H     0.98513   0.58902   0.89139   0.00000  Uiso   1.00
H237   H     0.94243   0.59517   0.87931   0.00000  Uiso   1.00
H238   H     0.52447   0.00475   0.59857   0.00000  Uiso   1.00
H239   H     0.57256   0.04488   0.58353   0.00000  Uiso   1.00
H240   H     0.54658   0.09288  -0.02478   0.00000  Uiso   1.00
H241   H     0.49525   0.05045  -0.01596   0.00000  Uiso   1.00
H242   H     0.95392   0.51282   0.81530   0.00000  Uiso   1.00
C243   C     0.92008   0.53971   0.36300   0.00000  Uiso   1.00
C244   C     0.94604   0.53815   0.34643   0.00000  Uiso   1.00
C245   C     0.97156   0.55730   0.51369   0.00000  Uiso   1.00
C246   C     0.96855   0.57620   0.72091   0.00000  Uiso   1.00
C247   C     0.94320   0.57896   0.72591   0.00000  Uiso   1.00
C248   C     0.44700   0.00724   0.33469   0.00000  Uiso   1.00
C249   C     0.47010   0.00086   0.36411   0.00000  Uiso   1.00
C250   C     0.50330   0.02457   0.31447   0.00000  Uiso   1.00
C251   C     1.00180   0.53096   0.42019   0.00000  Uiso   1.00
C252   C     0.97460   0.49950   0.47092   0.00000  Uiso   1.00
C253   C     0.52683   0.02298   0.45717   0.00000  Uiso   1.00
C254   C     0.55590   0.04674   0.44725   0.00000  Uiso   1.00
C255   C     0.56345   0.07321   0.29470   0.00000  Uiso   1.00
C256   C     0.54117   0.07317   0.11394   0.00000  Uiso   1.00
C257   C     0.51204   0.04912   0.12050   0.00000  Uiso   1.00
C258   C     0.95197   0.49459   0.67611   0.00000  Uiso   1.00
C259   C     0.92613   0.46690   0.70529   0.00000  Uiso   1.00
C260   C     0.92171   0.44196   0.53926   0.00000  Uiso   1.00
C261   C     0.94570   0.44590   0.36189   0.00000  Uiso   1.00
C262   C     0.97125   0.47358   0.32931   0.00000  Uiso   1.00
C263   C     0.00079   0.55724   0.46263   0.00000  Uiso   1.00
C264   C     0.02865   0.58804   0.41377   0.00000  Uiso   1.00
C265   C     0.41452   0.98304   0.39377   0.00000  Uiso   1.00
C266   C     0.04876   0.59274   0.18215   0.00000  Uiso   1.00
C267   C     0.07552   0.61956   0.14846   0.00000  Uiso   1.00
C268   C     0.08250   0.64426   0.33208   0.00000  Uiso   1.00
C269   C     0.06179   0.64019   0.55240   0.00000  Uiso   1.00
C270   C     0.03600   0.61293   0.59492   0.00000  Uiso   1.00
C271   C     0.39020   0.97969   0.22297   0.00000  Uiso   1.00
C272   C     0.36171   0.95540   0.26133   0.00000  Uiso   1.00
C273   C     0.35578   0.93300   0.47017   0.00000  Uiso   1.00
C274   C     0.37930   0.93761   0.66089   0.00000  Uiso   1.00
C275   C     0.40756   0.96261   0.62771   0.00000  Uiso   1.00
N276   N     0.10975   0.67161   0.31029   0.00000  Uiso   1.00
N277   N     0.32706   0.90708   0.47797   0.00000  Uiso   1.00
H278   H     0.90872   0.46477   0.86016   0.00000  Uiso   1.00
H279   H     0.94476   0.42709   0.23914   0.00000  Uiso   1.00
H280   H     0.98706   0.47255   0.17696   0.00000  Uiso   1.00
H281   H     0.04253   0.57438   0.02584   0.00000  Uiso   1.00
H282   H     0.09116   0.62150  -0.02706   0.00000  Uiso   1.00
H283   H     0.06648   0.65842   0.70759   0.00000  Uiso   1.00
H284   H     0.02336   0.61247   0.78887   0.00000  Uiso   1.00
H285   H     0.39223   0.99440   0.04058   0.00000  Uiso   1.00
H286   H     0.34360   0.95277   0.11383   0.00000  Uiso   1.00
H287   H     0.37546   0.92147   0.83858   0.00000  Uiso   1.00
H288   H     0.42509   0.96622   0.78605   0.00000  Uiso   1.00
H289   H     0.09623   0.70186   0.46833   0.00000  Uiso   1.00
H290   H     0.33713   0.87575   0.67324   0.00000  Uiso   1.00
H291   H     0.57712   0.12634   0.51030   0.00000  Uiso   1.00
H292   H     0.90014   0.38742   0.24017   0.00000  Uiso   1.00
H293   H     0.65175   0.13080   0.27491   0.00000  Uiso   1.00
H294   H     0.70006   0.17589   0.32666   0.00000  Uiso   1.00
H295   H     0.65755   0.22189   0.72767   0.00000  Uiso   1.00
H296   H     0.60853   0.17641   0.66771   0.00000  Uiso   1.00
H297   H     0.83983   0.38403   0.77013   0.00000  Uiso   1.00
H298   H     0.79001   0.34011   0.82374   0.00000  Uiso   1.00
H299   H     0.81639   0.29067   0.22553   0.00000  Uiso   1.00
H300   H     0.86429   0.33463   0.15498   0.00000  Uiso   1.00
H301   H     0.16846   0.69950   0.34417   0.00000  Uiso   1.00
H302   H     0.21868   0.74379   0.36981   0.00000  Uiso   1.00
H303   H     0.17821   0.79936   0.53491   0.00000  Uiso   1.00
H304   H     0.12869   0.75494   0.50282   0.00000  Uiso   1.00
H305   H     0.26869   0.87841   0.36011   0.00000  Uiso   1.00
H306   H     0.21970   0.83411   0.29384   0.00000  Uiso   1.00
H307   H     0.25430   0.77905   0.66720   0.00000  Uiso   1.00
H308   H     0.30336   0.82365   0.71394   0.00000  Uiso   1.00
H309   H     0.73804   0.20805   0.61477   0.00000  Uiso   1.00
H310   H     0.78666   0.25349   0.61763   0.00000  Uiso   1.00
H311   H     0.74402   0.30737   0.49201   0.00000  Uiso   1.00
H312   H     0.69422   0.26051   0.47483   0.00000  Uiso   1.00
loop_
_geom_bond_atom_site_label_1
_geom_bond_atom_site_label_2
_geom_bond_distance
_geom_bond_site_symmetry_2
_ccdc_geom_bond_type
C1     C2      1.436   .     S
C1     C136    1.432   .     S
C1     C175    1.425   .     D
C2     C3      1.438   .     D
C2     C7      1.426   .     S
C3     C4      1.368   .     S
C3     H88     1.102   .     S
C4     C5      1.428   .     D
C4     H89     1.103   .     S
C5     C6      1.432   .     S
C5     C8      1.444   .     S
C6     C7      1.367   .     D
C6     H90     1.099   .     S
C7     H91     1.100   .     S
C8     C9      1.428   .     D
C8     C13     1.425   .     S
C9     C10     1.373   .     S
C9     H92     1.100   .     S
C10    C11     1.406   .     D
C10    H93     1.100   .     S
C11    C12     1.407   .     S
C11    C14     1.452   .     S
C12    C13     1.372   .     D
C12    H94     1.099   .     S
C13    H95     1.096   .     S
C14    N15     1.299   .     D
C14    H96     1.100   .     S
N15    C16     1.412   .     S
C16    C33     1.408   .     D
C16    C37     1.403   .     S
C17    C18     1.458   .     D
C17    N276    1.306   .     S
C17    H289    1.102   .     S
C18    C72     1.410   .     S
C18    C76     1.411   .     S
C19    C20     1.459   .     D
C19    N277    1.305   .     S
C19    H290    1.101   .     S
C20    C77     1.410   .     S
C20    C81     1.411   .     S
N21    C22     1.300   .     D
N21    C255    1.413   .     S
C22    C23     1.456   .     S
C22    H291    1.102   .     S
C23    C27     1.410   .     D
C23    C31     1.411   .     S
N24    C25     1.303   .     D
N24    C260    1.417   .     S
C25    C26     1.457   .     S
C25    H292    1.101   .     S
C26    C32     1.412   .     D
C26    C71     1.411   .     S
C27    C28     1.376   .     S
C27    H293    1.103   .     S
C28    C29     1.430   .     D
C28    H294    1.098   .     S
C29    C30     1.426   .     S
C29    C82     1.445   .     S
C30    C31     1.377   .     D
C30    H295    1.101   .     S
C31    H296    1.103   .     S
C32    C68     1.378   .     S
C32    H297    1.102   .     S
C33    C34     1.380   .     S
C33    H97     1.103   .     S
C34    C35     1.410   .     D
C34    H98     1.091   .     S
C35    C36     1.407   .     S
C35    C38     1.523   .     S
C36    C37     1.382   .     D
C36    H99     1.093   .     S
C37    H100    1.099   .     S
C38    C39     1.518   .     D
C38    C40     1.383   .     S
C39    C53     1.404   .     S
C39    C57     1.408   .     S
C40    C41     1.511   .     D
C40    C42     1.503   .     S
C41    C48     1.403   .     S
C41    C52     1.403   .     S
C42    C43     1.399   .     D
C42    C47     1.400   .     S
C43    C44     1.383   .     S
C43    H101    1.090   .     S
C44    C45     1.404   .     D
C44    H102    1.098   .     S
C45    C46     1.401   .     S
C45    N60     1.406   .     S
C46    C47     1.381   .     D
C46    H138    1.097   .     S
C47    H139    1.093   .     S
C48    C49     1.380   .     D
C48    H140    1.097   .     S
C49    C50     1.404   .     S
C49    H141    1.096   .     S
C50    C51     1.409   .     S
C50    N59     1.412   .     D
C51    C52     1.385   .     D
C51    H142    1.101   .     S
C52    H143    1.089   .     S
C53    C54     1.380   .     D
C53    H144    1.089   .     S
C54    C55     1.403   .     S
C54    H145    1.103   .     S
C55    C56     1.406   .     S
C55    N58     1.403   .     D
C56    C57     1.384   .     D
C56    H146    1.100   .     S
C57    H147    1.093   .     S
N58    C61     1.296   .     S
N59    C63     1.304   .     S
N60    C65     1.298   .     D
C61    C62     1.452   .     D
C61    H148    1.101   .     S
C62    C114    1.412   .     S
C62    C118    1.407   .     S
C63    C64     1.457   .     D
C63    H149    1.100   .     S
C64    C119    1.408   .     S
C64    C123    1.410   .     S
C65    C66     1.452   .     S
C65    H150    1.100   .     S
C66    C109    1.410   .     S
C66    C113    1.409   .     D
C67    C103    1.437   .     S
C67    C176    1.427   .     S
C67    C180    1.430   .     D
C68    C69     1.436   .     D
C68    H298    1.103   .     S
C69    C70     1.434   .     S
C69    C83     1.436   .     S
C70    C71     1.374   .     D
C70    H299    1.098   .     S
C71    H300    1.103   .     S
C72    C73     1.378   .     D
C72    H301    1.101   .     S
C73    C74     1.432   .     S
C73    H302    1.103   .     S
C74    C75     1.429   .     S
C74    C79     1.442   .     D
C75    C76     1.377   .     D
C75    H303    1.100   .     S
C76    H304    1.101   .     S
C77    C78     1.379   .     D
C77    H305    1.100   .     S
C78    C79     1.431   .     S
C78    H306    1.103   .     S
C79    C80     1.428   .     S
C80    C81     1.375   .     D
C80    H307    1.103   .     S
C81    H308    1.101   .     S
C82    C84     1.428   .     D
C82    C87     1.434   .     S
C83    C85     1.434   .     D
C83    C86     1.438   .     S
C84    C85     1.366   .     S
C84    H309    1.100   .     S
C85    H310    1.101   .     S
C86    C87     1.369   .     D
C86    H311    1.102   .     S
C87    H312    1.103   .     S
C103   C104    1.426   .     S
C103   C108    1.429   .     D
C104   C105    1.365   .     D
C104   H151    1.100   .     S
C105   C106    1.428   .     S
C105   H152    1.099   .     S
C106   C107    1.432   .     D
C106   C111    1.439   .     S
C107   C108    1.370   .     S
C107   H153    1.102   .     S
C108   H154    1.101   .     S
C109   C110    1.373   .     D
C109   H155    1.102   .     S
C110   C111    1.427   .     S
C110   H156    1.100   .     S
C111   C112    1.429   .     D
C112   C113    1.375   .     S
C112   H157    1.100   .     S
C113   H158    1.102   .     S
C114   C115    1.375   .     D
C114   H159    1.101   .     S
C115   C116    1.421   .     S
C115   H160    1.102   .     S
C116   C117    1.425   .     S
C116   C124    1.434   .     D
C117   C118    1.375   .     D
C117   H161    1.098   .     S
C118   H162    1.101   .     S
C119   C120    1.381   .     D
C119   H163    1.102   .     S
C120   C121    1.434   .     S
C120   H164    1.100   .     S
C121   C122    1.428   .     S
C121   C125    1.435   .     D
C122   C123    1.374   .     D
C122   H165    1.101   .     S
C123   H166    1.098   .     S
C124   C126    1.428   .     S
C124   C130    1.425   .     S
C125   C131    1.433   .     S
C125   C135    1.436   .     S
C126   C127    1.369   .     D
C126   H167    1.099   .     S
C127   C128    1.402   .     S
C127   H168    1.097   .     S
C128   C129    1.405   .     S
C128   C181    1.440   .     D
C129   C130    1.373   .     D
C129   H169    1.101   .     S
C130   H170    1.100   .     S
C131   C132    1.377   .     D
C131   H171    1.101   .     S
C132   C133    1.411   .     S
C132   H172    1.101   .     S
C133   C134    1.407   .     S
C133   C182    1.455   .     D
C134   C135    1.374   .     D
C134   H208    1.103   .     S
C135   H209    1.104   .     S
C136   C137    1.373   .     D
C136   H210    1.097   .     S
C137   C173    1.409   .     S
C137   H211    1.102   .     S
C173   C174    1.412   .     D
C173   C187    1.451   .     S
C174   C175    1.374   .     S
C174   H212    1.102   .     S
C175   H213    1.101   .     S
C176   C177    1.369   .     D
C176   H214    1.100   .     S
C177   C178    1.404   .     S
C177   H215    1.102   .     S
C178   C179    1.411   .     D
C178   C190    1.448   .     S
C179   C180    1.377   .     S
C179   H216    1.102   .     S
C180   H217    1.103   .     S
C181   N183    1.291   .     S
C181   H218    1.099   .     S
C182   N185    1.300   .     S
C182   H219    1.101   .     S
N183   C184    1.391   .     D
C184   C193    1.400   .     S
C184   C197    1.399   .     S
N185   C186    1.402   .     D
C186   C198    1.400   .     S
C186   C202    1.401   .     S
C187   N188    1.296   .     D
C187   H220    1.101   .     S
N188   C189    1.399   .     S
C189   C203    1.401   .     S
C189   C207    1.397   .     D
C190   N191    1.294   .     D
C190   H221    1.101   .     S
N191   C192    1.402   .     S
C192   C243    1.406   .     S
C192   C247    1.398   .     D
C193   C194    1.376   .     D
C193   H222    1.099   .     S
C194   C195    1.403   .     S
C194   H223    1.085   .     S
C195   C196    1.412   .     S
C195   C251    1.523   1_455 D
C196   C197    1.385   .     D
C196   H224    1.097   .     S
C197   H225    1.099   .     S
C198   C199    1.383   .     D
C198   H226    1.097   .     S
C199   C200    1.408   .     S
C199   H227    1.098   .     S
C200   C201    1.408   .     S
C200   C249    1.527   1_565 D
C201   C202    1.382   .     D
C201   H228    1.090   .     S
C202   H229    1.102   .     S
C203   C204    1.386   .     D
C203   H230    1.097   .     S
C204   C205    1.408   .     S
C204   H231    1.093   .     S
C205   C206    1.405   .     D
C205   C248    1.524   .     S
C206   C207    1.380   .     S
C206   H232    1.088   .     S
C207   H233    1.098   .     S
H234   C243    1.100   .     S
H235   C244    1.089   .     S
H236   C246    1.091   .     S
H237   C247    1.099   .     S
H238   C253    1.089   .     S
H239   C254    1.097   .     S
H240   C256    1.102   .     S
H241   C257    1.090   .     S
H242   C258    1.091   .     S
C243   C244    1.381   .     D
C244   C245    1.404   .     S
C245   C246    1.411   .     D
C245   C263    1.524   1_655 S
C246   C247    1.382   .     S
C248   C249    1.390   .     S
C248   C265    1.529   1_545 D
C249   C200    1.527   1_545 D
C249   C250    1.542   .     S
C250   C253    1.410   .     D
C250   C257    1.412   .     S
C251   C195    1.523   1_655 D
C251   C252    1.539   .     S
C251   C263    1.393   1_655 S
C252   C258    1.407   .     D
C252   C262    1.410   .     S
C253   C254    1.382   .     S
C254   C255    1.397   .     D
C255   C256    1.406   .     S
C256   C257    1.388   .     D
C258   C259    1.387   .     S
C259   C260    1.403   .     D
C259   H278    1.097   .     S
C260   C261    1.398   .     S
C261   C262    1.382   .     D
C261   H279    1.095   .     S
C262   H280    1.086   .     S
C263   C245    1.524   1_455 S
C263   C251    1.393   1_455 S
C263   C264    1.532   .     D
C264   C266    1.402   .     S
C264   C270    1.402   .     S
C265   C248    1.529   1_565 D
C265   C271    1.405   .     S
C265   C275    1.402   .     S
C266   C267    1.388   .     D
C266   H281    1.090   .     S
C267   C268    1.405   .     S
C267   H282    1.096   .     S
C268   C269    1.393   .     S
C268   N276    1.409   .     D
C269   C270    1.381   .     D
C269   H283    1.096   .     S
C270   H284    1.082   .     S
C271   C272    1.383   .     D
C271   H285    1.086   .     S
C272   C273    1.398   .     S
C272   H286    1.097   .     S
C273   C274    1.404   .     S
C273   N277    1.413   .     D
C274   C275    1.387   .     D
C274   H287    1.098   .     S
C275   H288    1.091   .     S
