data_42
_audit_creation_date              2023-09-08
_audit_creation_method            'Materials Studio'
_symmetry_space_group_name_H-M    'P1'
_symmetry_Int_Tables_number       1
_symmetry_cell_setting            triclinic
loop_
_symmetry_equiv_pos_as_xyz
  x,y,z
_cell_length_a                    37.0995
_cell_length_b                    37.0995
_cell_length_c                    3.7800
_cell_angle_alpha                 90.0000
_cell_angle_beta                  90.0000
_cell_angle_gamma                 120.0000
loop_
_atom_site_label
_atom_site_type_symbol
_atom_site_fract_x
_atom_site_fract_y
_atom_site_fract_z
_atom_site_U_iso_or_equiv
_atom_site_adp_type
_atom_site_occupancy
H1     H     0.91354   0.28007   0.77234   0.00000  Uiso   1.00
C2     C     0.75697   0.36291   1.00000   0.00000  Uiso   1.00
C3     C     0.77260   0.33510   1.00000   0.00000  Uiso   1.00
C4     C     0.81529   0.34907   1.00000   0.00000  Uiso   1.00
C5     C     0.84530   0.39167   1.00000   0.00000  Uiso   1.00
C6     C     0.82966   0.41946   1.00000   0.00000  Uiso   1.00
C7     C     0.78711   0.40569   1.00000   0.00000  Uiso   1.00
C8     C     0.89231   0.41014   1.00000   0.00000  Uiso   1.00
N9     N     0.91464   0.45265   1.00000   0.00000  Uiso   1.00
C10    C     0.95674   0.47590   1.00000   0.00000  Uiso   1.00
C11    C     0.98076   0.45634   1.00000   0.00000  Uiso   1.00
C12    C     0.02407   0.48068   1.00000   0.00000  Uiso   1.00
C13    C     0.28964   0.65236   1.00000   0.00000  Uiso   1.00
C14    C     0.30479   0.62424   1.00000   0.00000  Uiso   1.00
C15    C     0.41273   0.45301   1.00000   0.00000  Uiso   1.00
C16    C     0.08383   0.61070   1.00000   0.00000  Uiso   1.00
C17    C     0.90382   0.34729   1.00000   0.00000  Uiso   1.00
C18    C     0.93710   0.34053   1.00000   0.00000  Uiso   1.00
S19    S     0.98464   0.38433   1.00000   0.00000  Uiso   1.00
C20    C     0.93200   0.29796   1.00000   0.00000  Uiso   1.00
H21    H     0.75282   0.30185   1.00000   0.00000  Uiso   1.00
H22    H     0.82262   0.32500   1.00000   0.00000  Uiso   1.00
H23    H     0.85031   0.45282   1.00000   0.00000  Uiso   1.00
H24    H     0.77931   0.42996   1.00000   0.00000  Uiso   1.00
H25    H     0.04349   0.46654   1.00000   0.00000  Uiso   1.00
H26    H     0.28304   0.59191   1.00000   0.00000  Uiso   1.00
H27    H     0.87330   0.32100   1.00000   0.00000  Uiso   1.00
H28    H     0.96260   0.29937   1.00000   0.00000  Uiso   1.00
H29    H     0.71993   0.63347   0.77234   0.00000  Uiso   1.00
C30    C     0.63709   0.39406   1.00000   0.00000  Uiso   1.00
C31    C     0.66490   0.43750   1.00000   0.00000  Uiso   1.00
C32    C     0.65093   0.46622   1.00000   0.00000  Uiso   1.00
C33    C     0.60833   0.45363   1.00000   0.00000  Uiso   1.00
C34    C     0.58054   0.41020   1.00000   0.00000  Uiso   1.00
C35    C     0.59431   0.38142   1.00000   0.00000  Uiso   1.00
C36    C     0.58986   0.48217   1.00000   0.00000  Uiso   1.00
N37    N     0.54735   0.46199   1.00000   0.00000  Uiso   1.00
C38    C     0.52410   0.48084   1.00000   0.00000  Uiso   1.00
C39    C     0.54366   0.52442   1.00000   0.00000  Uiso   1.00
C40    C     0.51932   0.54339   1.00000   0.00000  Uiso   1.00
C41    C     0.34764   0.63728   1.00000   0.00000  Uiso   1.00
C42    C     0.37576   0.68055   1.00000   0.00000  Uiso   1.00
C43    C     0.54699   0.95972   1.00000   0.00000  Uiso   1.00
C44    C     0.38930   0.47313   1.00000   0.00000  Uiso   1.00
C45    C     0.65271   0.55653   1.00000   0.00000  Uiso   1.00
C46    C     0.65947   0.59657   1.00000   0.00000  Uiso   1.00
S47    S     0.61567   0.60031   1.00000   0.00000  Uiso   1.00
C48    C     0.70204   0.63404   1.00000   0.00000  Uiso   1.00
H49    H     0.69815   0.45097   1.00000   0.00000  Uiso   1.00
H50    H     0.67500   0.49762   1.00000   0.00000  Uiso   1.00
H51    H     0.54718   0.39749   1.00000   0.00000  Uiso   1.00
H52    H     0.57004   0.34935   1.00000   0.00000  Uiso   1.00
H53    H     0.53346   0.57695   1.00000   0.00000  Uiso   1.00
H54    H     0.40809   0.69113   1.00000   0.00000  Uiso   1.00
H55    H     0.67900   0.55230   1.00000   0.00000  Uiso   1.00
H56    H     0.70063   0.66323   1.00000   0.00000  Uiso   1.00
H57    H     0.36653   0.08646   0.77234   0.00000  Uiso   1.00
C58    C     0.60594   0.24303   1.00000   0.00000  Uiso   1.00
C59    C     0.56250   0.22740   1.00000   0.00000  Uiso   1.00
C60    C     0.53378   0.18471   1.00000   0.00000  Uiso   1.00
C61    C     0.54637   0.15470   1.00000   0.00000  Uiso   1.00
C62    C     0.58980   0.17034   1.00000   0.00000  Uiso   1.00
C63    C     0.61858   0.21289   1.00000   0.00000  Uiso   1.00
C64    C     0.51783   0.10769   1.00000   0.00000  Uiso   1.00
N65    N     0.53801   0.08536   1.00000   0.00000  Uiso   1.00
C66    C     0.51916   0.04326   1.00000   0.00000  Uiso   1.00
C67    C     0.47558   0.01924   1.00000   0.00000  Uiso   1.00
C68    C     0.45661   0.97593   1.00000   0.00000  Uiso   1.00
C69    C     0.36272   0.71036   1.00000   0.00000  Uiso   1.00
C70    C     0.31945   0.69521   1.00000   0.00000  Uiso   1.00
C71    C     0.04028   0.58727   1.00000   0.00000  Uiso   1.00
C72    C     0.52687   0.91617   1.00000   0.00000  Uiso   1.00
C73    C     0.44347   0.09618   1.00000   0.00000  Uiso   1.00
C74    C     0.40343   0.06290   1.00000   0.00000  Uiso   1.00
S75    S     0.39969   0.01536   1.00000   0.00000  Uiso   1.00
C76    C     0.36596   0.06800   1.00000   0.00000  Uiso   1.00
H77    H     0.54903   0.24718   1.00000   0.00000  Uiso   1.00
H78    H     0.50238   0.17738   1.00000   0.00000  Uiso   1.00
H79    H     0.60251   0.14969   1.00000   0.00000  Uiso   1.00
H80    H     0.65065   0.22069   1.00000   0.00000  Uiso   1.00
H81    H     0.42305   0.95651   1.00000   0.00000  Uiso   1.00
H82    H     0.30887   0.71696   1.00000   0.00000  Uiso   1.00
H83    H     0.44770   0.12670   1.00000   0.00000  Uiso   1.00
H84    H     0.33677   0.03740   1.00000   0.00000  Uiso   1.00
H85    H     0.08646   0.71993   0.77234   0.00000  Uiso   1.00
C86    C     0.24303   0.63709   1.00000   0.00000  Uiso   1.00
C87    C     0.22740   0.66490   1.00000   0.00000  Uiso   1.00
C88    C     0.18471   0.65093   1.00000   0.00000  Uiso   1.00
C89    C     0.15470   0.60833   1.00000   0.00000  Uiso   1.00
C90    C     0.17034   0.58054   1.00000   0.00000  Uiso   1.00
C91    C     0.21289   0.59431   1.00000   0.00000  Uiso   1.00
C92    C     0.10769   0.58986   1.00000   0.00000  Uiso   1.00
N93    N     0.08536   0.54735   1.00000   0.00000  Uiso   1.00
C94    C     0.04326   0.52410   1.00000   0.00000  Uiso   1.00
C95    C     0.01924   0.54366   1.00000   0.00000  Uiso   1.00
C96    C     0.97593   0.51932   1.00000   0.00000  Uiso   1.00
C97    C     0.71036   0.34764   1.00000   0.00000  Uiso   1.00
C98    C     0.69521   0.37576   1.00000   0.00000  Uiso   1.00
C99    C     0.58727   0.54699   1.00000   0.00000  Uiso   1.00
C100   C     0.91617   0.38930   1.00000   0.00000  Uiso   1.00
C101   C     0.09618   0.65271   1.00000   0.00000  Uiso   1.00
C102   C     0.06290   0.65947   1.00000   0.00000  Uiso   1.00
S103   S     0.01536   0.61567   1.00000   0.00000  Uiso   1.00
C104   C     0.06800   0.70204   1.00000   0.00000  Uiso   1.00
H105   H     0.24718   0.69815   1.00000   0.00000  Uiso   1.00
H106   H     0.17738   0.67500   1.00000   0.00000  Uiso   1.00
H107   H     0.14969   0.54718   1.00000   0.00000  Uiso   1.00
H108   H     0.22069   0.57004   1.00000   0.00000  Uiso   1.00
H109   H     0.95651   0.53346   1.00000   0.00000  Uiso   1.00
H110   H     0.71696   0.40809   1.00000   0.00000  Uiso   1.00
H111   H     0.12670   0.67900   1.00000   0.00000  Uiso   1.00
H112   H     0.03740   0.70063   1.00000   0.00000  Uiso   1.00
H113   H     0.28007   0.36653   0.77234   0.00000  Uiso   1.00
C114   C     0.36291   0.60594   1.00000   0.00000  Uiso   1.00
C115   C     0.33510   0.56250   1.00000   0.00000  Uiso   1.00
C116   C     0.34907   0.53378   1.00000   0.00000  Uiso   1.00
C117   C     0.39167   0.54637   1.00000   0.00000  Uiso   1.00
C118   C     0.41946   0.58980   1.00000   0.00000  Uiso   1.00
C119   C     0.40569   0.61858   1.00000   0.00000  Uiso   1.00
C120   C     0.41014   0.51783   1.00000   0.00000  Uiso   1.00
N121   N     0.45265   0.53801   1.00000   0.00000  Uiso   1.00
C122   C     0.47590   0.51916   1.00000   0.00000  Uiso   1.00
C123   C     0.45634   0.47558   1.00000   0.00000  Uiso   1.00
C124   C     0.48068   0.45661   1.00000   0.00000  Uiso   1.00
C125   C     0.65236   0.36272   1.00000   0.00000  Uiso   1.00
C126   C     0.62424   0.31945   1.00000   0.00000  Uiso   1.00
C127   C     0.45301   0.04028   1.00000   0.00000  Uiso   1.00
C128   C     0.61070   0.52687   1.00000   0.00000  Uiso   1.00
C129   C     0.34729   0.44347   1.00000   0.00000  Uiso   1.00
C130   C     0.34053   0.40343   1.00000   0.00000  Uiso   1.00
S131   S     0.38433   0.39969   1.00000   0.00000  Uiso   1.00
C132   C     0.29796   0.36596   1.00000   0.00000  Uiso   1.00
H133   H     0.30185   0.54903   1.00000   0.00000  Uiso   1.00
H134   H     0.32500   0.50238   1.00000   0.00000  Uiso   1.00
H135   H     0.45282   0.60251   1.00000   0.00000  Uiso   1.00
H136   H     0.42996   0.65065   1.00000   0.00000  Uiso   1.00
H137   H     0.46654   0.42305   1.00000   0.00000  Uiso   1.00
H138   H     0.59191   0.30887   1.00000   0.00000  Uiso   1.00
H139   H     0.32100   0.44770   1.00000   0.00000  Uiso   1.00
H140   H     0.29937   0.33677   1.00000   0.00000  Uiso   1.00
H141   H     0.63347   0.91354   0.77234   0.00000  Uiso   1.00
C142   C     0.39406   0.75697   1.00000   0.00000  Uiso   1.00
C143   C     0.43750   0.77260   1.00000   0.00000  Uiso   1.00
C144   C     0.46622   0.81529   1.00000   0.00000  Uiso   1.00
C145   C     0.45363   0.84530   1.00000   0.00000  Uiso   1.00
C146   C     0.41020   0.82966   1.00000   0.00000  Uiso   1.00
C147   C     0.38142   0.78711   1.00000   0.00000  Uiso   1.00
C148   C     0.48217   0.89231   1.00000   0.00000  Uiso   1.00
N149   N     0.46199   0.91464   1.00000   0.00000  Uiso   1.00
C150   C     0.48084   0.95674   1.00000   0.00000  Uiso   1.00
C151   C     0.52442   0.98076   1.00000   0.00000  Uiso   1.00
C152   C     0.54339   0.02407   1.00000   0.00000  Uiso   1.00
C153   C     0.63728   0.28964   1.00000   0.00000  Uiso   1.00
C154   C     0.68055   0.30479   1.00000   0.00000  Uiso   1.00
C155   C     0.95972   0.41273   1.00000   0.00000  Uiso   1.00
C156   C     0.47313   0.08383   1.00000   0.00000  Uiso   1.00
C157   C     0.55653   0.90382   1.00000   0.00000  Uiso   1.00
C158   C     0.59657   0.93710   1.00000   0.00000  Uiso   1.00
S159   S     0.60031   0.98464   1.00000   0.00000  Uiso   1.00
C160   C     0.63404   0.93200   1.00000   0.00000  Uiso   1.00
H161   H     0.45097   0.75282   1.00000   0.00000  Uiso   1.00
H162   H     0.49762   0.82262   1.00000   0.00000  Uiso   1.00
H163   H     0.39749   0.85031   1.00000   0.00000  Uiso   1.00
H164   H     0.34935   0.77931   1.00000   0.00000  Uiso   1.00
H165   H     0.57695   0.04349   1.00000   0.00000  Uiso   1.00
H166   H     0.69113   0.28304   1.00000   0.00000  Uiso   1.00
H167   H     0.55230   0.87330   1.00000   0.00000  Uiso   1.00
H168   H     0.66323   0.96260   1.00000   0.00000  Uiso   1.00
loop_
_geom_bond_atom_site_label_1
_geom_bond_atom_site_label_2
_geom_bond_distance
_geom_bond_site_symmetry_2
_ccdc_geom_bond_type
H1     C20     1.093   .     S
C2     C3      1.414   .     D
C2     C7      1.412   .     S
C2     C97     1.527   .     S
C3     C4      1.399   .     S
C3     H21     1.075   .     S
C4     C5      1.406   .     D
C4     H22     1.056   .     S
C5     C6      1.413   .     S
C5     C8      1.522   .     S
C6     C7      1.395   .     D
C6     H23     1.082   .     S
C7     H24     1.075   .     S
C8     N9      1.366   .     D
C8     C100    1.437   .     S
N9     C10     1.355   .     S
C10    C11     1.403   .     S
C10    C96     1.398   .     D
C11    C12     1.395   1_655 S
C11    C155    1.401   .     D
C12    C11     1.395   1_455 S
C12    H25     1.083   .     S
C12    C94     1.398   .     D
C13    C14     1.411   .     D
C13    C70     1.411   .     S
C13    C86     1.527   .     S
C14    H26     1.059   .     S
C14    C41     1.411   .     S
C15    C44     1.401   .     S
C15    C123    1.401   .     D
C15    S131    1.714   .     S
C16    C71     1.401   .     S
C16    C92     1.437   .     S
C16    C101    1.387   .     D
C17    C18     1.377   .     S
C17    H27     1.063   .     S
C17    C100    1.387   .     D
C18    S19     1.699   .     S
C18    C20     1.494   .     D
S19    C155    1.714   .     S
C20    H28     1.110   .     S
H29    C48     1.093   .     S
C30    C31     1.414   .     D
C30    C35     1.412   .     S
C30    C125    1.527   .     S
C31    C32     1.399   .     S
C31    H49     1.075   .     S
C32    C33     1.406   .     D
C32    H50     1.056   .     S
C33    C34     1.413   .     S
C33    C36     1.522   .     S
C34    C35     1.395   .     D
C34    H51     1.082   .     S
C35    H52     1.075   .     S
C36    N37     1.366   .     D
C36    C128    1.437   .     S
N37    C38     1.355   .     S
C38    C39     1.403   .     S
C38    C124    1.398   .     D
C39    C40     1.395   .     S
C39    C99     1.401   .     D
C40    H53     1.083   .     S
C40    C122    1.398   .     D
C41    C42     1.411   .     D
C41    C114    1.527   .     S
C42    H54     1.059   .     S
C42    C69     1.411   .     S
C43    C72     1.401   .     S
C43    C151    1.401   .     D
C43    S159    1.714   .     S
C44    C120    1.437   .     S
C44    C129    1.387   .     D
C45    C46     1.377   .     S
C45    H55     1.063   .     S
C45    C128    1.387   .     D
C46    S47     1.699   .     S
C46    C48     1.494   .     D
S47    C99     1.714   .     S
C48    H56     1.110   .     S
H57    C76     1.093   .     S
C58    C59     1.414   .     D
C58    C63     1.412   .     S
C58    C153    1.527   .     S
C59    C60     1.399   .     S
C59    H77     1.075   .     S
C60    C61     1.406   .     D
C60    H78     1.056   .     S
C61    C62     1.413   .     S
C61    C64     1.522   .     S
C62    C63     1.395   .     D
C62    H79     1.082   .     S
C63    H80     1.075   .     S
C64    N65     1.366   .     D
C64    C156    1.437   .     S
N65    C66     1.355   .     S
C66    C67     1.403   .     S
C66    C152    1.398   .     D
C67    C68     1.395   1_545 S
C67    C127    1.401   .     D
C68    C67     1.395   1_565 S
C68    H81     1.083   .     S
C68    C150    1.398   .     D
C69    C70     1.411   .     D
C69    C142    1.527   .     S
C70    H82     1.059   .     S
C71    C95     1.401   .     D
C71    S103    1.714   .     S
C72    C148    1.437   .     S
C72    C157    1.387   .     D
C73    C74     1.377   .     S
C73    H83     1.063   .     S
C73    C156    1.387   .     D
C74    S75     1.699   .     S
C74    C76     1.494   .     D
S75    C127    1.714   .     S
C76    H84     1.110   .     S
H85    C104    1.093   .     S
C86    C87     1.414   .     D
C86    C91     1.412   .     S
C87    C88     1.399   .     S
C87    H105    1.075   .     S
C88    C89     1.406   .     D
C88    H106    1.056   .     S
C89    C90     1.413   .     S
C89    C92     1.522   .     S
C90    C91     1.395   .     D
C90    H107    1.082   .     S
C91    H108    1.075   .     S
C92    N93     1.366   .     D
N93    C94     1.355   .     S
C94    C95     1.403   .     S
C95    C96     1.395   1_455 S
C96    C95     1.395   1_655 S
C96    H109    1.083   .     S
C97    C98     1.411   .     S
C97    C154    1.411   .     D
C98    H110    1.059   .     S
C98    C125    1.411   .     D
C99    C128    1.401   .     S
C100   C155    1.401   .     S
C101   C102    1.377   .     S
C101   H111    1.063   .     S
C102   S103    1.699   .     S
C102   C104    1.494   .     D
C104   H112    1.110   .     S
H113   C132    1.093   .     S
C114   C115    1.414   .     D
C114   C119    1.412   .     S
C115   C116    1.399   .     S
C115   H133    1.075   .     S
C116   C117    1.406   .     D
C116   H134    1.056   .     S
C117   C118    1.413   .     S
C117   C120    1.522   .     S
C118   C119    1.395   .     D
C118   H135    1.082   .     S
C119   H136    1.075   .     S
C120   N121    1.366   .     D
N121   C122    1.355   .     S
C122   C123    1.403   .     S
C123   C124    1.395   .     S
C124   H137    1.083   .     S
C125   C126    1.411   .     S
C126   H138    1.059   .     S
C126   C153    1.411   .     D
C127   C156    1.401   .     S
C129   C130    1.377   .     S
C129   H139    1.063   .     S
C130   S131    1.699   .     S
C130   C132    1.494   .     D
C132   H140    1.110   .     S
H141   C160    1.093   .     S
C142   C143    1.414   .     S
C142   C147    1.412   .     D
C143   C144    1.399   .     D
C143   H161    1.075   .     S
C144   C145    1.406   .     S
C144   H162    1.056   .     S
C145   C146    1.413   .     D
C145   C148    1.522   .     S
C146   C147    1.395   .     S
C146   H163    1.082   .     S
C147   H164    1.075   .     S
C148   N149    1.366   .     D
N149   C150    1.355   .     S
C150   C151    1.403   .     S
C151   C152    1.395   1_565 S
C152   C151    1.395   1_545 S
C152   H165    1.083   .     S
C153   C154    1.411   .     S
C154   H166    1.059   .     S
C157   C158    1.377   .     S
C157   H167    1.063   .     S
C158   S159    1.699   .     S
C158   C160    1.494   .     D
C160   H168    1.110   .     S
