data_421
_audit_creation_date              2023-09-08
_audit_creation_method            'Materials Studio'
_symmetry_space_group_name_H-M    'P1'
_symmetry_Int_Tables_number       1
_symmetry_cell_setting            triclinic
loop_
_symmetry_equiv_pos_as_xyz
  x,y,z
_cell_length_a                    15.7410
_cell_length_b                    15.7410
_cell_length_c                    4.3310
_cell_angle_alpha                 90.0000
_cell_angle_beta                  90.0000
_cell_angle_gamma                 90.0000
loop_
_atom_site_label
_atom_site_type_symbol
_atom_site_fract_x
_atom_site_fract_y
_atom_site_fract_z
_atom_site_U_iso_or_equiv
_atom_site_adp_type
_atom_site_occupancy
H1     H     0.27529   0.97834   1.31115   0.00000  Uiso   1.00
H2     H     0.35240   1.11323   1.31261   0.00000  Uiso   1.00
H3     H     0.17852   1.21557   0.62222   0.00000  Uiso   1.00
H4     H     0.10235   1.07849   0.61904   0.00000  Uiso   1.00
H5     H     0.07364   0.76657   1.14752   0.00000  Uiso   1.00
H6     H     0.15100   0.63895   1.15416   0.00000  Uiso   1.00
H7     H     0.37355   0.76759   0.78976   0.00000  Uiso   1.00
H8     H     0.29655   0.90176   0.78031   0.00000  Uiso   1.00
H9     H     0.07280   1.11096   1.22347   0.00000  Uiso   1.00
H10    H    -0.02252   1.22901   1.27182   0.00000  Uiso   1.00
H11    H    -0.21488   1.09375   0.74330   0.00000  Uiso   1.00
H12    H    -0.12113   0.97348   0.69165   0.00000  Uiso   1.00
H13    H    -0.11132   0.89631   1.25463   0.00000  Uiso   1.00
H14    H    -0.19237   0.76615   1.16957   0.00000  Uiso   1.00
H15    H    -0.01355   0.68807   0.45242   0.00000  Uiso   1.00
H16    H     0.06391   0.82688   0.52702   0.00000  Uiso   1.00
H17    H     0.62596   0.58337   1.08688   0.00000  Uiso   1.00
H18    H     0.67664   0.31574   1.25692   0.00000  Uiso   1.00
H19    H     0.86575   0.47533   0.82961   0.00000  Uiso   1.00
H20    H     0.52502   0.57077   1.36130   0.00000  Uiso   1.00
H21    H     0.30996   0.43125   1.01492   0.00000  Uiso   1.00
H22    H     0.54647   0.30125   1.18273   0.00000  Uiso   1.00
H23    H     0.39535   0.64237   1.34769   0.00000  Uiso   1.00
H24    H    -0.27366   0.67565   0.89971   0.00000  Uiso   1.00
H25    H    -0.09571   1.33569   0.92976   0.00000  Uiso   1.00
H26    H     0.43589   1.21673   1.07420   0.00000  Uiso   1.00
C27    C     0.03855   0.94525   0.95161   0.00000  Uiso   1.00
C28    C     0.12746   0.93807   0.96743   0.00000  Uiso   1.00
C29    C    -0.01529   0.86748   0.90005   0.00000  Uiso   1.00
C30    C     0.17672   0.85125   0.97189   0.00000  Uiso   1.00
C31    C     0.18179   1.01824   0.96226   0.00000  Uiso   1.00
C32    C    -0.01513   1.02743   0.96534   0.00000  Uiso   1.00
C33    C     0.25438   1.02892   1.15097   0.00000  Uiso   1.00
C34    C     0.29835   1.10610   1.15144   0.00000  Uiso   1.00
C35    C     0.27170   1.17601   0.96763   0.00000  Uiso   1.00
C36    C     0.20133   1.16326   0.77148   0.00000  Uiso   1.00
C37    C     0.15873   1.08584   0.76578   0.00000  Uiso   1.00
C38    C     0.14005   0.77332   1.07225   0.00000  Uiso   1.00
C39    C     0.18410   0.69687   1.07318   0.00000  Uiso   1.00
C40    C     0.26901   0.69175   0.97587   0.00000  Uiso   1.00
C41    C     0.30709   0.76836   0.87283   0.00000  Uiso   1.00
C42    C     0.26247   0.84543   0.86958   0.00000  Uiso   1.00
C43    C     0.00993   1.10294   1.11879   0.00000  Uiso   1.00
C44    C    -0.04465   1.17234   1.14383   0.00000  Uiso   1.00
C45    C    -0.12726   1.17078   1.01581   0.00000  Uiso   1.00
C46    C    -0.15154   1.09715   0.85318   0.00000  Uiso   1.00
C47    C    -0.09694   1.02800   0.82644   0.00000  Uiso   1.00
C48    C    -0.08997   0.85216   1.07214   0.00000  Uiso   1.00
C49    C    -0.13626   0.77808   1.02195   0.00000  Uiso   1.00
C50    C    -0.10893   0.71684   0.80334   0.00000  Uiso   1.00
C51    C    -0.03616   0.73477   0.62469   0.00000  Uiso   1.00
C52    C     0.00795   0.81046   0.66570   0.00000  Uiso   1.00
C53    C     0.74931   0.53936   0.95736   0.00000  Uiso   1.00
C54    C     0.66927   0.52829   1.08628   0.00000  Uiso   1.00
C55    C     0.63934   0.44823   1.19596   0.00000  Uiso   1.00
C56    C     0.69736   0.37878   1.17451   0.00000  Uiso   1.00
C57    C     0.77800   0.38687   1.04044   0.00000  Uiso   1.00
C58    C     0.80230   0.46779   0.93547   0.00000  Uiso   1.00
C59    C     0.54917   0.43759   1.26419   0.00000  Uiso   1.00
C60    C     0.49582   0.50957   1.29521   0.00000  Uiso   1.00
C61    C     0.41213   0.51121   1.18564   0.00000  Uiso   1.00
C62    C     0.37654   0.43248   1.09527   0.00000  Uiso   1.00
C63    C     0.42208   0.35506   1.11370   0.00000  Uiso   1.00
C64    C     0.50752   0.35940   1.20132   0.00000  Uiso   1.00
C65    C     0.37105   0.59473   1.18098   0.00000  Uiso   1.00
C66    C    -0.22739   0.62408   0.85499   0.00000  Uiso   1.00
C67    C    -0.16091   1.31801   1.00235   0.00000  Uiso   1.00
C68    C     0.39023   1.26978   1.04580   0.00000  Uiso   1.00
N69    N    -0.14944   0.63779   0.77141   0.00000  Uiso   1.00
N70    N     0.31069   0.61177   0.98407   0.00000  Uiso   1.00
N71    N     0.31054   1.25724   0.97985   0.00000  Uiso   1.00
N72    N    -0.18432   1.23958   1.04536   0.00000  Uiso   1.00
loop_
_geom_bond_atom_site_label_1
_geom_bond_atom_site_label_2
_geom_bond_distance
_geom_bond_site_symmetry_2
_ccdc_geom_bond_type
H1     C33     1.106   .     S
H2     C34     1.106   .     S
H3     C36     1.107   .     S
H4     C37     1.098   .     S
H5     C38     1.100   .     S
H6     C39     1.107   .     S
H7     C41     1.106   .     S
H8     C42     1.106   .     S
H9     C43     1.096   .     S
H10    C44     1.107   .     S
H11    C46     1.106   .     S
H12    C47     1.105   .     S
H13    C48     1.105   .     S
H14    C49     1.106   .     S
H15    C51     1.106   .     S
H16    C52     1.097   .     S
H17    C54     1.103   .     S
H18    C56     1.104   .     S
H19    C58     1.105   .     S
H20    C60     1.105   .     S
H21    C62     1.104   .     S
H22    C64     1.105   .     S
H23    C65     1.109   .     S
H24    C66     1.108   .     S
H25    C67     1.109   .     S
H26    C68     1.109   .     S
C27    C28     1.406   .     D
C27    C29     1.506   .     S
C27    C32     1.546   .     S
C28    C30     1.571   .     S
C28    C31     1.525   .     S
C29    C48     1.413   .     D
C29    C52     1.403   .     S
C30    C38     1.424   .     D
C30    C42     1.424   .     S
C31    C33     1.415   .     D
C31    C37     1.410   .     S
C32    C43     1.418   .     D
C32    C47     1.421   .     S
C33    C34     1.398   .     S
C34    C35     1.421   .     D
C35    C36     1.410   .     S
C35    N71     1.418   .     S
C36    C37     1.391   .     D
C38    C39     1.389   .     S
C39    C40     1.404   .     D
C40    C41     1.419   .     S
C40    N70     1.420   .     S
C41    C42     1.402   .     D
C43    C44     1.394   .     S
C44    C45     1.414   .     D
C45    C46     1.409   .     S
C45    N72     1.413   .     S
C46    C47     1.392   .     D
C48    C49     1.392   .     S
C49    C50     1.418   .     D
C50    C51     1.411   .     S
C50    N69     1.405   .     S
C51    C52     1.390   .     D
C53    C54     1.389   .     D
C53    C58     1.405   .     S
C53    C66     1.452   1_655 S
C54    C55     1.427   .     S
C55    C56     1.428   .     D
C55    C59     1.459   .     S
C56    C57     1.402   .     S
C57    C58     1.405   .     D
C57    C67     1.458   1_645 S
C59    C60     1.417   .     D
C59    C64     1.421   .     S
C60    C61     1.401   .     S
C61    C62     1.415   .     D
C61    C65     1.465   .     S
C62    C63     1.416   .     S
C63    C64     1.399   .     D
C63    C68     1.463   1_545 S
C65    N70     1.305   .     D
C66    C53     1.452   1_455 S
C66    N69     1.297   .     D
C67    C57     1.458   1_465 S
C67    N72     1.302   .     D
C68    C63     1.463   1_565 S
C68    N71     1.302   .     D
