data_422
_audit_creation_date              2023-09-08
_audit_creation_method            'Materials Studio'
_symmetry_space_group_name_H-M    'P1'
_symmetry_Int_Tables_number       1
_symmetry_cell_setting            triclinic
loop_
_symmetry_equiv_pos_as_xyz
  x,y,z
_cell_length_a                    22.6260
_cell_length_b                    20.1920
_cell_length_c                    4.8900
_cell_angle_alpha                 90.0000
_cell_angle_beta                  90.0000
_cell_angle_gamma                 90.5000
loop_
_atom_site_label
_atom_site_type_symbol
_atom_site_fract_x
_atom_site_fract_y
_atom_site_fract_z
_atom_site_U_iso_or_equiv
_atom_site_adp_type
_atom_site_occupancy
H1     H     0.48358   0.60232  -0.52110   0.00000  Uiso   1.00
H2     H     0.55269   0.51266  -0.59221   0.00000  Uiso   1.00
H3     H     0.65159   0.57465   0.12295   0.00000  Uiso   1.00
H4     H     0.58001   0.66194   0.20695   0.00000  Uiso   1.00
H5     H     0.36583   0.65501   0.46620   0.00000  Uiso   1.00
H6     H     0.31698   0.55490   0.62166   0.00000  Uiso   1.00
H7     H     0.39182   0.44665  -0.05720   0.00000  Uiso   1.00
H8     H     0.43035   0.54698  -0.24436   0.00000  Uiso   1.00
H9     H     0.55996   0.72385  -0.47930   0.00000  Uiso   1.00
H10    H     0.61302   0.82713  -0.53311   0.00000  Uiso   1.00
H11    H     0.51743   0.90980   0.15379   0.00000  Uiso   1.00
H12    H     0.46579   0.80472   0.21947   0.00000  Uiso   1.00
H13    H     0.42074   0.79478  -0.34683   0.00000  Uiso   1.00
H14    H     0.35744   0.88928  -0.29654   0.00000  Uiso   1.00
H15    H     0.24231   0.77704   0.23917   0.00000  Uiso   1.00
H16    H     0.30247   0.68307   0.19453   0.00000  Uiso   1.00
H17    H     0.60307   0.94283  -0.65372   0.00000  Uiso   1.00
H18    H     0.57425   0.41586  -0.28355   0.00000  Uiso   1.00
H19    H     0.27283   0.45639   0.72569   0.00000  Uiso   1.00
H20    H     0.33871   0.94233   0.24554   0.00000  Uiso   1.00
H21    H     1.07085   0.25380   0.63465   0.00000  Uiso   1.00
H22    H     0.97626   0.26237   0.41726   0.00000  Uiso   1.00
H23    H     1.03192   0.11928  -0.19746   0.00000  Uiso   1.00
H24    H     1.12701   0.11454   0.01299   0.00000  Uiso   1.00
H25    H     0.89937   0.27098   0.22556   0.00000  Uiso   1.00
H26    H     0.80172   0.27040   0.02840   0.00000  Uiso   1.00
H27    H     0.85245   0.11563  -0.53574   0.00000  Uiso   1.00
H28    H     0.95027   0.11352  -0.33735   0.00000  Uiso   1.00
H29    H     1.11582   0.04934   0.41191   0.00000  Uiso   1.00
H30    H     1.17017  -0.04663   0.25999   0.00000  Uiso   1.00
H31    H     1.33506   0.05654   0.41824   0.00000  Uiso   1.00
H32    H     1.28119   0.15349   0.56204   0.00000  Uiso   1.00
H33    H     0.68487   0.16306  -0.78710   0.00000  Uiso   1.00
H34    H     0.62208   0.06366  -0.81254   0.00000  Uiso   1.00
H35    H     0.70945  -0.01536  -0.09627   0.00000  Uiso   1.00
H36    H     0.77297   0.08261  -0.07518   0.00000  Uiso   1.00
H37    H     0.80042   0.31830  -0.47806   0.00000  Uiso   1.00
H38    H     0.74187   0.41922  -0.43621   0.00000  Uiso   1.00
H39    H     0.58655   0.30073  -0.25018   0.00000  Uiso   1.00
H40    H     0.64452   0.20088  -0.27888   0.00000  Uiso   1.00
H41    H     1.24771   0.21771   0.15994   0.00000  Uiso   1.00
H42    H     1.30208   0.32091   0.19552   0.00000  Uiso   1.00
H43    H     1.20129   0.37260   0.91822   0.00000  Uiso   1.00
H44    H     1.14882   0.26623   0.88981   0.00000  Uiso   1.00
C45    C     0.42061   0.67798  -0.02757   0.00000  Uiso   1.00
C46    C     0.47921   0.68910  -0.09292   0.00000  Uiso   1.00
C47    C     0.40028   0.61178   0.08862   0.00000  Uiso   1.00
C48    C     0.52239   0.63420  -0.13364   0.00000  Uiso   1.00
C49    C     0.37425   0.73267  -0.04389   0.00000  Uiso   1.00
C50    C     0.50714   0.75621  -0.13143   0.00000  Uiso   1.00
C51    C     0.51848   0.59496  -0.36916   0.00000  Uiso   1.00
C52    C     0.55878   0.54530  -0.41434   0.00000  Uiso   1.00
C53    C     0.60667   0.53604  -0.23664   0.00000  Uiso   1.00
C54    C     0.61377   0.57984  -0.01632   0.00000  Uiso   1.00
C55    C     0.57238   0.62838   0.03447   0.00000  Uiso   1.00
C56    C     0.37103   0.60995   0.34241   0.00000  Uiso   1.00
C57    C     0.34371   0.55256   0.43467   0.00000  Uiso   1.00
C58    C     0.35060   0.49249   0.29492   0.00000  Uiso   1.00
C59    C     0.38547   0.49281   0.05835   0.00000  Uiso   1.00
C60    C     0.40847   0.55110  -0.04661   0.00000  Uiso   1.00
C61    C     0.54921   0.76440  -0.33970   0.00000  Uiso   1.00
C62    C     0.57941   0.82347  -0.37130   0.00000  Uiso   1.00
C63    C     0.56884   0.87707  -0.19616   0.00000  Uiso   1.00
C64    C     0.52662   0.86887   0.01223   0.00000  Uiso   1.00
C65    C     0.49679   0.80930   0.04765   0.00000  Uiso   1.00
C66    C     0.38307   0.78953  -0.20711   0.00000  Uiso   1.00
C67    C     0.34610   0.84359  -0.18545   0.00000  Uiso   1.00
C68    C     0.29703   0.84168  -0.01000   0.00000  Uiso   1.00
C69    C     0.28204   0.78114   0.11074   0.00000  Uiso   1.00
C70    C     0.31902   0.72733   0.08989   0.00000  Uiso   1.00
C71    C     0.61800   0.96119  -0.45359   0.00000  Uiso   1.00
C72    C     0.62216   0.42541  -0.29991   0.00000  Uiso   1.00
C73    C     0.28632   0.42034   0.56948   0.00000  Uiso   1.00
C74    C     0.29114   0.94333   0.19761   0.00000  Uiso   1.00
C75    C     1.06250   0.22372   0.45063   0.00000  Uiso   1.00
C76    C     1.00826   0.22857   0.32389   0.00000  Uiso   1.00
C77    C     0.99319   0.19025   0.09039   0.00000  Uiso   1.00
C78    C     1.03846   0.14905  -0.01209   0.00000  Uiso   1.00
C79    C     1.09296   0.14523   0.11131   0.00000  Uiso   1.00
C80    C     1.10582   0.18016   0.35344   0.00000  Uiso   1.00
C81    C     0.93530   0.19240  -0.03524   0.00000  Uiso   1.00
C82    C     0.89098   0.23644   0.05652   0.00000  Uiso   1.00
C83    C     0.83524   0.23679  -0.05644   0.00000  Uiso   1.00
C84    C     0.82004   0.19361  -0.27111   0.00000  Uiso   1.00
C85    C     0.86320   0.14970  -0.36611   0.00000  Uiso   1.00
C86    C     0.91897   0.14939  -0.25299   0.00000  Uiso   1.00
C87    C     0.73218   0.13117  -0.42435   0.00000  Uiso   1.00
C88    C     0.72743   0.25158  -0.38053   0.00000  Uiso   1.00
C89    C     1.19407   0.23409   0.52152   0.00000  Uiso   1.00
C90    C     1.19377   0.11279   0.46360   0.00000  Uiso   1.00
C91    C     1.16441   0.05259   0.40623   0.00000  Uiso   1.00
C92    C     1.19564  -0.00263   0.32308   0.00000  Uiso   1.00
C93    C     1.25751  -0.00197   0.30803   0.00000  Uiso   1.00
C94    C     1.28654   0.05423   0.41115   0.00000  Uiso   1.00
C95    C     1.25571   0.11028   0.48907   0.00000  Uiso   1.00
C96    C     0.69052   0.12321  -0.63526   0.00000  Uiso   1.00
C97    C     0.65523   0.06674  -0.64854   0.00000  Uiso   1.00
C98    C     0.65888   0.01690  -0.45038   0.00000  Uiso   1.00
C99    C     0.70345   0.02314  -0.25252   0.00000  Uiso   1.00
C100   C     0.74006   0.07849  -0.24077   0.00000  Uiso   1.00
C101   C     0.75309   0.31426  -0.42683   0.00000  Uiso   1.00
C102   C     0.71962   0.37130  -0.40320   0.00000  Uiso   1.00
C103   C     0.65935   0.36856  -0.33590   0.00000  Uiso   1.00
C104   C     0.63368   0.30590  -0.30129   0.00000  Uiso   1.00
C105   C     0.66663   0.24869  -0.31976   0.00000  Uiso   1.00
C106   C     1.23805   0.25137   0.33146   0.00000  Uiso   1.00
C107   C     1.26868   0.31068   0.35342   0.00000  Uiso   1.00
C108   C     1.25616   0.35697   0.55907   0.00000  Uiso   1.00
C109   C     1.21268   0.33891   0.75006   0.00000  Uiso   1.00
C110   C     1.18223   0.27888   0.73369   0.00000  Uiso   1.00
N111   N     0.26445   0.89780   0.05619   0.00000  Uiso   1.00
N112   N     0.60136   0.93599  -0.22225   0.00000  Uiso   1.00
N113   N     0.64564   0.48377  -0.27731   0.00000  Uiso   1.00
N114   N     0.32360   0.43322   0.37582   0.00000  Uiso   1.00
N115   N     1.16203   0.17375   0.48491   0.00000  Uiso   1.00
N116   N     0.76191   0.19277  -0.38347   0.00000  Uiso   1.00
loop_
_geom_bond_atom_site_label_1
_geom_bond_atom_site_label_2
_geom_bond_distance
_geom_bond_site_symmetry_2
_ccdc_geom_bond_type
H1     C51     1.095   .     S
H2     C52     1.099   .     S
H3     C54     1.099   .     S
H4     C55     1.095   .     S
H5     C56     1.100   .     S
H6     C57     1.098   .     S
H7     C59     1.101   .     S
H8     C60     1.090   .     S
H9     C61     1.095   .     S
H10    C62     1.099   .     S
H11    C64     1.099   .     S
H12    C65     1.098   .     S
H13    C66     1.097   .     S
H14    C67     1.099   .     S
H15    C69     1.099   .     S
H16    C70     1.093   .     S
H17    C71     1.099   .     S
H18    C72     1.102   .     S
H19    C73     1.100   .     S
H20    C74     1.102   .     S
H21    C75     1.101   .     S
H22    C76     1.099   .     S
H23    C78     1.097   .     S
H24    C79     1.103   .     S
H25    C82     1.097   .     S
H26    C83     1.103   .     S
H27    C85     1.103   .     S
H28    C86     1.098   .     S
H29    C91     1.101   .     S
H30    C92     1.099   .     S
H31    C94     1.099   .     S
H32    C95     1.101   .     S
H33    C96     1.103   .     S
H34    C97     1.099   .     S
H35    C99     1.099   .     S
H36    C100    1.103   .     S
H37    C101    1.102   .     S
H38    C102    1.099   .     S
H39    C104    1.099   .     S
H40    C105    1.102   .     S
H41    C106    1.103   .     S
H42    C107    1.099   .     S
H43    C109    1.099   .     S
H44    C110    1.103   .     S
C45    C46     1.380   .     D
C45    C47     1.520   .     S
C45    C49     1.532   .     S
C46    C48     1.497   .     S
C46    C50     1.502   .     S
C47    C56     1.407   .     D
C47    C60     1.406   .     S
C48    C51     1.400   .     D
C48    C55     1.404   .     S
C49    C66     1.411   .     D
C49    C70     1.414   .     S
C50    C61     1.403   .     D
C50    C65     1.405   .     S
C51    C52     1.379   .     S
C52    C53     1.403   .     D
C53    C54     1.402   .     S
C53    N113    1.395   .     S
C54    C55     1.384   .     D
C56    C57     1.384   .     S
C57    C58     1.402   .     D
C58    C59     1.400   .     S
C58    N114    1.396   .     S
C59    C60     1.382   .     D
C61    C62     1.378   .     S
C62    C63     1.402   .     D
C63    C64     1.406   .     S
C63    N112    1.399   .     S
C64    C65     1.385   .     D
C66    C67     1.385   .     S
C67    C68     1.403   .     D
C68    C69     1.397   .     S
C68    N111    1.395   .     S
C69    C70     1.381   .     D
C71    C98     1.450   1_565 S
C71    N112    1.295   .     D
C72    C103    1.440   .     S
C72    N113    1.293   .     D
C73    C108    1.446   1_455 S
C73    N114    1.293   .     D
C74    C93     1.451   1_465 S
C74    N111    1.296   .     D
C75    C76     1.379   .     S
C75    C80     1.406   .     D
C76    C77     1.419   .     D
C77    C78     1.417   .     S
C77    C81     1.448   .     S
C78    C79     1.376   .     D
C79    C80     1.407   .     S
C80    N115    1.432   .     S
C81    C82     1.419   .     D
C81    C86     1.421   .     S
C82    C83     1.377   .     S
C83    C84     1.405   .     D
C84    C85     1.404   .     S
C84    N116    1.425   .     S
C85    C86     1.378   .     D
C87    C96     1.405   .     D
C87    C100    1.405   .     S
C87    N116    1.423   .     S
C88    C101    1.406   .     D
C88    C105    1.408   .     S
C88    N116    1.427   .     S
C89    C106    1.403   .     D
C89    C110    1.404   .     S
C89    N115    1.424   .     S
C90    C91     1.408   .     D
C90    C95     1.408   .     S
C90    N115    1.434   .     S
C91    C92     1.386   .     S
C92    C93     1.402   .     D
C93    C74     1.451   1_645 S
C93    C94     1.400   .     S
C94    C95     1.388   .     D
C96    C97     1.388   .     S
C97    C98     1.400   .     D
C98    C71     1.450   1_545 S
C98    C99     1.402   .     S
C99    C100    1.386   .     D
C101   C102    1.389   .     S
C102   C103    1.403   .     D
C103   C104    1.398   .     S
C104   C105    1.383   .     D
C106   C107    1.383   .     S
C107   C108    1.404   .     D
C108   C73     1.446   1_655 S
C108   C109    1.402   .     S
C109   C110    1.391   .     D
