data_423
_audit_creation_date              2023-09-08
_audit_creation_method            'Materials Studio'
_symmetry_space_group_name_H-M    'P1'
_symmetry_Int_Tables_number       1
_symmetry_cell_setting            triclinic
loop_
_symmetry_equiv_pos_as_xyz
  x,y,z
_cell_length_a                    32.3500
_cell_length_b                    18.3600
_cell_length_c                    3.8200
_cell_angle_alpha                 90.0000
_cell_angle_beta                  90.0000
_cell_angle_gamma                 122.0400
loop_
_atom_site_label
_atom_site_type_symbol
_atom_site_fract_x
_atom_site_fract_y
_atom_site_fract_z
_atom_site_U_iso_or_equiv
_atom_site_adp_type
_atom_site_occupancy
H1     H     0.17119   0.09728   0.78099   0.00000  Uiso   1.00
H2     H     0.24511   0.09971   0.81021   0.00000  Uiso   1.00
H3     H     0.32448   0.36394   0.44752   0.00000  Uiso   1.00
H4     H     0.25274   0.36759   0.49597   0.00000  Uiso   1.00
H5     H     0.22994   0.38629   1.04702   0.00000  Uiso   1.00
H6     H     0.24724   0.52995   0.96613   0.00000  Uiso   1.00
H7     H     0.12371   0.43188   0.26510   0.00000  Uiso   1.00
H8     H     0.11126   0.29025   0.30704   0.00000  Uiso   1.00
H9     H     0.06750   0.20882   0.64100   0.00000  Uiso   1.00
H10    H    -0.00696   0.08844   0.83078   0.00000  Uiso   1.00
H11    H     0.07014  -0.01010   1.37599   0.00000  Uiso   1.00
H12    H     0.14633   0.11581   1.21305   0.00000  Uiso   1.00
H13    H     0.17178   0.58968   0.40040   0.00000  Uiso   1.00
H14    H     0.30262   0.10415   0.56839   0.00000  Uiso   1.00
H15    H     0.45774   0.35813   0.94373   0.00000  Uiso   1.00
H16    H     0.44829   0.11479   0.60832   0.00000  Uiso   1.00
H17    H     0.51711   0.10852   0.79920   0.00000  Uiso   1.00
H18    H     0.56455   0.32992   1.46033   0.00000  Uiso   1.00
H19    H     0.49552   0.33417   1.29545   0.00000  Uiso   1.00
H20    H     0.49688   0.04890   1.29267   0.00000  Uiso   1.00
H21    H     0.48271  -0.09047   1.34027   0.00000  Uiso   1.00
H22    H     0.63687   0.01466   1.47785   0.00000  Uiso   1.00
H23    H     0.65265   0.15716   1.42347   0.00000  Uiso   1.00
H24    H     0.66275   0.22294   0.91423   0.00000  Uiso   1.00
H25    H     0.74657   0.34397   0.92327   0.00000  Uiso   1.00
H26    H     0.70472   0.47877   1.62552   0.00000  Uiso   1.00
H27    H     0.62368   0.35409   1.65874   0.00000  Uiso   1.00
H28    H     0.35863   0.40000   0.92790   0.00000  Uiso   1.00
H29    H     0.80913   0.48730   1.09798   0.00000  Uiso   1.00
H30    H     0.52702   0.58400   0.99105   0.00000  Uiso   1.00
H31    H     0.55940   0.73154   1.17889   0.00000  Uiso   1.00
H32    H     0.41209   0.67267   1.34450   0.00000  Uiso   1.00
H33    H     0.37971   0.52514   1.15550   0.00000  Uiso   1.00
H34    H     0.32747   0.75925   0.88891   0.00000  Uiso   1.00
H35    H     0.36716   0.91495   0.86292   0.00000  Uiso   1.00
H36    H     0.23866   0.88572   0.36539   0.00000  Uiso   1.00
H37    H     0.19891   0.72976   0.39058   0.00000  Uiso   1.00
H38    H     0.88354   0.59090   1.22292   0.00000  Uiso   1.00
H39    H     0.96023   0.72896   1.18546   0.00000  Uiso   1.00
H40    H     0.88833   0.85710   1.55605   0.00000  Uiso   1.00
H41    H     0.81130   0.71872   1.59401   0.00000  Uiso   1.00
H42    H     0.38632   1.04746   0.94095   0.00000  Uiso   1.00
H43    H     0.58097   0.85495   1.44239   0.00000  Uiso   1.00
H44    H     0.94466   0.95329   1.13061   0.00000  Uiso   1.00
C45    C     0.16817  -2.67548  -0.30509   0.00000  Uiso   1.00
C46    C     0.11578  -2.82853  -0.12442   0.00000  Uiso   1.00
C47    C     0.20467  -2.76440  -0.31129   0.00000  Uiso   1.00
C48    C     0.20489  -2.84021  -0.26139   0.00000  Uiso   1.00
C49    C     0.24740  -2.84074  -0.26959   0.00000  Uiso   1.00
C50    C     0.29353  -2.76591  -0.35030   0.00000  Uiso   1.00
C51    C     0.29133  -2.69450  -0.46042   0.00000  Uiso   1.00
C52    C     0.24936  -2.69294  -0.42841   0.00000  Uiso   1.00
C53    C     0.20629  -2.60437  -0.12825   0.00000  Uiso   1.00
C54    C     0.21593  -2.52208  -0.17636   0.00000  Uiso   1.00
C55    C     0.18676  -2.50553  -0.39135   0.00000  Uiso   1.00
C56    C     0.14730  -2.57682  -0.55524   0.00000  Uiso   1.00
C57    C     0.13891  -2.65911  -0.52214   0.00000  Uiso   1.00
C58    C     0.07063  -2.83747  -0.19963   0.00000  Uiso   1.00
C59    C     0.02663  -2.90801  -0.08751   0.00000  Uiso   1.00
C60    C     0.02411  -2.97478   0.10655   0.00000  Uiso   1.00
C61    C     0.06893  -2.96296   0.20610   0.00000  Uiso   1.00
C62    C     0.11307  -2.89152   0.10141   0.00000  Uiso   1.00
C63    C     0.19772  -2.41914  -0.44783   0.00000  Uiso   1.00
C64    C     0.33848  -2.76281  -0.30213   0.00000  Uiso   1.00
C65    C     0.33725  -2.84032  -0.33962   0.00000  Uiso   1.00
C66    C     0.37401  -2.85207  -0.23745   0.00000  Uiso   1.00
C67    C     0.41982  -2.77710  -0.14135   0.00000  Uiso   1.00
C68    C     0.42233  -2.69809  -0.13083   0.00000  Uiso   1.00
C69    C     0.38351  -2.68840  -0.18469   0.00000  Uiso   1.00
C70    C     0.46283  -2.77778  -0.05310   0.00000  Uiso   1.00
C71    C     0.47233  -2.83914  -0.19159   0.00000  Uiso   1.00
C72    C     0.51222  -2.84187  -0.08812   0.00000  Uiso   1.00
C73    C     0.54686  -2.78415   0.15376   0.00000  Uiso   1.00
C74    C     0.54032  -2.71805   0.26803   0.00000  Uiso   1.00
C75    C     0.49981  -2.71562   0.17300   0.00000  Uiso   1.00
C76    C     0.63500  -2.72189   0.27550   0.00000  Uiso   1.00
C77    C     0.57703  -2.88089   0.31911   0.00000  Uiso   1.00
C78    C     0.52957  -2.95490   0.31495   0.00000  Uiso   1.00
C79    C     0.52088  -3.03682   0.35430   0.00000  Uiso   1.00
C80    C     0.55860  -3.05182   0.40270   0.00000  Uiso   1.00
C81    C     0.60556  -2.97864   0.42977   0.00000  Uiso   1.00
C82    C     0.61462  -2.89600   0.39221   0.00000  Uiso   1.00
C83    C     0.67198  -2.72140   0.07981   0.00000  Uiso   1.00
C84    C     0.71976  -2.65173   0.08394   0.00000  Uiso   1.00
C85    C     0.73345  -2.57662   0.27086   0.00000  Uiso   1.00
C86    C     0.69648  -2.57691   0.46378   0.00000  Uiso   1.00
C87    C     0.64893  -2.64756   0.47164   0.00000  Uiso   1.00
C88    C     0.39072  -2.60479  -0.10806   0.00000  Uiso   1.00
C89    C     0.78349  -2.50476   0.25803   0.00000  Uiso   1.00
C90    C     0.26009  -2.26782  -0.35583   0.00000  Uiso   1.00
C91    C     0.45102  -2.45683   0.05512   0.00000  Uiso   1.00
C92    C     0.84079  -2.35633   0.40697   0.00000  Uiso   1.00
C93    C     0.50140  -2.39694   0.07035   0.00000  Uiso   1.00
C94    C     0.51972  -2.31346   0.17958   0.00000  Uiso   1.00
C95    C     0.48819  -2.28634   0.28034   0.00000  Uiso   1.00
C96    C     0.43777  -2.34657   0.26946   0.00000  Uiso   1.00
C97    C     0.41943  -2.43012   0.16005   0.00000  Uiso   1.00
C98    C     0.30762  -2.21336  -0.22851   0.00000  Uiso   1.00
C99    C     0.33011  -2.12502  -0.24328   0.00000  Uiso   1.00
C100   C     0.30571  -2.08745  -0.38640   0.00000  Uiso   1.00
C101   C     0.25851  -2.14190  -0.51919   0.00000  Uiso   1.00
C102   C     0.23601  -2.23026  -0.50428   0.00000  Uiso   1.00
C103   C     0.88388  -2.35111   0.29902   0.00000  Uiso   1.00
C104   C     0.92759  -2.27277   0.27915   0.00000  Uiso   1.00
C105   C     0.93038  -2.19589   0.36321   0.00000  Uiso   1.00
C106   C     0.88770  -2.20132   0.48232   0.00000  Uiso   1.00
C107   C     0.84407  -2.27972   0.50461   0.00000  Uiso   1.00
C108   C     0.36375  -1.93923  -0.22995   0.00000  Uiso   1.00
C109   C     0.54935  -2.13792   0.42396   0.00000  Uiso   1.00
C110   C     0.97704  -2.04902   0.19767   0.00000  Uiso   1.00
N111   N     0.16189  -2.75852  -0.25912   0.00000  Uiso   1.00
N112   N     0.58594  -2.79524   0.26551   0.00000  Uiso   1.00
N113   N     0.23881  -2.35659  -0.32850   0.00000  Uiso   1.00
N114   N     0.43469  -2.54003  -0.06088   0.00000  Uiso   1.00
N115   N     0.79528  -2.43388   0.41646   0.00000  Uiso   1.00
N116   N     0.32607  -1.99876  -0.39715   0.00000  Uiso   1.00
N117   N     0.50504  -2.20138   0.37386   0.00000  Uiso   1.00
N118   N     0.97454  -2.11716   0.31890   0.00000  Uiso   1.00
loop_
_geom_bond_atom_site_label_1
_geom_bond_atom_site_label_2
_geom_bond_distance
_geom_bond_site_symmetry_2
_ccdc_geom_bond_type
H1     C48     1.097   1_586 S
H2     C49     1.099   1_586 S
H3     C51     1.097   1_586 S
H4     C52     1.096   1_586 S
H5     C53     1.096   1_586 S
H6     C54     1.099   1_586 S
H7     C56     1.099   1_586 S
H8     C57     1.099   1_586 S
H9     C58     1.093   1_586 S
H10    C59     1.099   1_586 S
H11    C61     1.099   1_586 S
H12    C62     1.097   1_586 S
H13    C63     1.100   1_586 S
H14    C65     1.098   1_586 S
H15    C68     1.097   1_586 S
H16    C71     1.098   1_586 S
H17    C72     1.092   1_586 S
H18    C74     1.094   1_586 S
H19    C75     1.099   1_586 S
H20    C78     1.099   1_586 S
H21    C79     1.099   1_586 S
H22    C81     1.099   1_586 S
H23    C82     1.098   1_586 S
H24    C83     1.100   1_586 S
H25    C84     1.099   1_586 S
H26    C86     1.099   1_586 S
H27    C87     1.098   1_586 S
H28    C88     1.096   1_586 S
H29    C89     1.101   1_586 S
H30    C93     1.099   1_586 S
H31    C94     1.098   1_586 S
H32    C96     1.099   1_586 S
H33    C97     1.098   1_586 S
H34    C98     1.100   1_586 S
H35    C99     1.098   1_586 S
H36    C101    1.100   1_586 S
H37    C102    1.098   1_586 S
H38    C103    1.098   1_586 S
H39    C104    1.099   1_586 S
H40    C106    1.099   1_586 S
H41    C107    1.100   1_586 S
H42    C108    1.099   1_586 S
H43    C109    1.100   1_586 S
H44    C110    1.101   1_586 S
C45    C53     1.405   .     D
C45    C57     1.406   .     S
C45    N111    1.438   .     S
C46    C58     1.410   .     D
C46    C62     1.408   .     S
C46    N111    1.452   .     S
C47    C48     1.409   .     S
C47    C52     1.414   .     D
C47    N111    1.458   .     S
C48    H1      1.097   1_524 S
C48    C49     1.381   .     D
C49    H2      1.099   1_524 S
C49    C50     1.426   .     S
C50    C51     1.414   .     D
C50    C64     1.437   .     S
C51    H3      1.097   1_524 S
C51    C52     1.379   .     S
C52    H4      1.096   1_524 S
C53    H5      1.096   1_524 S
C53    C54     1.383   .     S
C54    H6      1.099   1_524 S
C54    C55     1.401   .     D
C55    C56     1.401   .     S
C55    C63     1.446   .     S
C56    H7      1.099   1_524 S
C56    C57     1.392   .     D
C57    H8      1.099   1_524 S
C58    H9      1.093   1_524 S
C58    C59     1.390   .     S
C59    H10     1.099   1_524 S
C59    C60     1.397   .     D
C60    C61     1.400   .     S
C60    C110    1.448   1_445 S
C61    H11     1.099   1_524 S
C61    C62     1.390   .     D
C62    H12     1.097   1_524 S
C63    H13     1.100   1_524 S
C63    N113    1.294   .     D
C64    C65     1.410   .     D
C64    C69     1.442   .     S
C65    H14     1.098   1_524 S
C65    C66     1.373   .     S
C66    C67     1.436   .     D
C66    C108    1.452   1_545 S
C67    C68     1.410   .     S
C67    C70     1.438   .     S
C68    H15     1.097   1_524 S
C68    C69     1.374   .     D
C69    C88     1.455   .     S
C70    C71     1.418   .     D
C70    C75     1.425   .     S
C71    H16     1.098   1_524 S
C71    C72     1.376   .     S
C72    H17     1.092   1_524 S
C72    C73     1.404   .     D
C73    C74     1.407   .     S
C73    N112    1.447   .     S
C74    H18     1.094   1_524 S
C74    C75     1.383   .     D
C75    H19     1.099   1_524 S
C76    C83     1.407   .     D
C76    C87     1.405   .     S
C76    N112    1.437   .     S
C77    C78     1.411   .     D
C77    C82     1.411   .     S
C77    N112    1.455   .     S
C78    H20     1.099   1_524 S
C78    C79     1.384   .     S
C79    H21     1.099   1_524 S
C79    C80     1.398   .     D
C80    C81     1.399   .     S
C80    C109    1.447   1_545 S
C81    H22     1.099   1_524 S
C81    C82     1.392   .     D
C82    H23     1.098   1_524 S
C83    H24     1.100   1_524 S
C83    C84     1.388   .     S
C84    H25     1.099   1_524 S
C84    C85     1.400   .     D
C85    C86     1.402   .     S
C85    C89     1.448   .     S
C86    H26     1.099   1_524 S
C86    C87     1.390   .     D
C87    H27     1.098   1_524 S
C88    H28     1.096   1_524 S
C88    N114    1.294   .     D
C89    H29     1.101   1_524 S
C89    N115    1.296   .     D
C90    C98     1.403   .     D
C90    C102    1.405   .     S
C90    N113    1.397   .     S
C91    C93     1.403   .     D
C91    C97     1.406   .     S
C91    N114    1.397   .     S
C92    C103    1.407   .     D
C92    C107    1.404   .     S
C92    N115    1.404   .     S
C93    H30     1.099   1_524 S
C93    C94     1.382   .     S
C94    H31     1.098   1_524 S
C94    C95     1.405   .     D
C95    C96     1.404   .     S
C95    N117    1.398   .     S
C96    H32     1.099   1_524 S
C96    C97     1.384   .     D
C97    H33     1.098   1_524 S
C98    H34     1.100   1_524 S
C98    C99     1.382   .     S
C99    H35     1.098   1_524 S
C99    C100    1.406   .     D
C100   C101    1.403   .     S
C100   N116    1.396   .     S
C101   H36     1.100   1_524 S
C101   C102    1.383   .     D
C102   H37     1.098   1_524 S
C103   H38     1.098   1_524 S
C103   C104    1.384   .     S
C104   H39     1.099   1_524 S
C104   C105    1.403   .     D
C105   C106    1.406   .     S
C105   N118    1.403   .     S
C106   H40     1.099   1_524 S
C106   C107    1.384   .     D
C107   H41     1.100   1_524 S
C108   C66     1.452   1_565 S
C108   H42     1.099   1_524 S
C108   N116    1.294   .     D
C109   H43     1.100   1_524 S
C109   C80     1.447   1_565 S
C109   N117    1.295   .     D
C110   C60     1.448   1_665 S
C110   H44     1.101   1_524 S
C110   N118    1.296   .     D
