data_424
_audit_creation_date              2023-09-08
_audit_creation_method            'Materials Studio'
_symmetry_space_group_name_H-M    'P1'
_symmetry_Int_Tables_number       1
_symmetry_cell_setting            triclinic
loop_
_symmetry_equiv_pos_as_xyz
  x,y,z
_cell_length_a                    34.4632
_cell_length_b                    35.4951
_cell_length_c                    3.7199
_cell_angle_alpha                 90.0000
_cell_angle_beta                  104.5695
_cell_angle_gamma                 90.0000
loop_
_atom_site_label
_atom_site_type_symbol
_atom_site_fract_x
_atom_site_fract_y
_atom_site_fract_z
_atom_site_U_iso_or_equiv
_atom_site_adp_type
_atom_site_occupancy
C1     C     0.03465   0.91991   0.47139   0.00000  Uiso   1.00
C2     C     0.03392   0.95979   0.44609   0.00000  Uiso   1.00
C3     C     0.06520   0.98089   0.35066   0.00000  Uiso   1.00
C4     C     0.92904   0.89693   0.52510   0.00000  Uiso   1.00
C5     C     0.93256   0.86166   0.69997   0.00000  Uiso   1.00
C6     C     0.89946   0.83919   0.68483   0.00000  Uiso   1.00
C7     C     0.86105   0.85129   0.49524   0.00000  Uiso   1.00
C8     C     0.85730   0.88671   0.32322   0.00000  Uiso   1.00
C9     C     0.89061   0.90866   0.33098   0.00000  Uiso   1.00
C10    C     0.17516   0.82914   0.51454   0.00000  Uiso   1.00
C11    C     0.78445   0.77033   0.47685   0.00000  Uiso   1.00
C12    C     0.74651   0.78725   0.38317   0.00000  Uiso   1.00
C13    C     0.71279   0.76737   0.40728   0.00000  Uiso   1.00
C14    C     0.67855   0.70890   0.53757   0.00000  Uiso   1.00
H15    H     0.70175   0.34561   0.50164   0.00000  Uiso   1.00
H16    H     0.41102   0.53386   0.73921   0.00000  Uiso   1.00
H17    H     0.53820   0.64848   0.14058   0.00000  Uiso   1.00
H18    H     0.59645   0.68757   0.16491   0.00000  Uiso   1.00
H19    H     0.67226   0.60333   0.83139   0.00000  Uiso   1.00
H20    H     0.61352   0.56502   0.82719   0.00000  Uiso   1.00
H21    H     0.74283   0.81634   0.28289   0.00000  Uiso   1.00
C22    C     0.64573   0.26809   0.58542   0.00000  Uiso   1.00
N23    N     0.62077   0.24881   0.64656   0.00000  Uiso   1.00
H24    H     0.68354   0.78123   0.32782   0.00000  Uiso   1.00
C25    C     0.53465   0.41991   0.47139   0.00000  Uiso   1.00
C26    C     0.53392   0.45979   0.44609   0.00000  Uiso   1.00
C27    C     0.56520   0.48089   0.35066   0.00000  Uiso   1.00
C28    C     0.42904   0.39693   0.52510   0.00000  Uiso   1.00
C29    C     0.43256   0.36166   0.69997   0.00000  Uiso   1.00
C30    C     0.39946   0.33919   0.68483   0.00000  Uiso   1.00
C31    C     0.36105   0.35129   0.49524   0.00000  Uiso   1.00
C32    C     0.35730   0.38671   0.32322   0.00000  Uiso   1.00
C33    C     0.39061   0.40866   0.33098   0.00000  Uiso   1.00
C34    C     0.67516   0.32914   0.51454   0.00000  Uiso   1.00
C35    C     0.28445   0.27033   0.47685   0.00000  Uiso   1.00
C36    C     0.24651   0.28725   0.38317   0.00000  Uiso   1.00
C37    C     0.21279   0.26737   0.40728   0.00000  Uiso   1.00
C38    C     0.17855   0.20890   0.53757   0.00000  Uiso   1.00
H39    H     0.20175   0.84561   0.50164   0.00000  Uiso   1.00
H40    H     0.91102   0.03386   0.73921   0.00000  Uiso   1.00
H41    H     0.03820   0.14848   0.14058   0.00000  Uiso   1.00
H42    H     0.09645   0.18757   0.16491   0.00000  Uiso   1.00
H43    H     0.17226   0.10333   0.83139   0.00000  Uiso   1.00
H44    H     0.11352   0.06502   0.82719   0.00000  Uiso   1.00
H45    H     0.24283   0.31634   0.28289   0.00000  Uiso   1.00
C46    C     0.14573   0.76809   0.58542   0.00000  Uiso   1.00
N47    N     0.12077   0.74881   0.64656   0.00000  Uiso   1.00
H48    H     0.18354   0.28123   0.32782   0.00000  Uiso   1.00
C49    C     0.96535   0.91991   0.52861   0.00000  Uiso   1.00
C50    C     0.96608   0.95979   0.55391   0.00000  Uiso   1.00
C51    C     0.93480   0.98089   0.64934   0.00000  Uiso   1.00
C52    C     0.07096   0.89693   0.47490   0.00000  Uiso   1.00
C53    C     0.06744   0.86166   0.30003   0.00000  Uiso   1.00
C54    C     0.10054   0.83919   0.31517   0.00000  Uiso   1.00
C55    C     0.13895   0.85129   0.50476   0.00000  Uiso   1.00
C56    C     0.14270   0.88671   0.67678   0.00000  Uiso   1.00
C57    C     0.10939   0.90866   0.66902   0.00000  Uiso   1.00
C58    C     0.82484   0.82914   0.48546   0.00000  Uiso   1.00
C59    C     0.21555   0.77033   0.52315   0.00000  Uiso   1.00
C60    C     0.25349   0.78725   0.61683   0.00000  Uiso   1.00
C61    C     0.28721   0.76737   0.59272   0.00000  Uiso   1.00
C62    C     0.32145   0.70890   0.46243   0.00000  Uiso   1.00
H63    H     0.29825   0.34561   0.49836   0.00000  Uiso   1.00
H64    H     0.58898   0.53386   0.26079   0.00000  Uiso   1.00
H65    H     0.46180   0.64848   0.85942   0.00000  Uiso   1.00
H66    H     0.40355   0.68757   0.83509   0.00000  Uiso   1.00
H67    H     0.32774   0.60333   0.16861   0.00000  Uiso   1.00
H68    H     0.38648   0.56502   0.17281   0.00000  Uiso   1.00
H69    H     0.25717   0.81634   0.71711   0.00000  Uiso   1.00
C70    C     0.35427   0.26809   0.41458   0.00000  Uiso   1.00
N71    N     0.37923   0.24881   0.35344   0.00000  Uiso   1.00
H72    H     0.31646   0.78123   0.67218   0.00000  Uiso   1.00
C73    C     0.46535   0.41991   0.52861   0.00000  Uiso   1.00
C74    C     0.46608   0.45979   0.55391   0.00000  Uiso   1.00
C75    C     0.43480   0.48089   0.64934   0.00000  Uiso   1.00
C76    C     0.57096   0.39693   0.47490   0.00000  Uiso   1.00
C77    C     0.56744   0.36166   0.30003   0.00000  Uiso   1.00
C78    C     0.60054   0.33919   0.31517   0.00000  Uiso   1.00
C79    C     0.63895   0.35129   0.50476   0.00000  Uiso   1.00
C80    C     0.64270   0.38671   0.67678   0.00000  Uiso   1.00
C81    C     0.60939   0.40866   0.66902   0.00000  Uiso   1.00
C82    C     0.32484   0.32914   0.48546   0.00000  Uiso   1.00
C83    C     0.71555   0.27033   0.52315   0.00000  Uiso   1.00
C84    C     0.75349   0.28725   0.61683   0.00000  Uiso   1.00
C85    C     0.78721   0.26737   0.59272   0.00000  Uiso   1.00
C86    C     0.82145   0.20890   0.46243   0.00000  Uiso   1.00
H87    H     0.79825   0.84561   0.49836   0.00000  Uiso   1.00
H88    H     0.08898   0.03386   0.26079   0.00000  Uiso   1.00
H89    H     0.96180   0.14848   0.85942   0.00000  Uiso   1.00
H90    H     0.90355   0.18757   0.83509   0.00000  Uiso   1.00
H91    H     0.82774   0.10333   0.16861   0.00000  Uiso   1.00
H92    H     0.88648   0.06502   0.17281   0.00000  Uiso   1.00
H93    H     0.75717   0.31634   0.71711   0.00000  Uiso   1.00
C94    C     0.85427   0.76809   0.41458   0.00000  Uiso   1.00
N95    N     0.87923   0.74881   0.35344   0.00000  Uiso   1.00
H96    H     0.81646   0.28123   0.67218   0.00000  Uiso   1.00
C97    C     0.96535   0.08009   0.52861   0.00000  Uiso   1.00
C98    C     0.96608   0.04021   0.55391   0.00000  Uiso   1.00
C99    C     0.93480   0.01911   0.64934   0.00000  Uiso   1.00
C100   C     0.07096   0.10307   0.47490   0.00000  Uiso   1.00
C101   C     0.06744   0.13834   0.30003   0.00000  Uiso   1.00
C102   C     0.10054   0.16081   0.31517   0.00000  Uiso   1.00
C103   C     0.13895   0.14871   0.50476   0.00000  Uiso   1.00
C104   C     0.14270   0.11329   0.67678   0.00000  Uiso   1.00
C105   C     0.10939   0.09134   0.66902   0.00000  Uiso   1.00
C106   C     0.82484   0.17086   0.48546   0.00000  Uiso   1.00
C107   C     0.21555   0.22967   0.52315   0.00000  Uiso   1.00
C108   C     0.25349   0.21275   0.61683   0.00000  Uiso   1.00
C109   C     0.28721   0.23263   0.59272   0.00000  Uiso   1.00
C110   C     0.32145   0.29110   0.46243   0.00000  Uiso   1.00
H111   H     0.29825   0.65439   0.49836   0.00000  Uiso   1.00
H112   H     0.58898   0.46614   0.26079   0.00000  Uiso   1.00
H113   H     0.46180   0.35152   0.85942   0.00000  Uiso   1.00
H114   H     0.40355   0.31243   0.83509   0.00000  Uiso   1.00
H115   H     0.32774   0.39667   0.16861   0.00000  Uiso   1.00
H116   H     0.38648   0.43498   0.17281   0.00000  Uiso   1.00
H117   H     0.25717   0.18366   0.71711   0.00000  Uiso   1.00
C118   C     0.35427   0.73191   0.41458   0.00000  Uiso   1.00
N119   N     0.37923   0.75119   0.35344   0.00000  Uiso   1.00
H120   H     0.31646   0.21877   0.67218   0.00000  Uiso   1.00
C121   C     0.46535   0.58009   0.52861   0.00000  Uiso   1.00
C122   C     0.46608   0.54021   0.55391   0.00000  Uiso   1.00
C123   C     0.43480   0.51911   0.64934   0.00000  Uiso   1.00
C124   C     0.57096   0.60307   0.47490   0.00000  Uiso   1.00
C125   C     0.56744   0.63834   0.30003   0.00000  Uiso   1.00
C126   C     0.60054   0.66081   0.31517   0.00000  Uiso   1.00
C127   C     0.63895   0.64871   0.50476   0.00000  Uiso   1.00
C128   C     0.64270   0.61329   0.67678   0.00000  Uiso   1.00
C129   C     0.60939   0.59134   0.66902   0.00000  Uiso   1.00
C130   C     0.32484   0.67086   0.48546   0.00000  Uiso   1.00
C131   C     0.71555   0.72967   0.52315   0.00000  Uiso   1.00
C132   C     0.75349   0.71275   0.61683   0.00000  Uiso   1.00
C133   C     0.78721   0.73263   0.59272   0.00000  Uiso   1.00
C134   C     0.82145   0.79110   0.46243   0.00000  Uiso   1.00
H135   H     0.79825   0.15439   0.49836   0.00000  Uiso   1.00
H136   H     0.08898   0.96614   0.26079   0.00000  Uiso   1.00
H137   H     0.96180   0.85152   0.85942   0.00000  Uiso   1.00
H138   H     0.90355   0.81243   0.83509   0.00000  Uiso   1.00
H139   H     0.82774   0.89667   0.16861   0.00000  Uiso   1.00
H140   H     0.88648   0.93498   0.17281   0.00000  Uiso   1.00
H141   H     0.75717   0.68366   0.71711   0.00000  Uiso   1.00
C142   C     0.85427   0.23191   0.41458   0.00000  Uiso   1.00
N143   N     0.87923   0.25119   0.35344   0.00000  Uiso   1.00
H144   H     0.81646   0.71877   0.67218   0.00000  Uiso   1.00
C145   C     0.03465   0.08009   0.47139   0.00000  Uiso   1.00
C146   C     0.03392   0.04021   0.44609   0.00000  Uiso   1.00
C147   C     0.06520   0.01911   0.35066   0.00000  Uiso   1.00
C148   C     0.92904   0.10307   0.52510   0.00000  Uiso   1.00
C149   C     0.93256   0.13834   0.69997   0.00000  Uiso   1.00
C150   C     0.89946   0.16081   0.68483   0.00000  Uiso   1.00
C151   C     0.86105   0.14871   0.49524   0.00000  Uiso   1.00
C152   C     0.85730   0.11329   0.32322   0.00000  Uiso   1.00
C153   C     0.89061   0.09134   0.33098   0.00000  Uiso   1.00
C154   C     0.17516   0.17086   0.51454   0.00000  Uiso   1.00
C155   C     0.78445   0.22967   0.47685   0.00000  Uiso   1.00
C156   C     0.74651   0.21275   0.38317   0.00000  Uiso   1.00
C157   C     0.71279   0.23263   0.40728   0.00000  Uiso   1.00
C158   C     0.67855   0.29110   0.53757   0.00000  Uiso   1.00
H159   H     0.70175   0.65439   0.50164   0.00000  Uiso   1.00
H160   H     0.41102   0.46614   0.73921   0.00000  Uiso   1.00
H161   H     0.53820   0.35152   0.14058   0.00000  Uiso   1.00
H162   H     0.59645   0.31243   0.16491   0.00000  Uiso   1.00
H163   H     0.67226   0.39667   0.83139   0.00000  Uiso   1.00
H164   H     0.61352   0.43498   0.82719   0.00000  Uiso   1.00
H165   H     0.74283   0.18366   0.28289   0.00000  Uiso   1.00
C166   C     0.64573   0.73191   0.58542   0.00000  Uiso   1.00
N167   N     0.62077   0.75119   0.64656   0.00000  Uiso   1.00
H168   H     0.68354   0.21877   0.32782   0.00000  Uiso   1.00
C169   C     0.53465   0.58009   0.47139   0.00000  Uiso   1.00
C170   C     0.53392   0.54021   0.44609   0.00000  Uiso   1.00
C171   C     0.56520   0.51911   0.35066   0.00000  Uiso   1.00
C172   C     0.42904   0.60307   0.52510   0.00000  Uiso   1.00
C173   C     0.43256   0.63834   0.69997   0.00000  Uiso   1.00
C174   C     0.39946   0.66081   0.68483   0.00000  Uiso   1.00
C175   C     0.36105   0.64871   0.49524   0.00000  Uiso   1.00
C176   C     0.35730   0.61329   0.32322   0.00000  Uiso   1.00
C177   C     0.39061   0.59134   0.33098   0.00000  Uiso   1.00
C178   C     0.67516   0.67086   0.51454   0.00000  Uiso   1.00
C179   C     0.28445   0.72967   0.47685   0.00000  Uiso   1.00
C180   C     0.24651   0.71275   0.38317   0.00000  Uiso   1.00
C181   C     0.21279   0.73263   0.40728   0.00000  Uiso   1.00
C182   C     0.17855   0.79110   0.53757   0.00000  Uiso   1.00
H183   H     0.20175   0.15439   0.50164   0.00000  Uiso   1.00
H184   H     0.91102   0.96614   0.73921   0.00000  Uiso   1.00
H185   H     0.03820   0.85152   0.14058   0.00000  Uiso   1.00
H186   H     0.09645   0.81243   0.16491   0.00000  Uiso   1.00
H187   H     0.17226   0.89667   0.83139   0.00000  Uiso   1.00
H188   H     0.11352   0.93498   0.82719   0.00000  Uiso   1.00
H189   H     0.24283   0.68366   0.28289   0.00000  Uiso   1.00
C190   C     0.14573   0.23191   0.58542   0.00000  Uiso   1.00
N191   N     0.12077   0.25119   0.64656   0.00000  Uiso   1.00
H192   H     0.18354   0.71877   0.32782   0.00000  Uiso   1.00
C193   C     0.50000   0.47983   0.50000   0.00000  Uiso   1.00
C194   C     0.50000   0.40122   0.50000   0.00000  Uiso   1.00
H195   H     0.50000   0.62961   0.50000   0.00000  Uiso   1.00
C196   C     0.00000   0.97983   0.50000   0.00000  Uiso   1.00
C197   C     0.00000   0.90122   0.50000   0.00000  Uiso   1.00
H198   H     0.00000   0.12961   0.50000   0.00000  Uiso   1.00
C199   C     0.50000   0.52017   0.50000   0.00000  Uiso   1.00
C200   C     0.50000   0.59878   0.50000   0.00000  Uiso   1.00
H201   H     0.50000   0.37039   0.50000   0.00000  Uiso   1.00
C202   C     0.00000   0.02017   0.50000   0.00000  Uiso   1.00
C203   C     0.00000   0.09878   0.50000   0.00000  Uiso   1.00
H204   H     0.00000   0.87039   0.50000   0.00000  Uiso   1.00
loop_
_geom_bond_atom_site_label_1
_geom_bond_atom_site_label_2
_geom_bond_distance
_geom_bond_site_symmetry_2
_ccdc_geom_bond_type
C1     C2      1.418   .     S
C1     C52     1.491   .     D
C1     C197    1.393   .     S
C2     C3      1.429   .     D
C2     C196    1.425   .     S
C3     H136    1.093   .     S
C3     C147    1.357   1_565 S
C4     C5      1.402   .     S
C4     C9      1.403   .     D
C4     C49     1.491   .     S
C5     C6      1.381   .     D
C5     H137    1.094   .     S
C6     C7      1.402   .     S
C6     H138    1.093   .     S
C7     C8      1.402   .     D
C7     C58     1.468   .     S
C8     C9      1.382   .     S
C8     H139    1.095   .     S
C9     H140    1.094   .     S
C10    H39     1.098   .     S
C10    C55     1.468   .     D
C10    C182    1.356   .     S
C11    C12     1.401   .     S
C11    C133    1.402   .     D
C11    C134    1.486   .     S
C12    C13     1.382   .     D
C12    H21     1.094   .     S
C13    H24     1.093   .     S
C13    C131    1.402   .     S
C14    C131    1.486   .     S
C14    C166    1.442   .     S
C14    C178    1.356   .     D
H15    C34     1.098   .     S
H16    C123    1.093   .     S
H17    C125    1.094   .     S
H18    C126    1.093   .     S
H19    C128    1.095   .     S
H20    C129    1.094   .     S
C22    N23     1.166   .     T
C22    C158    1.442   .     S
C25    C26     1.418   .     S
C25    C76     1.491   .     S
C25    C194    1.393   .     D
C26    C27     1.429   .     S
C26    C193    1.425   .     D
C27    H112    1.093   .     S
C27    C171    1.357   .     D
C28    C29     1.402   .     S
C28    C33     1.403   .     S
C28    C73     1.491   .     D
C29    C30     1.381   .     D
C29    H113    1.094   .     S
C30    C31     1.402   .     S
C30    H114    1.093   .     S
C31    C32     1.402   .     S
C31    C82     1.468   .     D
C32    C33     1.382   .     D
C32    H115    1.095   .     S
C33    H116    1.094   .     S
C34    C79     1.468   .     S
C34    C158    1.356   .     D
C35    C36     1.401   .     S
C35    C109    1.402   .     S
C35    C110    1.486   .     D
C36    C37     1.382   .     D
C36    H45     1.094   .     S
C37    H48     1.093   .     S
C37    C107    1.402   .     S
C38    C107    1.486   .     D
C38    C154    1.356   .     S
C38    C190    1.442   .     S
H40    C99     1.093   .     S
H41    C101    1.094   .     S
H42    C102    1.093   .     S
H43    C104    1.095   .     S
H44    C105    1.094   .     S
C46    N47     1.166   .     T
C46    C182    1.442   .     S
C49    C50     1.418   .     S
C49    C197    1.393   1_655 D
C50    C51     1.429   .     D
C50    C196    1.425   1_655 S
C51    C99     1.357   1_565 S
C51    H184    1.093   .     S
C52    C53     1.402   .     S
C52    C57     1.403   .     S
C53    C54     1.381   .     D
C53    H185    1.094   .     S
C54    C55     1.402   .     S
C54    H186    1.093   .     S
C55    C56     1.402   .     S
C56    C57     1.382   .     D
C56    H187    1.095   .     S
C57    H188    1.094   .     S
C58    H87     1.098   .     S
C58    C134    1.356   .     D
C59    C60     1.401   .     S
C59    C181    1.402   .     S
C59    C182    1.486   .     D
C60    C61     1.382   .     D
C60    H69     1.094   .     S
C61    H72     1.093   .     S
C61    C179    1.402   .     S
C62    C118    1.442   .     S
C62    C130    1.356   .     S
C62    C179    1.486   .     D
H63    C82     1.098   .     S
H64    C171    1.093   .     S
H65    C173    1.094   .     S
H66    C174    1.093   .     S
H67    C176    1.095   .     S
H68    C177    1.094   .     S
C70    N71     1.166   .     T
C70    C110    1.442   .     S
C73    C74     1.418   .     S
C73    C194    1.393   .     S
C74    C75     1.429   .     D
C74    C193    1.425   .     S
C75    C123    1.357   .     S
C75    H160    1.093   .     S
C76    C77     1.402   .     D
C76    C81     1.403   .     S
C77    C78     1.381   .     S
C77    H161    1.094   .     S
C78    C79     1.402   .     D
C78    H162    1.093   .     S
C79    C80     1.402   .     S
C80    C81     1.382   .     D
C80    H163    1.095   .     S
C81    H164    1.094   .     S
C82    C110    1.356   .     S
C83    C84     1.401   .     D
C83    C157    1.402   .     S
C83    C158    1.486   .     S
C84    C85     1.382   .     S
C84    H93     1.094   .     S
C85    H96     1.093   .     S
C85    C155    1.402   .     D
C86    C106    1.356   .     D
C86    C142    1.442   .     S
C86    C155    1.486   .     S
H88    C147    1.093   .     S
H89    C149    1.094   .     S
H90    C150    1.093   .     S
H91    C152    1.095   .     S
H92    C153    1.094   .     S
C94    N95     1.166   .     T
C94    C134    1.442   .     S
C97    C98     1.418   .     S
C97    C148    1.491   .     S
C97    C203    1.393   1_655 D
C98    C99     1.429   .     D
C98    C202    1.425   1_655 S
C99    C51     1.357   1_545 S
C100   C101    1.402   .     S
C100   C105    1.403   .     S
C100   C145    1.491   .     D
C101   C102    1.381   .     D
C102   C103    1.402   .     S
C103   C104    1.402   .     S
C103   C154    1.468   .     D
C104   C105    1.382   .     D
C106   H135    1.098   .     S
C106   C151    1.468   .     S
C107   C108    1.401   .     S
C108   C109    1.382   .     D
C108   H117    1.094   .     S
C109   H120    1.093   .     S
H111   C130    1.098   .     S
C118   N119    1.166   .     T
C121   C122    1.418   .     S
C121   C172    1.491   .     D
C121   C200    1.393   .     S
C122   C123    1.429   .     D
C122   C199    1.425   .     S
C124   C125    1.402   .     S
C124   C129    1.403   .     D
C124   C169    1.491   .     S
C125   C126    1.381   .     D
C126   C127    1.402   .     S
C127   C128    1.402   .     D
C127   C178    1.468   .     S
C128   C129    1.382   .     S
C130   C175    1.468   .     D
C131   C132    1.401   .     D
C132   C133    1.382   .     S
C132   H141    1.094   .     S
C133   H144    1.093   .     S
C142   N143    1.166   .     T
C145   C146    1.418   .     S
C145   C203    1.393   .     S
C146   C147    1.429   .     D
C146   C202    1.425   .     S
C147   C3      1.357   1_545 S
C148   C149    1.402   .     D
C148   C153    1.403   .     S
C149   C150    1.381   .     S
C150   C151    1.402   .     D
C151   C152    1.402   .     S
C152   C153    1.382   .     D
C154   H183    1.098   .     S
C155   C156    1.401   .     S
C156   C157    1.382   .     D
C156   H165    1.094   .     S
C157   H168    1.093   .     S
H159   C178    1.098   .     S
C166   N167    1.166   .     T
C169   C170    1.418   .     S
C169   C200    1.393   .     D
C170   C171    1.429   .     S
C170   C199    1.425   .     D
C172   C173    1.402   .     S
C172   C177    1.403   .     S
C173   C174    1.381   .     D
C174   C175    1.402   .     S
C175   C176    1.402   .     S
C176   C177    1.382   .     D
C179   C180    1.401   .     S
C180   C181    1.382   .     D
C180   H189    1.094   .     S
C181   H192    1.093   .     S
C190   N191    1.166   .     T
C193   C199    1.432   .     S
C194   H201    1.094   .     S
H195   C200    1.094   .     S
C196   C50     1.425   1_455 S
C196   C202    1.432   1_565 D
C197   C49     1.393   1_455 D
C197   H204    1.094   .     S
H198   C203    1.094   .     S
C202   C98     1.425   1_455 S
C202   C196    1.432   1_545 D
C203   C97     1.393   1_455 D
