data_425
_audit_creation_date              2023-09-08
_audit_creation_method            'Materials Studio'
_symmetry_space_group_name_H-M    'P1'
_symmetry_Int_Tables_number       1
_symmetry_cell_setting            triclinic
loop_
_symmetry_equiv_pos_as_xyz
  x,y,z
_cell_length_a                    34.2613
_cell_length_b                    36.6059
_cell_length_c                    3.7519
_cell_angle_alpha                 90.0000
_cell_angle_beta                  87.5352
_cell_angle_gamma                 90.0000
loop_
_atom_site_label
_atom_site_type_symbol
_atom_site_fract_x
_atom_site_fract_y
_atom_site_fract_z
_atom_site_U_iso_or_equiv
_atom_site_adp_type
_atom_site_occupancy
C1     C     0.03620   0.92160   0.47600   0.00000  Uiso   1.00
C2     C     0.03610   0.96070   0.45730   0.00000  Uiso   1.00
C3     C     0.07090   0.98130   0.37600   0.00000  Uiso   1.00
C4     C     0.92790   0.89890   0.52480   0.00000  Uiso   1.00
C5     C     0.92750   0.86370   0.67990   0.00000  Uiso   1.00
C6     C     0.89530   0.84050   0.66540   0.00000  Uiso   1.00
C7     C     0.86110   0.85150   0.49670   0.00000  Uiso   1.00
C8     C     0.86120   0.88690   0.34700   0.00000  Uiso   1.00
C9     C     0.89380   0.90970   0.35480   0.00000  Uiso   1.00
C10    C     0.17420   0.82910   0.52080   0.00000  Uiso   1.00
C11    C     0.78520   0.77120   0.50330   0.00000  Uiso   1.00
C12    C     0.74890   0.78750   0.43710   0.00000  Uiso   1.00
C13    C     0.71480   0.76690   0.43420   0.00000  Uiso   1.00
C14    C     0.67780   0.70810   0.48780   0.00000  Uiso   1.00
H15    H     0.70100   0.34460   0.57220   0.00000  Uiso   1.00
H16    H     0.40200   0.53330   0.69870   0.00000  Uiso   1.00
H17    H     0.54700   0.64590   0.17850   0.00000  Uiso   1.00
H18    H     0.60350   0.68630   0.20580   0.00000  Uiso   1.00
H19    H     0.66470   0.60360   0.78910   0.00000  Uiso   1.00
H20    H     0.60710   0.56390   0.78380   0.00000  Uiso   1.00
H21    H     0.74720   0.81700   0.38450   0.00000  Uiso   1.00
C22    C     0.64340   0.26950   0.45340   0.00000  Uiso   1.00
N23    N     0.61670   0.25050   0.44000   0.00000  Uiso   1.00
H24    H     0.68710   0.78060   0.38040   0.00000  Uiso   1.00
C25    C     0.53620   0.42160   0.47600   0.00000  Uiso   1.00
C26    C     0.53610   0.46070   0.45730   0.00000  Uiso   1.00
C27    C     0.57090   0.48130   0.37600   0.00000  Uiso   1.00
C28    C     0.42790   0.39890   0.52480   0.00000  Uiso   1.00
C29    C     0.42750   0.36370   0.67990   0.00000  Uiso   1.00
C30    C     0.39530   0.34050   0.66540   0.00000  Uiso   1.00
C31    C     0.36110   0.35150   0.49670   0.00000  Uiso   1.00
C32    C     0.36120   0.38690   0.34700   0.00000  Uiso   1.00
C33    C     0.39380   0.40970   0.35480   0.00000  Uiso   1.00
C34    C     0.67420   0.32910   0.52080   0.00000  Uiso   1.00
C35    C     0.28520   0.27120   0.50330   0.00000  Uiso   1.00
C36    C     0.24890   0.28750   0.43710   0.00000  Uiso   1.00
C37    C     0.21480   0.26690   0.43420   0.00000  Uiso   1.00
C38    C     0.17780   0.20810   0.48780   0.00000  Uiso   1.00
H39    H     0.20100   0.84460   0.57220   0.00000  Uiso   1.00
H40    H     0.90200   0.03330   0.69870   0.00000  Uiso   1.00
H41    H     0.04700   0.14590   0.17850   0.00000  Uiso   1.00
H42    H     0.10350   0.18630   0.20580   0.00000  Uiso   1.00
H43    H     0.16470   0.10360   0.78910   0.00000  Uiso   1.00
H44    H     0.10710   0.06390   0.78380   0.00000  Uiso   1.00
H45    H     0.24720   0.31700   0.38450   0.00000  Uiso   1.00
C46    C     0.14340   0.76950   0.45340   0.00000  Uiso   1.00
N47    N     0.11670   0.75050   0.44000   0.00000  Uiso   1.00
H48    H     0.18710   0.28060   0.38040   0.00000  Uiso   1.00
C49    C     0.96380   0.92160   0.52400   0.00000  Uiso   1.00
C50    C     0.96390   0.96070   0.54270   0.00000  Uiso   1.00
C51    C     0.92910   0.98130   0.62400   0.00000  Uiso   1.00
C52    C     0.07210   0.89890   0.47520   0.00000  Uiso   1.00
C53    C     0.07250   0.86370   0.32010   0.00000  Uiso   1.00
C54    C     0.10470   0.84050   0.33460   0.00000  Uiso   1.00
C55    C     0.13890   0.85150   0.50330   0.00000  Uiso   1.00
C56    C     0.13880   0.88690   0.65300   0.00000  Uiso   1.00
C57    C     0.10620   0.90970   0.64520   0.00000  Uiso   1.00
C58    C     0.82580   0.82910   0.47920   0.00000  Uiso   1.00
C59    C     0.21480   0.77120   0.49680   0.00000  Uiso   1.00
C60    C     0.25110   0.78750   0.56290   0.00000  Uiso   1.00
C61    C     0.28520   0.76690   0.56580   0.00000  Uiso   1.00
C62    C     0.32220   0.70810   0.51220   0.00000  Uiso   1.00
H63    H     0.29900   0.34460   0.42780   0.00000  Uiso   1.00
H64    H     0.59800   0.53330   0.30130   0.00000  Uiso   1.00
H65    H     0.45300   0.64590   0.82150   0.00000  Uiso   1.00
H66    H     0.39650   0.68630   0.79420   0.00000  Uiso   1.00
H67    H     0.33530   0.60360   0.21100   0.00000  Uiso   1.00
H68    H     0.39300   0.56390   0.21620   0.00000  Uiso   1.00
H69    H     0.25280   0.81700   0.61550   0.00000  Uiso   1.00
C70    C     0.35660   0.26950   0.54660   0.00000  Uiso   1.00
N71    N     0.38330   0.25050   0.56000   0.00000  Uiso   1.00
H72    H     0.31290   0.78060   0.61960   0.00000  Uiso   1.00
C73    C     0.46380   0.42160   0.52400   0.00000  Uiso   1.00
C74    C     0.46390   0.46070   0.54270   0.00000  Uiso   1.00
C75    C     0.42910   0.48130   0.62400   0.00000  Uiso   1.00
C76    C     0.57210   0.39890   0.47520   0.00000  Uiso   1.00
C77    C     0.57250   0.36370   0.32010   0.00000  Uiso   1.00
C78    C     0.60470   0.34050   0.33460   0.00000  Uiso   1.00
C79    C     0.63890   0.35150   0.50330   0.00000  Uiso   1.00
C80    C     0.63880   0.38690   0.65300   0.00000  Uiso   1.00
C81    C     0.60620   0.40970   0.64520   0.00000  Uiso   1.00
C82    C     0.32580   0.32910   0.47920   0.00000  Uiso   1.00
C83    C     0.71480   0.27120   0.49680   0.00000  Uiso   1.00
C84    C     0.75110   0.28750   0.56290   0.00000  Uiso   1.00
C85    C     0.78520   0.26690   0.56580   0.00000  Uiso   1.00
C86    C     0.82220   0.20810   0.51220   0.00000  Uiso   1.00
H87    H     0.79900   0.84460   0.42780   0.00000  Uiso   1.00
H88    H     0.09800   0.03330   0.30130   0.00000  Uiso   1.00
H89    H     0.95300   0.14590   0.82150   0.00000  Uiso   1.00
H90    H     0.89650   0.18630   0.79420   0.00000  Uiso   1.00
H91    H     0.83530   0.10360   0.21100   0.00000  Uiso   1.00
H92    H     0.89300   0.06390   0.21620   0.00000  Uiso   1.00
H93    H     0.75280   0.31700   0.61550   0.00000  Uiso   1.00
C94    C     0.85660   0.76950   0.54660   0.00000  Uiso   1.00
N95    N     0.88330   0.75050   0.56000   0.00000  Uiso   1.00
H96    H     0.81290   0.28060   0.61960   0.00000  Uiso   1.00
C97    C     0.96380   0.07840   0.52400   0.00000  Uiso   1.00
C98    C     0.96390   0.03940   0.54270   0.00000  Uiso   1.00
C99    C     0.92910   0.01870   0.62400   0.00000  Uiso   1.00
C100   C     0.07210   0.10120   0.47520   0.00000  Uiso   1.00
C101   C     0.07250   0.13630   0.32010   0.00000  Uiso   1.00
C102   C     0.10470   0.15950   0.33460   0.00000  Uiso   1.00
C103   C     0.13890   0.14850   0.50330   0.00000  Uiso   1.00
C104   C     0.13880   0.11310   0.65300   0.00000  Uiso   1.00
C105   C     0.10620   0.09030   0.64520   0.00000  Uiso   1.00
C106   C     0.82580   0.17090   0.47920   0.00000  Uiso   1.00
C107   C     0.21480   0.22880   0.49680   0.00000  Uiso   1.00
C108   C     0.25110   0.21250   0.56290   0.00000  Uiso   1.00
C109   C     0.28520   0.23310   0.56580   0.00000  Uiso   1.00
C110   C     0.32220   0.29190   0.51220   0.00000  Uiso   1.00
H111   H     0.29900   0.65540   0.42780   0.00000  Uiso   1.00
H112   H     0.59800   0.46670   0.30130   0.00000  Uiso   1.00
H113   H     0.45300   0.35420   0.82150   0.00000  Uiso   1.00
H114   H     0.39650   0.31370   0.79420   0.00000  Uiso   1.00
H115   H     0.33530   0.39640   0.21100   0.00000  Uiso   1.00
H116   H     0.39300   0.43610   0.21620   0.00000  Uiso   1.00
H117   H     0.25280   0.18300   0.61550   0.00000  Uiso   1.00
C118   C     0.35660   0.73050   0.54660   0.00000  Uiso   1.00
N119   N     0.38330   0.74950   0.56000   0.00000  Uiso   1.00
H120   H     0.31290   0.21950   0.61960   0.00000  Uiso   1.00
C121   C     0.46380   0.57840   0.52400   0.00000  Uiso   1.00
C122   C     0.46390   0.53940   0.54270   0.00000  Uiso   1.00
C123   C     0.42910   0.51870   0.62400   0.00000  Uiso   1.00
C124   C     0.57210   0.60120   0.47520   0.00000  Uiso   1.00
C125   C     0.57250   0.63630   0.32010   0.00000  Uiso   1.00
C126   C     0.60470   0.65950   0.33460   0.00000  Uiso   1.00
C127   C     0.63890   0.64850   0.50330   0.00000  Uiso   1.00
C128   C     0.63880   0.61310   0.65300   0.00000  Uiso   1.00
C129   C     0.60620   0.59030   0.64520   0.00000  Uiso   1.00
C130   C     0.32580   0.67090   0.47920   0.00000  Uiso   1.00
C131   C     0.71480   0.72880   0.49680   0.00000  Uiso   1.00
C132   C     0.75110   0.71250   0.56290   0.00000  Uiso   1.00
C133   C     0.78520   0.73310   0.56580   0.00000  Uiso   1.00
C134   C     0.82220   0.79190   0.51220   0.00000  Uiso   1.00
H135   H     0.79900   0.15540   0.42780   0.00000  Uiso   1.00
H136   H     0.09800   0.96670   0.30130   0.00000  Uiso   1.00
H137   H     0.95300   0.85420   0.82150   0.00000  Uiso   1.00
H138   H     0.89650   0.81370   0.79420   0.00000  Uiso   1.00
H139   H     0.83530   0.89640   0.21100   0.00000  Uiso   1.00
H140   H     0.89300   0.93610   0.21620   0.00000  Uiso   1.00
H141   H     0.75280   0.68300   0.61550   0.00000  Uiso   1.00
C142   C     0.85660   0.23050   0.54660   0.00000  Uiso   1.00
N143   N     0.88330   0.24950   0.56000   0.00000  Uiso   1.00
H144   H     0.81290   0.71950   0.61960   0.00000  Uiso   1.00
C145   C     0.03620   0.07840   0.47600   0.00000  Uiso   1.00
C146   C     0.03610   0.03940   0.45730   0.00000  Uiso   1.00
C147   C     0.07090   0.01870   0.37600   0.00000  Uiso   1.00
C148   C     0.92790   0.10120   0.52480   0.00000  Uiso   1.00
C149   C     0.92750   0.13630   0.67990   0.00000  Uiso   1.00
C150   C     0.89530   0.15950   0.66540   0.00000  Uiso   1.00
C151   C     0.86110   0.14850   0.49670   0.00000  Uiso   1.00
C152   C     0.86120   0.11310   0.34700   0.00000  Uiso   1.00
C153   C     0.89380   0.09030   0.35480   0.00000  Uiso   1.00
C154   C     0.17420   0.17090   0.52080   0.00000  Uiso   1.00
C155   C     0.78520   0.22880   0.50330   0.00000  Uiso   1.00
C156   C     0.74890   0.21250   0.43710   0.00000  Uiso   1.00
C157   C     0.71480   0.23310   0.43420   0.00000  Uiso   1.00
C158   C     0.67780   0.29190   0.48780   0.00000  Uiso   1.00
H159   H     0.70100   0.65540   0.57220   0.00000  Uiso   1.00
H160   H     0.40200   0.46670   0.69870   0.00000  Uiso   1.00
H161   H     0.54700   0.35420   0.17850   0.00000  Uiso   1.00
H162   H     0.60350   0.31370   0.20580   0.00000  Uiso   1.00
H163   H     0.66470   0.39640   0.78910   0.00000  Uiso   1.00
H164   H     0.60710   0.43610   0.78380   0.00000  Uiso   1.00
H165   H     0.74720   0.18300   0.38450   0.00000  Uiso   1.00
C166   C     0.64340   0.73050   0.45340   0.00000  Uiso   1.00
N167   N     0.61670   0.74950   0.44000   0.00000  Uiso   1.00
H168   H     0.68710   0.21950   0.38040   0.00000  Uiso   1.00
C169   C     0.53620   0.57840   0.47600   0.00000  Uiso   1.00
C170   C     0.53610   0.53940   0.45730   0.00000  Uiso   1.00
C171   C     0.57090   0.51870   0.37600   0.00000  Uiso   1.00
C172   C     0.42790   0.60120   0.52480   0.00000  Uiso   1.00
C173   C     0.42750   0.63630   0.67990   0.00000  Uiso   1.00
C174   C     0.39530   0.65950   0.66540   0.00000  Uiso   1.00
C175   C     0.36110   0.64850   0.49670   0.00000  Uiso   1.00
C176   C     0.36120   0.61310   0.34700   0.00000  Uiso   1.00
C177   C     0.39380   0.59030   0.35480   0.00000  Uiso   1.00
C178   C     0.67420   0.67090   0.52080   0.00000  Uiso   1.00
C179   C     0.28520   0.72880   0.50330   0.00000  Uiso   1.00
C180   C     0.24890   0.71250   0.43710   0.00000  Uiso   1.00
C181   C     0.21480   0.73310   0.43420   0.00000  Uiso   1.00
C182   C     0.17780   0.79190   0.48780   0.00000  Uiso   1.00
H183   H     0.20100   0.15540   0.57220   0.00000  Uiso   1.00
H184   H     0.90200   0.96670   0.69870   0.00000  Uiso   1.00
H185   H     0.04700   0.85420   0.17850   0.00000  Uiso   1.00
H186   H     0.10350   0.81370   0.20580   0.00000  Uiso   1.00
H187   H     0.16470   0.89640   0.78910   0.00000  Uiso   1.00
H188   H     0.10710   0.93610   0.78380   0.00000  Uiso   1.00
H189   H     0.24720   0.68300   0.38450   0.00000  Uiso   1.00
C190   C     0.14340   0.23050   0.45340   0.00000  Uiso   1.00
N191   N     0.11670   0.24950   0.44000   0.00000  Uiso   1.00
H192   H     0.18710   0.71950   0.38040   0.00000  Uiso   1.00
C193   C     0.50000   0.48030   0.50000   0.00000  Uiso   1.00
C194   C     0.50000   0.40350   0.50000   0.00000  Uiso   1.00
H195   H     0.50000   0.62650   0.50000   0.00000  Uiso   1.00
C196   C     0.00000   0.98030   0.50000   0.00000  Uiso   1.00
C197   C     0.00000   0.90350   0.50000   0.00000  Uiso   1.00
H198   H     0.00000   0.12650   0.50000   0.00000  Uiso   1.00
C199   C     0.50000   0.51970   0.50000   0.00000  Uiso   1.00
C200   C     0.50000   0.59650   0.50000   0.00000  Uiso   1.00
H201   H     0.50000   0.37350   0.50000   0.00000  Uiso   1.00
C202   C     0.00000   0.01970   0.50000   0.00000  Uiso   1.00
C203   C     0.00000   0.09650   0.50000   0.00000  Uiso   1.00
H204   H     0.00000   0.87350   0.50000   0.00000  Uiso   1.00
loop_
_geom_bond_atom_site_label_1
_geom_bond_atom_site_label_2
_geom_bond_distance
_geom_bond_site_symmetry_2
_ccdc_geom_bond_type
C1     C2      1.433   .     S
C1     C52     1.484   .     D
C1     C197    1.406   .     S
C2     C3      1.432   .     S
C2     C196    1.433   .     D
C3     H136    1.097   .     S
C3     C147    1.369   1_565 D
C4     C5      1.414   .     D
C4     C9      1.411   .     S
C4     C49     1.484   .     S
C5     C6      1.395   .     S
C5     H137    1.098   .     S
C6     C7      1.414   .     D
C6     H138    1.095   .     S
C7     C8      1.412   .     S
C7     C58     1.465   .     S
C8     C9      1.396   .     D
C8     H139    1.099   .     S
C9     H140    1.098   .     S
C10    H39     1.103   .     S
C10    C55     1.465   .     D
C10    C182    1.372   .     S
C11    C12     1.411   .     D
C11    C133    1.414   .     S
C11    C134    1.478   .     S
C12    C13     1.391   .     S
C12    H21     1.100   .     S
C13    H24     1.100   .     S
C13    C131    1.414   .     D
C14    C131    1.479   .     S
C14    C166    1.446   .     S
C14    C178    1.372   .     D
H15    C34     1.103   .     S
H16    C123    1.097   .     S
H17    C125    1.100   .     S
H18    C126    1.095   .     S
H19    C128    1.099   .     S
H20    C129    1.098   .     S
C22    N23     1.152   .     T
C22    C158    1.446   .     S
C25    C26     1.433   .     S
C25    C76     1.484   .     S
C25    C194    1.406   .     D
C26    C27     1.432   .     D
C26    C193    1.433   .     S
C27    H112    1.097   .     S
C27    C171    1.369   .     S
C28    C29     1.414   .     S
C28    C33     1.411   .     S
C28    C73     1.484   .     D
C29    C30     1.395   .     D
C29    H113    1.098   .     S
C30    C31     1.414   .     S
C30    H114    1.095   .     S
C31    C32     1.412   .     S
C31    C82     1.465   .     D
C32    C33     1.396   .     D
C32    H115    1.099   .     S
C33    H116    1.098   .     S
C34    C79     1.465   .     S
C34    C158    1.372   .     D
C35    C36     1.411   .     S
C35    C109    1.414   .     S
C35    C110    1.478   .     D
C36    C37     1.391   .     D
C36    H45     1.100   .     S
C37    H48     1.100   .     S
C37    C107    1.414   .     S
C38    C107    1.479   .     D
C38    C154    1.372   .     S
C38    C190    1.446   .     S
H40    C99     1.097   .     S
H41    C101    1.100   .     S
H42    C102    1.095   .     S
H43    C104    1.099   .     S
H44    C105    1.098   .     S
C46    N47     1.152   .     T
C46    C182    1.446   .     S
C49    C50     1.433   .     S
C49    C197    1.406   1_655 D
C50    C51     1.432   .     D
C50    C196    1.433   1_655 S
C51    C99     1.369   1_565 S
C51    H184    1.097   .     S
C52    C53     1.414   .     S
C52    C57     1.411   .     S
C53    C54     1.395   .     D
C53    H185    1.098   .     S
C54    C55     1.414   .     S
C54    H186    1.095   .     S
C55    C56     1.412   .     S
C56    C57     1.396   .     D
C56    H187    1.099   .     S
C57    H188    1.098   .     S
C58    H87     1.103   .     S
C58    C134    1.372   .     D
C59    C60     1.411   .     S
C59    C181    1.414   .     S
C59    C182    1.479   .     D
C60    C61     1.391   .     D
C60    H69     1.100   .     S
C61    H72     1.100   .     S
C61    C179    1.414   .     S
C62    C118    1.446   .     S
C62    C130    1.372   .     S
C62    C179    1.478   .     D
H63    C82     1.103   .     S
H64    C171    1.097   .     S
H65    C173    1.100   .     S
H66    C174    1.095   .     S
H67    C176    1.099   .     S
H68    C177    1.098   .     S
C70    N71     1.152   .     T
C70    C110    1.446   .     S
C73    C74     1.433   .     S
C73    C194    1.406   .     S
C74    C75     1.432   .     S
C74    C193    1.433   .     D
C75    C123    1.369   .     D
C75    H160    1.097   .     S
C76    C77     1.414   .     D
C76    C81     1.411   .     S
C77    C78     1.395   .     S
C77    H161    1.098   .     S
C78    C79     1.414   .     D
C78    H162    1.095   .     S
C79    C80     1.412   .     S
C80    C81     1.396   .     D
C80    H163    1.099   .     S
C81    H164    1.098   .     S
C82    C110    1.372   .     S
C83    C84     1.411   .     D
C83    C157    1.414   .     S
C83    C158    1.479   .     S
C84    C85     1.391   .     S
C84    H93     1.100   .     S
C85    H96     1.100   .     S
C85    C155    1.414   .     D
C86    C106    1.372   .     D
C86    C142    1.446   .     S
C86    C155    1.478   .     S
H88    C147    1.097   .     S
H89    C149    1.100   .     S
H90    C150    1.095   .     S
H91    C152    1.099   .     S
H92    C153    1.098   .     S
C94    N95     1.152   .     T
C94    C134    1.446   .     S
C97    C98     1.429   .     S
C97    C148    1.486   .     S
C97    C203    1.406   1_655 D
C98    C99     1.434   .     D
C98    C202    1.435   1_655 S
C99    C51     1.369   1_545 S
C100   C101    1.410   .     S
C100   C105    1.412   .     S
C100   C145    1.486   .     D
C101   C102    1.395   .     D
C102   C103    1.414   .     S
C103   C104    1.412   .     S
C103   C154    1.465   .     D
C104   C105    1.396   .     D
C106   H135    1.103   .     S
C106   C151    1.465   .     S
C107   C108    1.411   .     S
C108   C109    1.391   .     D
C108   H117    1.100   .     S
C109   H120    1.098   .     S
H111   C130    1.103   .     S
C118   N119    1.152   .     T
C121   C122    1.429   .     S
C121   C172    1.486   .     D
C121   C200    1.406   .     S
C122   C123    1.434   .     S
C122   C199    1.435   .     D
C124   C125    1.410   .     S
C124   C129    1.412   .     D
C124   C169    1.486   .     S
C125   C126    1.395   .     D
C126   C127    1.414   .     S
C127   C128    1.412   .     D
C127   C178    1.465   .     S
C128   C129    1.396   .     S
C130   C175    1.465   .     D
C131   C132    1.411   .     S
C132   C133    1.391   .     D
C132   H141    1.100   .     S
C133   H144    1.098   .     S
C142   N143    1.152   .     T
C145   C146    1.429   .     S
C145   C203    1.406   .     S
C146   C147    1.434   .     S
C146   C202    1.435   .     D
C147   C3      1.369   1_545 D
C148   C149    1.410   .     D
C148   C153    1.412   .     S
C149   C150    1.395   .     S
C150   C151    1.414   .     D
C151   C152    1.412   .     S
C152   C153    1.396   .     D
C154   H183    1.103   .     S
C155   C156    1.411   .     S
C156   C157    1.391   .     D
C156   H165    1.100   .     S
C157   H168    1.098   .     S
H159   C178    1.103   .     S
C166   N167    1.152   .     T
C169   C170    1.429   .     S
C169   C200    1.406   .     D
C170   C171    1.434   .     D
C170   C199    1.435   .     S
C172   C173    1.410   .     S
C172   C177    1.412   .     S
C173   C174    1.395   .     D
C174   C175    1.414   .     S
C175   C176    1.412   .     S
C176   C177    1.396   .     D
C179   C180    1.411   .     S
C180   C181    1.391   .     D
C180   H189    1.100   .     S
C181   H192    1.098   .     S
C190   N191    1.152   .     T
C193   C199    1.442   .     S
C194   H201    1.098   .     S
H195   C200    1.098   .     S
C196   C50     1.433   1_455 S
C196   C202    1.442   1_565 S
C197   C49     1.406   1_455 D
C197   H204    1.098   .     S
H198   C203    1.098   .     S
C202   C98     1.435   1_455 S
C202   C196    1.442   1_545 S
C203   C97     1.406   1_455 D
