data_426
_audit_creation_date              2023-09-08
_audit_creation_method            'Materials Studio'
_symmetry_space_group_name_H-M    'P1'
_symmetry_Int_Tables_number       1
_symmetry_cell_setting            triclinic
loop_
_symmetry_equiv_pos_as_xyz
  x,y,z
_cell_length_a                    34.1384
_cell_length_b                    35.2108
_cell_length_c                    3.8136
_cell_angle_alpha                 90.0000
_cell_angle_beta                  107.4127
_cell_angle_gamma                 90.0000
loop_
_atom_site_label
_atom_site_type_symbol
_atom_site_fract_x
_atom_site_fract_y
_atom_site_fract_z
_atom_site_U_iso_or_equiv
_atom_site_adp_type
_atom_site_occupancy
C1     C     0.03470   0.91870   0.46850   0.00000  Uiso   1.00
C2     C     0.03410   0.95930   0.44400   0.00000  Uiso   1.00
C3     C     0.06550   0.98040   0.34460   0.00000  Uiso   1.00
C4     C     0.92870   0.89670   0.52860   0.00000  Uiso   1.00
C5     C     0.93220   0.86080   0.70630   0.00000  Uiso   1.00
C6     C     0.89770   0.83900   0.68860   0.00000  Uiso   1.00
C7     C     0.85890   0.85290   0.49330   0.00000  Uiso   1.00
C8     C     0.85520   0.88910   0.32100   0.00000  Uiso   1.00
C9     C     0.88980   0.91050   0.33280   0.00000  Uiso   1.00
C10    C     0.17760   0.83060   0.52950   0.00000  Uiso   1.00
C11    C     0.78450   0.77040   0.47480   0.00000  Uiso   1.00
C12    C     0.74610   0.78850   0.38990   0.00000  Uiso   1.00
C13    C     0.71190   0.76840   0.41610   0.00000  Uiso   1.00
C14    C     0.67870   0.70850   0.53250   0.00000  Uiso   1.00
H15    H     0.70580   0.34670   0.54750   0.00000  Uiso   1.00
H16    H     0.41080   0.53530   0.74410   0.00000  Uiso   1.00
H17    H     0.53750   0.64970   0.13580   0.00000  Uiso   1.00
H18    H     0.59940   0.68860   0.16540   0.00000  Uiso   1.00
H19    H     0.67520   0.60040   0.83340   0.00000  Uiso   1.00
H20    H     0.61290   0.56240   0.82020   0.00000  Uiso   1.00
H21    H     0.74270   0.81850   0.29730   0.00000  Uiso   1.00
C22    C     0.64400   0.26860   0.54960   0.00000  Uiso   1.00
N23    N     0.61840   0.24900   0.58970   0.00000  Uiso   1.00
H24    H     0.68180   0.78220   0.34600   0.00000  Uiso   1.00
C25    C     0.53470   0.41870   0.46850   0.00000  Uiso   1.00
C26    C     0.53410   0.45930   0.44400   0.00000  Uiso   1.00
C27    C     0.56550   0.48040   0.34460   0.00000  Uiso   1.00
C28    C     0.42870   0.39670   0.52860   0.00000  Uiso   1.00
C29    C     0.43220   0.36080   0.70630   0.00000  Uiso   1.00
C30    C     0.39770   0.33900   0.68860   0.00000  Uiso   1.00
C31    C     0.35890   0.35290   0.49330   0.00000  Uiso   1.00
C32    C     0.35520   0.38910   0.32100   0.00000  Uiso   1.00
C33    C     0.38980   0.41050   0.33280   0.00000  Uiso   1.00
C34    C     0.67760   0.33060   0.52950   0.00000  Uiso   1.00
C35    C     0.28450   0.27040   0.47480   0.00000  Uiso   1.00
C36    C     0.24610   0.28850   0.38990   0.00000  Uiso   1.00
C37    C     0.21190   0.26840   0.41610   0.00000  Uiso   1.00
C38    C     0.17870   0.20850   0.53250   0.00000  Uiso   1.00
H39    H     0.20580   0.84670   0.54750   0.00000  Uiso   1.00
H40    H     0.91080   0.03530   0.74410   0.00000  Uiso   1.00
H41    H     0.03750   0.14970   0.13580   0.00000  Uiso   1.00
H42    H     0.09940   0.18860   0.16540   0.00000  Uiso   1.00
H43    H     0.17520   0.10040   0.83340   0.00000  Uiso   1.00
H44    H     0.11290   0.06240   0.82020   0.00000  Uiso   1.00
H45    H     0.24270   0.31850   0.29730   0.00000  Uiso   1.00
C46    C     0.14400   0.76860   0.54960   0.00000  Uiso   1.00
N47    N     0.11840   0.74900   0.58970   0.00000  Uiso   1.00
H48    H     0.18180   0.28220   0.34600   0.00000  Uiso   1.00
C49    C     0.96530   0.91870   0.53150   0.00000  Uiso   1.00
C50    C     0.96590   0.95930   0.55600   0.00000  Uiso   1.00
C51    C     0.93450   0.98040   0.65540   0.00000  Uiso   1.00
C52    C     0.07130   0.89670   0.47140   0.00000  Uiso   1.00
C53    C     0.06780   0.86080   0.29370   0.00000  Uiso   1.00
C54    C     0.10230   0.83900   0.31140   0.00000  Uiso   1.00
C55    C     0.14110   0.85290   0.50670   0.00000  Uiso   1.00
C56    C     0.14480   0.88910   0.67900   0.00000  Uiso   1.00
C57    C     0.11020   0.91050   0.66720   0.00000  Uiso   1.00
C58    C     0.82240   0.83060   0.47050   0.00000  Uiso   1.00
C59    C     0.21550   0.77040   0.52520   0.00000  Uiso   1.00
C60    C     0.25390   0.78850   0.61010   0.00000  Uiso   1.00
C61    C     0.28810   0.76840   0.58390   0.00000  Uiso   1.00
C62    C     0.32130   0.70850   0.46750   0.00000  Uiso   1.00
H63    H     0.29420   0.34670   0.45250   0.00000  Uiso   1.00
H64    H     0.58920   0.53530   0.25590   0.00000  Uiso   1.00
H65    H     0.46250   0.64970   0.86420   0.00000  Uiso   1.00
H66    H     0.40060   0.68860   0.83460   0.00000  Uiso   1.00
H67    H     0.32480   0.60040   0.16660   0.00000  Uiso   1.00
H68    H     0.38710   0.56240   0.17980   0.00000  Uiso   1.00
H69    H     0.25730   0.81850   0.70270   0.00000  Uiso   1.00
C70    C     0.35600   0.26860   0.45040   0.00000  Uiso   1.00
N71    N     0.38160   0.24900   0.41030   0.00000  Uiso   1.00
H72    H     0.31820   0.78220   0.65400   0.00000  Uiso   1.00
C73    C     0.46530   0.41870   0.53150   0.00000  Uiso   1.00
C74    C     0.46590   0.45930   0.55600   0.00000  Uiso   1.00
C75    C     0.43450   0.48040   0.65540   0.00000  Uiso   1.00
C76    C     0.57130   0.39670   0.47140   0.00000  Uiso   1.00
C77    C     0.56780   0.36080   0.29370   0.00000  Uiso   1.00
C78    C     0.60230   0.33900   0.31140   0.00000  Uiso   1.00
C79    C     0.64110   0.35290   0.50670   0.00000  Uiso   1.00
C80    C     0.64480   0.38910   0.67900   0.00000  Uiso   1.00
C81    C     0.61020   0.41050   0.66720   0.00000  Uiso   1.00
C82    C     0.32240   0.33060   0.47050   0.00000  Uiso   1.00
C83    C     0.71550   0.27040   0.52520   0.00000  Uiso   1.00
C84    C     0.75390   0.28850   0.61010   0.00000  Uiso   1.00
C85    C     0.78810   0.26840   0.58390   0.00000  Uiso   1.00
C86    C     0.82130   0.20850   0.46750   0.00000  Uiso   1.00
H87    H     0.79420   0.84670   0.45250   0.00000  Uiso   1.00
H88    H     0.08920   0.03530   0.25590   0.00000  Uiso   1.00
H89    H     0.96250   0.14970   0.86420   0.00000  Uiso   1.00
H90    H     0.90060   0.18860   0.83460   0.00000  Uiso   1.00
H91    H     0.82480   0.10040   0.16660   0.00000  Uiso   1.00
H92    H     0.88710   0.06240   0.17980   0.00000  Uiso   1.00
H93    H     0.75730   0.31850   0.70270   0.00000  Uiso   1.00
C94    C     0.85600   0.76860   0.45040   0.00000  Uiso   1.00
N95    N     0.88160   0.74900   0.41030   0.00000  Uiso   1.00
H96    H     0.81820   0.28220   0.65400   0.00000  Uiso   1.00
C97    C     0.96530   0.08130   0.53150   0.00000  Uiso   1.00
C98    C     0.96590   0.04070   0.55600   0.00000  Uiso   1.00
C99    C     0.93450   0.01960   0.65540   0.00000  Uiso   1.00
C100   C     0.07130   0.10330   0.47140   0.00000  Uiso   1.00
C101   C     0.06780   0.13920   0.29370   0.00000  Uiso   1.00
C102   C     0.10230   0.16100   0.31140   0.00000  Uiso   1.00
C103   C     0.14110   0.14710   0.50670   0.00000  Uiso   1.00
C104   C     0.14480   0.11090   0.67900   0.00000  Uiso   1.00
C105   C     0.11020   0.08950   0.66720   0.00000  Uiso   1.00
C106   C     0.82240   0.16940   0.47050   0.00000  Uiso   1.00
C107   C     0.21550   0.22960   0.52520   0.00000  Uiso   1.00
C108   C     0.25390   0.21150   0.61010   0.00000  Uiso   1.00
C109   C     0.28810   0.23160   0.58390   0.00000  Uiso   1.00
C110   C     0.32130   0.29150   0.46750   0.00000  Uiso   1.00
H111   H     0.29420   0.65330   0.45250   0.00000  Uiso   1.00
H112   H     0.58920   0.46470   0.25590   0.00000  Uiso   1.00
H113   H     0.46250   0.35030   0.86420   0.00000  Uiso   1.00
H114   H     0.40060   0.31140   0.83460   0.00000  Uiso   1.00
H115   H     0.32480   0.39960   0.16660   0.00000  Uiso   1.00
H116   H     0.38710   0.43760   0.17980   0.00000  Uiso   1.00
H117   H     0.25730   0.18150   0.70270   0.00000  Uiso   1.00
C118   C     0.35600   0.73140   0.45040   0.00000  Uiso   1.00
N119   N     0.38160   0.75100   0.41030   0.00000  Uiso   1.00
H120   H     0.31820   0.21780   0.65400   0.00000  Uiso   1.00
C121   C     0.46530   0.58130   0.53150   0.00000  Uiso   1.00
C122   C     0.46590   0.54070   0.55600   0.00000  Uiso   1.00
C123   C     0.43450   0.51960   0.65540   0.00000  Uiso   1.00
C124   C     0.57130   0.60330   0.47140   0.00000  Uiso   1.00
C125   C     0.56780   0.63920   0.29370   0.00000  Uiso   1.00
C126   C     0.60230   0.66100   0.31140   0.00000  Uiso   1.00
C127   C     0.64110   0.64710   0.50670   0.00000  Uiso   1.00
C128   C     0.64480   0.61090   0.67900   0.00000  Uiso   1.00
C129   C     0.61020   0.58950   0.66720   0.00000  Uiso   1.00
C130   C     0.32240   0.66940   0.47050   0.00000  Uiso   1.00
C131   C     0.71550   0.72960   0.52520   0.00000  Uiso   1.00
C132   C     0.75390   0.71150   0.61010   0.00000  Uiso   1.00
C133   C     0.78810   0.73160   0.58390   0.00000  Uiso   1.00
C134   C     0.82130   0.79150   0.46750   0.00000  Uiso   1.00
H135   H     0.79420   0.15330   0.45250   0.00000  Uiso   1.00
H136   H     0.08920   0.96470   0.25590   0.00000  Uiso   1.00
H137   H     0.96250   0.85030   0.86420   0.00000  Uiso   1.00
H138   H     0.90060   0.81140   0.83460   0.00000  Uiso   1.00
H139   H     0.82480   0.89960   0.16660   0.00000  Uiso   1.00
H140   H     0.88710   0.93760   0.17980   0.00000  Uiso   1.00
H141   H     0.75730   0.68150   0.70270   0.00000  Uiso   1.00
C142   C     0.85600   0.23140   0.45040   0.00000  Uiso   1.00
N143   N     0.88160   0.25100   0.41030   0.00000  Uiso   1.00
H144   H     0.81820   0.71780   0.65400   0.00000  Uiso   1.00
C145   C     0.03470   0.08130   0.46850   0.00000  Uiso   1.00
C146   C     0.03410   0.04070   0.44400   0.00000  Uiso   1.00
C147   C     0.06550   0.01960   0.34460   0.00000  Uiso   1.00
C148   C     0.92870   0.10330   0.52860   0.00000  Uiso   1.00
C149   C     0.93220   0.13920   0.70630   0.00000  Uiso   1.00
C150   C     0.89770   0.16100   0.68860   0.00000  Uiso   1.00
C151   C     0.85890   0.14710   0.49330   0.00000  Uiso   1.00
C152   C     0.85520   0.11090   0.32100   0.00000  Uiso   1.00
C153   C     0.88980   0.08950   0.33280   0.00000  Uiso   1.00
C154   C     0.17760   0.16940   0.52950   0.00000  Uiso   1.00
C155   C     0.78450   0.22960   0.47480   0.00000  Uiso   1.00
C156   C     0.74610   0.21150   0.38990   0.00000  Uiso   1.00
C157   C     0.71190   0.23160   0.41610   0.00000  Uiso   1.00
C158   C     0.67870   0.29150   0.53250   0.00000  Uiso   1.00
H159   H     0.70580   0.65330   0.54750   0.00000  Uiso   1.00
H160   H     0.41080   0.46470   0.74410   0.00000  Uiso   1.00
H161   H     0.53750   0.35030   0.13580   0.00000  Uiso   1.00
H162   H     0.59940   0.31140   0.16540   0.00000  Uiso   1.00
H163   H     0.67520   0.39960   0.83340   0.00000  Uiso   1.00
H164   H     0.61290   0.43760   0.82020   0.00000  Uiso   1.00
H165   H     0.74270   0.18150   0.29730   0.00000  Uiso   1.00
C166   C     0.64400   0.73140   0.54960   0.00000  Uiso   1.00
N167   N     0.61840   0.75100   0.58970   0.00000  Uiso   1.00
H168   H     0.68180   0.21780   0.34600   0.00000  Uiso   1.00
C169   C     0.53470   0.58130   0.46850   0.00000  Uiso   1.00
C170   C     0.53410   0.54070   0.44400   0.00000  Uiso   1.00
C171   C     0.56550   0.51960   0.34460   0.00000  Uiso   1.00
C172   C     0.42870   0.60330   0.52860   0.00000  Uiso   1.00
C173   C     0.43220   0.63920   0.70630   0.00000  Uiso   1.00
C174   C     0.39770   0.66100   0.68860   0.00000  Uiso   1.00
C175   C     0.35890   0.64710   0.49330   0.00000  Uiso   1.00
C176   C     0.35520   0.61090   0.32100   0.00000  Uiso   1.00
C177   C     0.38980   0.58950   0.33280   0.00000  Uiso   1.00
C178   C     0.67760   0.66940   0.52950   0.00000  Uiso   1.00
C179   C     0.28450   0.72960   0.47480   0.00000  Uiso   1.00
C180   C     0.24610   0.71150   0.38990   0.00000  Uiso   1.00
C181   C     0.21190   0.73160   0.41610   0.00000  Uiso   1.00
C182   C     0.17870   0.79150   0.53250   0.00000  Uiso   1.00
H183   H     0.20580   0.15330   0.54750   0.00000  Uiso   1.00
H184   H     0.91080   0.96470   0.74410   0.00000  Uiso   1.00
H185   H     0.03750   0.85030   0.13580   0.00000  Uiso   1.00
H186   H     0.09940   0.81140   0.16540   0.00000  Uiso   1.00
H187   H     0.17520   0.89960   0.83340   0.00000  Uiso   1.00
H188   H     0.11290   0.93760   0.82020   0.00000  Uiso   1.00
H189   H     0.24270   0.68150   0.29730   0.00000  Uiso   1.00
C190   C     0.14400   0.23140   0.54960   0.00000  Uiso   1.00
N191   N     0.11840   0.25100   0.58970   0.00000  Uiso   1.00
H192   H     0.18180   0.71780   0.34600   0.00000  Uiso   1.00
C193   C     0.50000   0.47960   0.50000   0.00000  Uiso   1.00
C194   C     0.50000   0.39910   0.50000   0.00000  Uiso   1.00
H195   H     0.50000   0.63250   0.50000   0.00000  Uiso   1.00
C196   C     0.00000   0.97960   0.50000   0.00000  Uiso   1.00
C197   C     0.00000   0.89910   0.50000   0.00000  Uiso   1.00
H198   H     0.00000   0.13250   0.50000   0.00000  Uiso   1.00
C199   C     0.50000   0.52040   0.50000   0.00000  Uiso   1.00
C200   C     0.50000   0.60090   0.50000   0.00000  Uiso   1.00
H201   H     0.50000   0.36750   0.50000   0.00000  Uiso   1.00
C202   C     0.00000   0.02040   0.50000   0.00000  Uiso   1.00
C203   C     0.00000   0.10090   0.50000   0.00000  Uiso   1.00
H204   H     0.00000   0.86750   0.50000   0.00000  Uiso   1.00
loop_
_geom_bond_atom_site_label_1
_geom_bond_atom_site_label_2
_geom_bond_distance
_geom_bond_site_symmetry_2
_ccdc_geom_bond_type
C1     C2      1.432   .     S
C1     C52     1.467   .     D
C1     C197    1.407   .     S
C2     C3      1.445   .     D
C2     C196    1.435   .     S
C3     H136    1.113   .     S
C3     C147    1.380   1_565 S
C4     C5      1.422   .     S
C4     C9      1.401   .     D
C4     C49     1.467   .     S
C5     C6      1.390   .     D
C5     H137    1.094   .     S
C6     C7      1.399   .     S
C6     H138    1.110   .     S
C7     C8      1.422   .     D
C7     C58     1.453   .     S
C8     C9      1.390   .     S
C8     H139    1.093   .     S
C9     H140    1.108   .     S
C10    H39     1.102   .     S
C10    C55     1.453   .     D
C10    C182    1.377   .     S
C11    C12     1.406   .     D
C11    C133    1.423   .     S
C11    C134    1.467   .     S
C12    C13     1.394   .     S
C12    H21     1.109   .     S
C13    H24     1.095   .     S
C13    C131    1.423   .     D
C14    C131    1.467   .     S
C14    C166    1.450   .     S
C14    C178    1.377   .     D
H15    C34     1.102   .     S
H16    C123    1.113   .     S
H17    C125    1.094   .     S
H18    C126    1.110   .     S
H19    C128    1.093   .     S
H20    C129    1.108   .     S
C22    N23     1.159   .     T
C22    C158    1.450   .     S
C25    C26     1.432   .     S
C25    C76     1.467   .     S
C25    C194    1.407   .     D
C26    C27     1.445   .     D
C26    C193    1.435   .     S
C27    H112    1.113   .     S
C27    C171    1.380   .     S
C28    C29     1.422   .     S
C28    C33     1.401   .     S
C28    C73     1.467   .     D
C29    C30     1.390   .     D
C29    H113    1.094   .     S
C30    C31     1.399   .     S
C30    H114    1.110   .     S
C31    C32     1.422   .     S
C31    C82     1.453   .     D
C32    C33     1.390   .     D
C32    H115    1.093   .     S
C33    H116    1.108   .     S
C34    C79     1.453   .     S
C34    C158    1.377   .     D
C35    C36     1.406   .     S
C35    C109    1.423   .     S
C35    C110    1.467   .     D
C36    C37     1.394   .     D
C36    H45     1.109   .     S
C37    H48     1.095   .     S
C37    C107    1.423   .     S
C38    C107    1.467   .     D
C38    C154    1.377   .     S
C38    C190    1.450   .     S
H40    C99     1.113   .     S
H41    C101    1.094   .     S
H42    C102    1.110   .     S
H43    C104    1.093   .     S
H44    C105    1.108   .     S
C46    N47     1.159   .     T
C46    C182    1.450   .     S
C49    C50     1.432   .     S
C49    C197    1.407   1_655 D
C50    C51     1.445   .     D
C50    C196    1.435   1_655 S
C51    C99     1.380   1_565 S
C51    H184    1.113   .     S
C52    C53     1.422   .     S
C52    C57     1.401   .     S
C53    C54     1.390   .     D
C53    H185    1.094   .     S
C54    C55     1.399   .     S
C54    H186    1.110   .     S
C55    C56     1.422   .     S
C56    C57     1.390   .     D
C56    H187    1.093   .     S
C57    H188    1.108   .     S
C58    H87     1.102   .     S
C58    C134    1.377   .     D
C59    C60     1.406   .     S
C59    C181    1.423   .     S
C59    C182    1.467   .     D
C60    C61     1.394   .     D
C60    H69     1.109   .     S
C61    H72     1.095   .     S
C61    C179    1.423   .     S
C62    C118    1.450   .     S
C62    C130    1.377   .     S
C62    C179    1.467   .     D
H63    C82     1.102   .     S
H64    C171    1.113   .     S
H65    C173    1.094   .     S
H66    C174    1.110   .     S
H67    C176    1.093   .     S
H68    C177    1.108   .     S
C70    N71     1.159   .     T
C70    C110    1.450   .     S
C73    C74     1.432   .     S
C73    C194    1.407   .     S
C74    C75     1.445   .     D
C74    C193    1.435   .     S
C75    C123    1.380   .     S
C75    H160    1.113   .     S
C76    C77     1.422   .     S
C76    C81     1.401   .     D
C77    C78     1.390   .     D
C77    H161    1.094   .     S
C78    C79     1.399   .     S
C78    H162    1.110   .     S
C79    C80     1.422   .     D
C80    C81     1.390   .     S
C80    H163    1.093   .     S
C81    H164    1.108   .     S
C82    C110    1.377   .     S
C83    C84     1.406   .     D
C83    C157    1.423   .     S
C83    C158    1.467   .     S
C84    C85     1.394   .     S
C84    H93     1.109   .     S
C85    H96     1.095   .     S
C85    C155    1.423   .     D
C86    C106    1.377   .     D
C86    C142    1.450   .     S
C86    C155    1.467   .     S
H88    C147    1.113   .     S
H89    C149    1.094   .     S
H90    C150    1.110   .     S
H91    C152    1.093   .     S
H92    C153    1.108   .     S
C94    N95     1.159   .     T
C94    C134    1.450   .     S
C97    C98     1.432   .     S
C97    C148    1.467   .     S
C97    C203    1.407   1_655 D
C98    C99     1.445   .     D
C98    C202    1.435   1_655 S
C99    C51     1.380   1_545 S
C100   C101    1.422   .     S
C100   C105    1.401   .     S
C100   C145    1.467   .     D
C101   C102    1.390   .     D
C102   C103    1.399   .     S
C103   C104    1.422   .     S
C103   C154    1.453   .     D
C104   C105    1.390   .     D
C106   H135    1.102   .     S
C106   C151    1.453   .     S
C107   C108    1.406   .     S
C108   C109    1.394   .     D
C108   H117    1.109   .     S
C109   H120    1.095   .     S
H111   C130    1.102   .     S
C118   N119    1.159   .     T
C121   C122    1.432   .     S
C121   C172    1.467   .     D
C121   C200    1.407   .     S
C122   C123    1.445   .     D
C122   C199    1.435   .     S
C124   C125    1.422   .     S
C124   C129    1.401   .     D
C124   C169    1.467   .     S
C125   C126    1.390   .     D
C126   C127    1.399   .     S
C127   C128    1.422   .     D
C127   C178    1.453   .     S
C128   C129    1.390   .     S
C130   C175    1.453   .     D
C131   C132    1.406   .     S
C132   C133    1.394   .     D
C132   H141    1.109   .     S
C133   H144    1.095   .     S
C142   N143    1.159   .     T
C145   C146    1.432   .     S
C145   C203    1.407   .     S
C146   C147    1.445   .     D
C146   C202    1.435   .     S
C147   C3      1.380   1_545 S
C148   C149    1.422   .     D
C148   C153    1.401   .     S
C149   C150    1.390   .     S
C150   C151    1.399   .     D
C151   C152    1.422   .     S
C152   C153    1.390   .     D
C154   H183    1.102   .     S
C155   C156    1.406   .     S
C156   C157    1.394   .     D
C156   H165    1.109   .     S
C157   H168    1.095   .     S
H159   C178    1.102   .     S
C166   N167    1.159   .     T
C169   C170    1.432   .     S
C169   C200    1.407   .     D
C170   C171    1.445   .     D
C170   C199    1.435   .     S
C172   C173    1.422   .     S
C172   C177    1.401   .     S
C173   C174    1.390   .     D
C174   C175    1.399   .     S
C175   C176    1.422   .     S
C176   C177    1.390   .     D
C179   C180    1.406   .     S
C180   C181    1.394   .     D
C180   H189    1.109   .     S
C181   H192    1.095   .     S
C190   N191    1.159   .     T
C193   C199    1.437   .     D
C194   H201    1.113   .     S
H195   C200    1.113   .     S
C196   C50     1.435   1_455 S
C196   C202    1.437   1_565 D
C197   C49     1.407   1_455 D
C197   H204    1.113   .     S
H198   C203    1.113   .     S
C202   C98     1.435   1_455 S
C202   C196    1.437   1_545 D
C203   C97     1.407   1_455 D
