data_428
_audit_creation_date              2023-09-08
_audit_creation_method            'Materials Studio'
_symmetry_space_group_name_H-M    'P1'
_symmetry_Int_Tables_number       1
_symmetry_cell_setting            triclinic
loop_
_symmetry_equiv_pos_as_xyz
  x,y,z
_cell_length_a                    37.1931
_cell_length_b                    37.2629
_cell_length_c                    4.5443
_cell_angle_alpha                 84.0000
_cell_angle_beta                  81.0000
_cell_angle_gamma                 59.0000
loop_
_atom_site_label
_atom_site_type_symbol
_atom_site_fract_x
_atom_site_fract_y
_atom_site_fract_z
_atom_site_U_iso_or_equiv
_atom_site_adp_type
_atom_site_occupancy
C1     C    -0.04980   0.06150   0.20070   0.00000  Uiso   1.00
C2     C    -0.07080   0.04080   0.16160   0.00000  Uiso   1.00
C3     C    -0.10430   0.04430   0.37700   0.00000  Uiso   1.00
C4     C    -0.11580   0.06930   0.62390   0.00000  Uiso   1.00
C5     C    -0.09470   0.08990   0.66360   0.00000  Uiso   1.00
C6     C    -0.06180   0.08730   0.44490   0.00000  Uiso   1.00
H7     H    -0.02470   0.05860   0.02700   0.00000  Uiso   1.00
H8     H    -0.05890   0.01880  -0.01920   0.00000  Uiso   1.00
H9     H    -0.14100   0.07220   0.79590   0.00000  Uiso   1.00
H10    H    -0.10670   0.11190   0.84460   0.00000  Uiso   1.00
C11    C    -0.04350   0.11400   0.46680   0.00000  Uiso   1.00
C12    C    -0.12570   0.02110   0.34360   0.00000  Uiso   1.00
C13    C    -0.01790   0.11860   0.22870   0.00000  Uiso   1.00
C14    C    -0.15400   0.01790   0.56690   0.00000  Uiso   1.00
C15    C    -0.05840   0.13890   0.72090   0.00000  Uiso   1.00
C16    C    -0.11430  -0.00300   0.08820   0.00000  Uiso   1.00
N17    N    -0.06930   0.15870   0.93700   0.00000  Uiso   1.00
N18    N    -0.10890  -0.02330  -0.11420   0.00000  Uiso   1.00
C19    C     0.00350   0.14280   0.20540   0.00000  Uiso   1.00
C20    C    -0.00410   0.17230   0.41320   0.00000  Uiso   1.00
C21    C     0.03350   0.13620  -0.04760   0.00000  Uiso   1.00
C22    C     0.01790   0.19360   0.37090   0.00000  Uiso   1.00
H23    H    -0.02740   0.17930   0.60870   0.00000  Uiso   1.00
C24    C     0.05570   0.15720  -0.08780   0.00000  Uiso   1.00
H25    H     0.03950   0.11390  -0.21370   0.00000  Uiso   1.00
C26    C     0.04820   0.18640   0.12110   0.00000  Uiso   1.00
H27    H     0.01140   0.21620   0.53540   0.00000  Uiso   1.00
H28    H     0.07850   0.15150  -0.28650   0.00000  Uiso   1.00
C29    C    -0.17790  -0.00110   0.49170   0.00000  Uiso   1.00
C30    C    -0.20220   0.01770   0.25680   0.00000  Uiso   1.00
C31    C    -0.17640  -0.03700   0.63590   0.00000  Uiso   1.00
C32    C    -0.22180  -0.00020   0.14390   0.00000  Uiso   1.00
H33    H    -0.20490   0.04660   0.15490   0.00000  Uiso   1.00
C34    C    -0.19550  -0.05550   0.51830   0.00000  Uiso   1.00
H35    H    -0.15440  -0.05410   0.79810   0.00000  Uiso   1.00
C36    C    -0.21850  -0.03780   0.27610   0.00000  Uiso   1.00
H37    H    -0.24230   0.01690  -0.02610   0.00000  Uiso   1.00
H38    H    -0.19030  -0.08570   0.60930   0.00000  Uiso   1.00
H39    H    -0.16870   0.03970   0.75250   0.00000  Uiso   1.00
H40    H    -0.00470   0.09530   0.05470   0.00000  Uiso   1.00
C41    C    -0.23540  -0.05850   0.12910   0.00000  Uiso   1.00
C42    C    -0.21880  -0.10220   0.15030   0.00000  Uiso   1.00
C43    C    -0.26660  -0.03490  -0.06050   0.00000  Uiso   1.00
C44    C    -0.22930  -0.12170  -0.03980   0.00000  Uiso   1.00
H45    H    -0.19530  -0.12150   0.30000   0.00000  Uiso   1.00
C46    C    -0.27980  -0.05340  -0.24090   0.00000  Uiso   1.00
H47    H    -0.28110  -0.00110  -0.06860   0.00000  Uiso   1.00
C48    C    -0.25860  -0.09770  -0.24070   0.00000  Uiso   1.00
H49    H    -0.26660  -0.11340  -0.38430   0.00000  Uiso   1.00
C50    C    -0.20850  -0.16860  -0.03150   0.00000  Uiso   1.00
C51    C    -0.21680  -0.18970   0.21720   0.00000  Uiso   1.00
C52    C    -0.18020  -0.19240  -0.27410   0.00000  Uiso   1.00
C53    C    -0.19750  -0.23340   0.22520   0.00000  Uiso   1.00
H54    H    -0.23940  -0.17170   0.40580   0.00000  Uiso   1.00
C55    C    -0.16030  -0.23600  -0.26530   0.00000  Uiso   1.00
H56    H    -0.17330  -0.17670  -0.47030   0.00000  Uiso   1.00
C57    C    -0.16820  -0.25750  -0.01490   0.00000  Uiso   1.00
H58    H    -0.20560  -0.24830   0.41970   0.00000  Uiso   1.00
H59    H    -0.13800  -0.25400  -0.45500   0.00000  Uiso   1.00
C60    C    -0.31660  -0.02650  -0.40240   0.00000  Uiso   1.00
C61    C    -0.32670  -0.04050  -0.63360   0.00000  Uiso   1.00
C62    C    -0.34590   0.01510  -0.30250   0.00000  Uiso   1.00
C63    C    -0.36550  -0.01560  -0.75030   0.00000  Uiso   1.00
H64    H    -0.30550  -0.07250  -0.71140   0.00000  Uiso   1.00
C65    C    -0.38390   0.03980  -0.41990   0.00000  Uiso   1.00
H66    H    -0.33830   0.02920  -0.14390   0.00000  Uiso   1.00
C67    C    -0.39660   0.02330  -0.61920   0.00000  Uiso   1.00
H68    H    -0.37430  -0.02950  -0.90300   0.00000  Uiso   1.00
H69    H    -0.40440   0.07180  -0.34630   0.00000  Uiso   1.00
C70    C     0.07100   0.20980   0.07800   0.00000  Uiso   1.00
C71    C     0.11480   0.18920  -0.02000   0.00000  Uiso   1.00
C72    C     0.04870   0.25300   0.13700   0.00000  Uiso   1.00
C73    C     0.13640   0.21110  -0.04940   0.00000  Uiso   1.00
H74    H     0.13230   0.15560  -0.06120   0.00000  Uiso   1.00
C75    C     0.06940   0.27580   0.08940   0.00000  Uiso   1.00
H76    H     0.01470   0.26920   0.20910   0.00000  Uiso   1.00
C77    C     0.11330   0.25450   0.00040   0.00000  Uiso   1.00
H78    H     0.12980   0.27180  -0.02950   0.00000  Uiso   1.00
C79    C     0.18340   0.18940  -0.11860   0.00000  Uiso   1.00
C80    C     0.20570   0.19800   0.05770   0.00000  Uiso   1.00
C81    C     0.20650   0.16110  -0.35210   0.00000  Uiso   1.00
C82    C     0.24950   0.17900  -0.00140   0.00000  Uiso   1.00
H83    H     0.18850   0.21960   0.24180   0.00000  Uiso   1.00
C84    C     0.25050   0.14240  -0.41450   0.00000  Uiso   1.00
H85    H     0.18980   0.15420  -0.49180   0.00000  Uiso   1.00
C86    C     0.27280   0.15120  -0.23930   0.00000  Uiso   1.00
H87    H     0.26630   0.18550   0.14090   0.00000  Uiso   1.00
H88    H     0.26730   0.12030  -0.59500   0.00000  Uiso   1.00
C89    C     0.31900   0.13340  -0.27460   0.00000  Uiso   1.00
H90    H     0.32750   0.14800  -0.12430   0.00000  Uiso   1.00
C91    C     0.35040   0.11070  -0.50270   0.00000  Uiso   1.00
C92    C     0.34260   0.09390  -0.73120   0.00000  Uiso   1.00
N93    N     0.33570   0.08140  -0.92960   0.00000  Uiso   1.00
C94    C     0.39500   0.09920  -0.49410   0.00000  Uiso   1.00
C95    C     0.42850   0.07090  -0.70050   0.00000  Uiso   1.00
C96    C     0.40550   0.11460  -0.27370   0.00000  Uiso   1.00
C97    C     0.47050   0.05800  -0.67720   0.00000  Uiso   1.00
H98    H     0.42180   0.05650  -0.86360   0.00000  Uiso   1.00
C99    C     0.44740   0.10170  -0.25020   0.00000  Uiso   1.00
H100   H     0.38120   0.13600  -0.10670   0.00000  Uiso   1.00
C101   C     0.48090   0.07340  -0.45620   0.00000  Uiso   1.00
H102   H     0.49530   0.03660  -0.84290   0.00000  Uiso   1.00
H103   H     0.45400   0.11620  -0.08700   0.00000  Uiso   1.00
C104   C     0.04580   0.32230   0.12020   0.00000  Uiso   1.00
C105   C     0.01760   0.34270   0.37330   0.00000  Uiso   1.00
C106   C     0.05260   0.34670  -0.11140   0.00000  Uiso   1.00
C107   C    -0.00320   0.38630   0.39360   0.00000  Uiso   1.00
H108   H     0.01290   0.32440   0.56040   0.00000  Uiso   1.00
C109   C     0.03150   0.39030  -0.09250   0.00000  Uiso   1.00
H110   H     0.07530   0.33140  -0.30640   0.00000  Uiso   1.00
C111   C     0.00240   0.41120   0.15710   0.00000  Uiso   1.00
H112   H    -0.02530   0.40170   0.59130   0.00000  Uiso   1.00
H113   H     0.03810   0.40750  -0.27710   0.00000  Uiso   1.00
C114   C    -0.14470  -0.30360  -0.02810   0.00000  Uiso   1.00
H115   H    -0.12090  -0.31520  -0.22380   0.00000  Uiso   1.00
C116   C    -0.14030  -0.33320   0.19480   0.00000  Uiso   1.00
C117   C    -0.16580  -0.32190   0.47190   0.00000  Uiso   1.00
N118   N    -0.18570  -0.31240   0.70840   0.00000  Uiso   1.00
C119   C    -0.11140  -0.37900   0.13820   0.00000  Uiso   1.00
C120   C    -0.11160  -0.40910   0.35160   0.00000  Uiso   1.00
C121   C    -0.08460  -0.39380  -0.13010   0.00000  Uiso   1.00
C122   C    -0.08640  -0.45200   0.29210   0.00000  Uiso   1.00
H123   H    -0.13370  -0.39870   0.55560   0.00000  Uiso   1.00
C124   C    -0.05950  -0.43660  -0.18970   0.00000  Uiso   1.00
H125   H    -0.08360  -0.37210  -0.30430   0.00000  Uiso   1.00
C126   C    -0.05950  -0.46670   0.02410   0.00000  Uiso   1.00
H127   H    -0.08710  -0.47390   0.46550   0.00000  Uiso   1.00
H128   H    -0.03740  -0.44690  -0.39390   0.00000  Uiso   1.00
C129   C    -0.02960  -0.51230  -0.03480   0.00000  Uiso   1.00
C130   C     0.52490   0.06290  -0.43800   0.00000  Uiso   1.00
C131   C     0.53020   0.08020  -0.19890   0.00000  Uiso   1.00
C132   C    -0.00460  -0.52210  -0.31390   0.00000  Uiso   1.00
N133   N     0.01510  -0.53040  -0.55170   0.00000  Uiso   1.00
N134   N     0.53630   0.09320   0.00010   0.00000  Uiso   1.00
C135   C    -0.02340  -0.54280   0.18470   0.00000  Uiso   1.00
C136   C     0.55850   0.04110  -0.65860   0.00000  Uiso   1.00
H137   H    -0.04700  -0.53270   0.38230   0.00000  Uiso   1.00
H138   H     0.55400   0.02400  -0.81590   0.00000  Uiso   1.00
loop_
_geom_bond_atom_site_label_1
_geom_bond_atom_site_label_2
_geom_bond_distance
_geom_bond_site_symmetry_2
_ccdc_geom_bond_type
C1     C2      1.389   .     S
C1     C6      1.407   .     D
C1     H7      1.091   .     S
C2     C3      1.416   .     D
C2     H8      1.094   .     S
C3     C4      1.403   .     S
C3     C12     1.476   .     S
C4     C5      1.390   .     D
C4     H9      1.089   .     S
C5     C6      1.418   .     S
C5     H10     1.094   .     S
C6     C11     1.484   .     S
C11    C13     1.383   .     D
C11    C15     1.413   .     S
C12    C14     1.386   .     D
C12    C16     1.416   .     S
C13    C19     1.467   .     S
C13    H40     1.097   .     S
C14    C29     1.484   .     S
C14    H39     1.101   .     S
C15    N17     1.180   .     T
C16    N18     1.179   .     T
C19    C20     1.412   .     D
C19    C21     1.415   .     S
C20    C22     1.387   .     S
C20    H23     1.088   .     S
C21    C24     1.384   .     D
C21    H25     1.094   .     S
C22    C26     1.408   .     D
C22    H27     1.092   .     S
C24    C26     1.408   .     S
C24    H28     1.093   .     S
C26    C70     1.480   .     S
C29    C30     1.393   .     D
C29    C31     1.405   .     S
C30    C32     1.389   .     S
C30    H33     1.088   .     S
C31    C34     1.402   .     D
C31    H35     1.083   .     S
C32    C36     1.417   .     D
C32    H37     1.079   .     S
C34    C36     1.393   .     S
C34    H38     1.086   .     S
C36    C41     1.475   .     S
C41    C42     1.411   .     D
C41    C43     1.402   .     S
C42    C44     1.399   .     S
C42    H45     1.086   .     S
C43    C46     1.407   .     D
C43    H47     1.084   .     S
C44    C48     1.399   .     D
C44    C50     1.502   .     S
C46    C48     1.416   .     S
C46    C60     1.471   .     S
C48    H49     1.085   .     S
C50    C51     1.395   .     D
C50    C52     1.411   .     S
C51    C53     1.400   .     S
C51    H54     1.098   .     S
C52    C55     1.395   .     D
C52    H56     1.085   .     S
C53    C57     1.417   .     D
C53    H58     1.080   .     S
C55    C57     1.404   .     S
C55    H59     1.098   .     S
C57    C114    1.475   .     S
C60    C61     1.399   .     D
C60    C62     1.431   .     S
C61    C63     1.408   .     S
C61    H64     1.096   .     S
C62    C65     1.387   .     D
C62    H66     1.082   .     S
C63    C67     1.425   .     D
C63    H68     1.085   .     S
C65    C67     1.404   .     S
C65    H69     1.087   .     S
C67    C136    1.479   1_455 S
C70    C71     1.413   .     D
C70    C72     1.413   .     S
C71    C73     1.396   .     S
C71    H74     1.094   .     S
C72    C75     1.394   .     D
C72    H76     1.094   .     S
C73    C77     1.410   .     D
C73    C79     1.495   .     S
C75    C77     1.409   .     S
C75    C104    1.496   .     S
C77    H78     1.083   .     S
C79    C80     1.403   .     D
C79    C81     1.411   .     S
C80    C82     1.394   .     S
C80    H83     1.095   .     S
C81    C84     1.402   .     D
C81    H85     1.085   .     S
C82    C86     1.417   .     D
C82    H87     1.087   .     S
C84    C86     1.404   .     S
C84    H88     1.092   .     S
C86    C89     1.477   .     S
C89    H90     1.088   .     S
C89    C91     1.393   .     D
C91    C92     1.404   .     S
C91    C94     1.490   .     S
C92    N93     1.174   .     T
C94    C95     1.425   .     D
C94    C96     1.399   .     S
C95    C97     1.396   .     S
C95    H98     1.085   .     S
C96    C99     1.393   .     D
C96    H100    1.095   .     S
C97    C101    1.399   .     D
C97    H102    1.097   .     S
C99    C101    1.424   .     S
C99    H103    1.086   .     S
C101   C130    1.488   .     S
C104   C105    1.409   .     D
C104   C106    1.397   .     S
C105   C107    1.400   .     S
C105   H108    1.083   .     S
C106   C109    1.399   .     D
C106   H110    1.095   .     S
C107   C111    1.407   .     D
C107   H112    1.097   .     S
C109   C111    1.413   .     S
C109   H113    1.077   .     S
C111   C135    1.479   1_565 S
C114   H115    1.096   .     S
C114   C116    1.379   .     D
C116   C117    1.410   .     S
C116   C119    1.500   .     S
C117   N118    1.179   .     T
C119   C120    1.406   .     D
C119   C121    1.407   .     S
C120   C122    1.405   .     S
C120   H123    1.093   .     S
C121   C124    1.402   .     D
C121   H125    1.082   .     S
C122   C126    1.406   .     D
C122   H127    1.081   .     S
C124   C126    1.405   .     S
C124   H128    1.093   .     S
C126   C129    1.500   .     S
C129   C132    1.409   .     S
C129   C135    1.380   .     D
C130   C131    1.407   .     S
C130   C136    1.400   .     D
C131   N134    1.172   .     T
C132   N133    1.179   .     T
C135   C111    1.479   1_545 S
C135   H137    1.096   .     S
C136   C67     1.479   1_655 S
C136   H138    1.090   .     S
