data_43
_audit_creation_date              2023-09-08
_audit_creation_method            'Materials Studio'
_symmetry_space_group_name_H-M    'P1'
_symmetry_Int_Tables_number       1
_symmetry_cell_setting            triclinic
loop_
_symmetry_equiv_pos_as_xyz
  x,y,z
_cell_length_a                    28.8033
_cell_length_b                    31.6325
_cell_length_c                    4.0492
_cell_angle_alpha                 90.0000
_cell_angle_beta                  90.0000
_cell_angle_gamma                 90.0000
loop_
_atom_site_label
_atom_site_type_symbol
_atom_site_fract_x
_atom_site_fract_y
_atom_site_fract_z
_atom_site_U_iso_or_equiv
_atom_site_adp_type
_atom_site_occupancy
C1     C     0.46498   0.95030   0.59244   0.00000  Uiso   1.00
C2     C     0.47756   0.90845   0.55316   0.00000  Uiso   1.00
C3     C     0.55340   0.87493   0.40477   0.00000  Uiso   1.00
C4     C     0.59957   0.88451   0.31722   0.00000  Uiso   1.00
C5     C     0.61133   0.92685   0.24116   0.00000  Uiso   1.00
C6     C     0.57906   0.95962   0.28510   0.00000  Uiso   1.00
C7     C     0.63652   0.85200   0.34792   0.00000  Uiso   1.00
C8     C     0.62879   0.80970   0.25571   0.00000  Uiso   1.00
C9     C     0.66290   0.77893   0.31284   0.00000  Uiso   1.00
C10    C     0.70522   0.79007   0.46179   0.00000  Uiso   1.00
C11    C     0.71316   0.83231   0.54857   0.00000  Uiso   1.00
C12    C     0.67914   0.86286   0.49445   0.00000  Uiso   1.00
C13    C     0.74200   0.75872   0.52552   0.00000  Uiso   1.00
N14    N     0.26632   0.71832   0.47701   0.00000  Uiso   1.00
C15    C     0.76909   0.31303   0.42749   0.00000  Uiso   1.00
C16    C     0.81472   0.30652   0.53867   0.00000  Uiso   1.00
C17    C     0.84846   0.33759   0.49318   0.00000  Uiso   1.00
C18    C     0.83735   0.37598   0.33730   0.00000  Uiso   1.00
C19    C     0.79153   0.38272   0.22949   0.00000  Uiso   1.00
C20    C     0.75765   0.35143   0.27621   0.00000  Uiso   1.00
C21    C     0.87317   0.40952   0.31228   0.00000  Uiso   1.00
C22    C     0.91971   0.39870   0.23925   0.00000  Uiso   1.00
C23    C     0.95570   0.42805   0.28449   0.00000  Uiso   1.00
C24    C     0.94543   0.46814   0.40698   0.00000  Uiso   1.00
C25    C     0.89945   0.47960   0.44607   0.00000  Uiso   1.00
C26    C     0.86262   0.45149   0.40119   0.00000  Uiso   1.00
H27    H     0.54299   0.84302   0.46603   0.00000  Uiso   1.00
H28    H     0.64616   0.93474   0.16139   0.00000  Uiso   1.00
H29    H     0.58977   0.99135   0.24328   0.00000  Uiso   1.00
H30    H     0.59649   0.80055   0.13920   0.00000  Uiso   1.00
H31    H     0.65654   0.74653   0.23906   0.00000  Uiso   1.00
H32    H     0.74542   0.84152   0.66583   0.00000  Uiso   1.00
H33    H     0.68564   0.89484   0.57763   0.00000  Uiso   1.00
H34    H     0.77630   0.77034   0.58784   0.00000  Uiso   1.00
H35    H     0.82396   0.27799   0.67025   0.00000  Uiso   1.00
H36    H     0.88294   0.33220   0.59099   0.00000  Uiso   1.00
H37    H     0.78210   0.41200   0.10829   0.00000  Uiso   1.00
H38    H     0.72251   0.35672   0.19148   0.00000  Uiso   1.00
H39    H     0.92833   0.36694   0.16032   0.00000  Uiso   1.00
H40    H     0.99056   0.41826   0.24349   0.00000  Uiso   1.00
H41    H     0.82748   0.46094   0.46035   0.00000  Uiso   1.00
C42    C     0.53502   0.04970   0.59244   0.00000  Uiso   1.00
C43    C     0.52244   0.09155   0.55316   0.00000  Uiso   1.00
C44    C     0.44660   0.12507   0.40477   0.00000  Uiso   1.00
C45    C     0.40043   0.11549   0.31722   0.00000  Uiso   1.00
C46    C     0.38867   0.07315   0.24116   0.00000  Uiso   1.00
C47    C     0.42094   0.04038   0.28510   0.00000  Uiso   1.00
C48    C     0.36348   0.14800   0.34792   0.00000  Uiso   1.00
C49    C     0.37121   0.19030   0.25571   0.00000  Uiso   1.00
C50    C     0.33710   0.22107   0.31284   0.00000  Uiso   1.00
C51    C     0.29478   0.20993   0.46179   0.00000  Uiso   1.00
C52    C     0.28684   0.16769   0.54857   0.00000  Uiso   1.00
C53    C     0.32086   0.13714   0.49445   0.00000  Uiso   1.00
C54    C     0.25800   0.24128   0.52552   0.00000  Uiso   1.00
N55    N     0.73368   0.28168   0.47701   0.00000  Uiso   1.00
C56    C     0.23091   0.68697   0.42749   0.00000  Uiso   1.00
C57    C     0.18528   0.69348   0.53867   0.00000  Uiso   1.00
C58    C     0.15154   0.66241   0.49318   0.00000  Uiso   1.00
C59    C     0.16265   0.62402   0.33730   0.00000  Uiso   1.00
C60    C     0.20847   0.61728   0.22949   0.00000  Uiso   1.00
C61    C     0.24235   0.64857   0.27621   0.00000  Uiso   1.00
C62    C     0.12683   0.59048   0.31228   0.00000  Uiso   1.00
C63    C     0.08029   0.60130   0.23925   0.00000  Uiso   1.00
C64    C     0.04430   0.57195   0.28449   0.00000  Uiso   1.00
C65    C     0.05457   0.53186   0.40698   0.00000  Uiso   1.00
C66    C     0.10055   0.52040   0.44607   0.00000  Uiso   1.00
C67    C     0.13738   0.54851   0.40119   0.00000  Uiso   1.00
H68    H     0.45701   0.15698   0.46603   0.00000  Uiso   1.00
H69    H     0.35384   0.06526   0.16139   0.00000  Uiso   1.00
H70    H     0.41023   0.00865   0.24328   0.00000  Uiso   1.00
H71    H     0.40351   0.19945   0.13920   0.00000  Uiso   1.00
H72    H     0.34346   0.25347   0.23906   0.00000  Uiso   1.00
H73    H     0.25458   0.15848   0.66583   0.00000  Uiso   1.00
H74    H     0.31436   0.10516   0.57763   0.00000  Uiso   1.00
H75    H     0.22370   0.22966   0.58784   0.00000  Uiso   1.00
H76    H     0.17604   0.72201   0.67025   0.00000  Uiso   1.00
H77    H     0.11706   0.66780   0.59099   0.00000  Uiso   1.00
H78    H     0.21790   0.58800   0.10829   0.00000  Uiso   1.00
H79    H     0.27749   0.64328   0.19148   0.00000  Uiso   1.00
H80    H     0.07167   0.63306   0.16032   0.00000  Uiso   1.00
H81    H     0.00944   0.58174   0.24349   0.00000  Uiso   1.00
H82    H     0.17252   0.53906   0.46035   0.00000  Uiso   1.00
C83    C     0.53502   0.95030   0.40756   0.00000  Uiso   1.00
C84    C     0.52244   0.90845   0.44684   0.00000  Uiso   1.00
C85    C     0.44660   0.87493   0.59523   0.00000  Uiso   1.00
C86    C     0.40043   0.88451   0.68278   0.00000  Uiso   1.00
C87    C     0.38867   0.92685   0.75884   0.00000  Uiso   1.00
C88    C     0.42094   0.95962   0.71490   0.00000  Uiso   1.00
C89    C     0.36348   0.85200   0.65208   0.00000  Uiso   1.00
C90    C     0.37121   0.80970   0.74429   0.00000  Uiso   1.00
C91    C     0.33710   0.77893   0.68716   0.00000  Uiso   1.00
C92    C     0.29478   0.79007   0.53821   0.00000  Uiso   1.00
C93    C     0.28684   0.83231   0.45143   0.00000  Uiso   1.00
C94    C     0.32086   0.86286   0.50555   0.00000  Uiso   1.00
C95    C     0.25800   0.75872   0.47448   0.00000  Uiso   1.00
N96    N     0.73368   0.71832   0.52299   0.00000  Uiso   1.00
C97    C     0.23091   0.31303   0.57251   0.00000  Uiso   1.00
C98    C     0.18528   0.30652   0.46133   0.00000  Uiso   1.00
C99    C     0.15154   0.33759   0.50682   0.00000  Uiso   1.00
C100   C     0.16265   0.37598   0.66270   0.00000  Uiso   1.00
C101   C     0.20847   0.38272   0.77051   0.00000  Uiso   1.00
C102   C     0.24235   0.35143   0.72379   0.00000  Uiso   1.00
C103   C     0.12683   0.40952   0.68772   0.00000  Uiso   1.00
C104   C     0.08029   0.39870   0.76075   0.00000  Uiso   1.00
C105   C     0.04430   0.42805   0.71551   0.00000  Uiso   1.00
C106   C     0.05457   0.46814   0.59302   0.00000  Uiso   1.00
C107   C     0.10055   0.47960   0.55393   0.00000  Uiso   1.00
C108   C     0.13738   0.45149   0.59881   0.00000  Uiso   1.00
H109   H     0.45701   0.84302   0.53397   0.00000  Uiso   1.00
H110   H     0.35384   0.93474   0.83861   0.00000  Uiso   1.00
H111   H     0.41023   0.99135   0.75672   0.00000  Uiso   1.00
H112   H     0.40351   0.80055   0.86080   0.00000  Uiso   1.00
H113   H     0.34346   0.74653   0.76094   0.00000  Uiso   1.00
H114   H     0.25458   0.84152   0.33417   0.00000  Uiso   1.00
H115   H     0.31436   0.89484   0.42237   0.00000  Uiso   1.00
H116   H     0.22370   0.77034   0.41216   0.00000  Uiso   1.00
H117   H     0.17604   0.27799   0.32975   0.00000  Uiso   1.00
H118   H     0.11706   0.33220   0.40901   0.00000  Uiso   1.00
H119   H     0.21790   0.41200   0.89171   0.00000  Uiso   1.00
H120   H     0.27749   0.35672   0.80852   0.00000  Uiso   1.00
H121   H     0.07167   0.36694   0.83968   0.00000  Uiso   1.00
H122   H     0.00944   0.41826   0.75651   0.00000  Uiso   1.00
H123   H     0.17252   0.46094   0.53965   0.00000  Uiso   1.00
C124   C     0.46498   0.04970   0.40756   0.00000  Uiso   1.00
C125   C     0.47756   0.09155   0.44684   0.00000  Uiso   1.00
C126   C     0.55340   0.12507   0.59523   0.00000  Uiso   1.00
C127   C     0.59957   0.11549   0.68278   0.00000  Uiso   1.00
C128   C     0.61133   0.07315   0.75884   0.00000  Uiso   1.00
C129   C     0.57906   0.04038   0.71490   0.00000  Uiso   1.00
C130   C     0.63652   0.14800   0.65208   0.00000  Uiso   1.00
C131   C     0.62879   0.19030   0.74429   0.00000  Uiso   1.00
C132   C     0.66290   0.22107   0.68716   0.00000  Uiso   1.00
C133   C     0.70522   0.20993   0.53821   0.00000  Uiso   1.00
C134   C     0.71316   0.16769   0.45143   0.00000  Uiso   1.00
C135   C     0.67914   0.13714   0.50555   0.00000  Uiso   1.00
C136   C     0.74200   0.24128   0.47448   0.00000  Uiso   1.00
N137   N     0.26632   0.28168   0.52299   0.00000  Uiso   1.00
C138   C     0.76909   0.68697   0.57251   0.00000  Uiso   1.00
C139   C     0.81472   0.69348   0.46133   0.00000  Uiso   1.00
C140   C     0.84846   0.66241   0.50682   0.00000  Uiso   1.00
C141   C     0.83735   0.62402   0.66270   0.00000  Uiso   1.00
C142   C     0.79153   0.61728   0.77051   0.00000  Uiso   1.00
C143   C     0.75765   0.64857   0.72379   0.00000  Uiso   1.00
C144   C     0.87317   0.59048   0.68772   0.00000  Uiso   1.00
C145   C     0.91971   0.60130   0.76075   0.00000  Uiso   1.00
C146   C     0.95570   0.57195   0.71551   0.00000  Uiso   1.00
C147   C     0.94543   0.53186   0.59302   0.00000  Uiso   1.00
C148   C     0.89945   0.52040   0.55393   0.00000  Uiso   1.00
C149   C     0.86262   0.54851   0.59881   0.00000  Uiso   1.00
H150   H     0.54299   0.15698   0.53397   0.00000  Uiso   1.00
H151   H     0.64616   0.06526   0.83861   0.00000  Uiso   1.00
H152   H     0.58977   0.00865   0.75672   0.00000  Uiso   1.00
H153   H     0.59649   0.19945   0.86080   0.00000  Uiso   1.00
H154   H     0.65654   0.25347   0.76094   0.00000  Uiso   1.00
H155   H     0.74542   0.15848   0.33417   0.00000  Uiso   1.00
H156   H     0.68564   0.10516   0.42237   0.00000  Uiso   1.00
H157   H     0.77630   0.22966   0.41216   0.00000  Uiso   1.00
H158   H     0.82396   0.72201   0.32975   0.00000  Uiso   1.00
H159   H     0.88294   0.66780   0.40901   0.00000  Uiso   1.00
H160   H     0.78210   0.58800   0.89171   0.00000  Uiso   1.00
H161   H     0.72251   0.64328   0.80852   0.00000  Uiso   1.00
H162   H     0.92833   0.63306   0.83968   0.00000  Uiso   1.00
H163   H     0.99056   0.58174   0.75651   0.00000  Uiso   1.00
H164   H     0.82748   0.53906   0.53965   0.00000  Uiso   1.00
N165   N     0.50000   0.97726   0.50000   0.00000  Uiso   1.00
N166   N     0.50000   0.02274   0.50000   0.00000  Uiso   1.00
N167   N     0.97503   0.50000   0.50000   0.00000  Uiso   1.00
N168   N     0.02497   0.50000   0.50000   0.00000  Uiso   1.00
loop_
_geom_bond_atom_site_label_1
_geom_bond_atom_site_label_2
_geom_bond_distance
_geom_bond_site_symmetry_2
_ccdc_geom_bond_type
C1     C2      1.382   .     D
C1     C88     1.394   .     S
C1     N165    1.373   .     S
C2     C84     1.362   .     S
C2     C85     1.396   .     S
C3     C4      1.409   .     D
C3     H27     1.082   .     S
C3     C84     1.396   .     S
C4     C5      1.415   .     S
C4     C7      1.485   .     S
C5     C6      1.404   .     D
C5     H28     1.083   .     S
C6     H29     1.064   .     S
C6     C83     1.394   .     S
C7     C8      1.407   .     D
C7     C12     1.406   .     S
C8     C9      1.402   .     S
C8     H30     1.083   .     S
C9     C10     1.405   .     D
C9     H31     1.083   .     S
C10    C11     1.400   .     S
C10    C13     1.474   .     S
C11    C12     1.394   .     D
C11    H32     1.083   .     S
C12    H33     1.083   .     S
C13    H34     1.084   .     S
C13    N96     1.300   .     D
N14    C56     1.437   .     S
N14    C95     1.300   .     D
C15    C16     1.404   .     D
C15    C20     1.400   .     S
C15    N55     1.437   .     S
C16    C17     1.394   .     S
C16    H35     1.081   .     S
C17    C18     1.406   .     D
C17    H36     1.083   .     S
C18    C19     1.406   .     S
C18    C21     1.483   .     S
C19    C20     1.403   .     D
C19    H37     1.083   .     S
C20    H38     1.082   .     S
C21    C22     1.415   .     D
C21    C26     1.409   .     S
C22    C23     1.404   .     S
C22    H39     1.083   .     S
C23    C24     1.393   .     D
C23    H40     1.064   .     S
C24    C25     1.382   .     S
C24    N167    1.373   .     S
C25    C26     1.396   .     D
C25    C148    1.363   .     S
C26    H41     1.082   .     S
C42    C43     1.382   .     D
C42    C129    1.394   .     S
C42    N166    1.373   .     S
C43    C125    1.362   .     S
C43    C126    1.396   .     S
C44    C45     1.409   .     D
C44    H68     1.082   .     S
C44    C125    1.396   .     S
C45    C46     1.415   .     S
C45    C48     1.485   .     S
C46    C47     1.404   .     D
C46    H69     1.083   .     S
C47    H70     1.064   .     S
C47    C124    1.394   .     S
C48    C49     1.407   .     D
C48    C53     1.406   .     S
C49    C50     1.402   .     S
C49    H71     1.083   .     S
C50    C51     1.405   .     D
C50    H72     1.083   .     S
C51    C52     1.400   .     S
C51    C54     1.474   .     S
C52    C53     1.394   .     D
C52    H73     1.083   .     S
C53    H74     1.083   .     S
C54    H75     1.084   .     S
C54    N137    1.300   .     D
N55    C136    1.300   .     D
C56    C57     1.404   .     D
C56    C61     1.400   .     S
C57    C58     1.394   .     S
C57    H76     1.081   .     S
C58    C59     1.406   .     D
C58    H77     1.083   .     S
C59    C60     1.406   .     S
C59    C62     1.483   .     S
C60    C61     1.403   .     D
C60    H78     1.083   .     S
C61    H79     1.082   .     S
C62    C63     1.415   .     D
C62    C67     1.409   .     S
C63    C64     1.404   .     S
C63    H80     1.083   .     S
C64    C65     1.393   .     D
C64    H81     1.064   .     S
C65    C66     1.382   .     S
C65    N168    1.373   .     S
C66    C67     1.396   .     D
C66    C107    1.363   .     S
C67    H82     1.082   .     S
C83    C84     1.382   .     D
C83    N165    1.373   .     S
C85    C86     1.409   .     D
C85    H109    1.082   .     S
C86    C87     1.415   .     S
C86    C89     1.485   .     S
C87    C88     1.404   .     D
C87    H110    1.083   .     S
C88    H111    1.064   .     S
C89    C90     1.407   .     D
C89    C94     1.406   .     S
C90    C91     1.402   .     S
C90    H112    1.083   .     S
C91    C92     1.405   .     D
C91    H113    1.083   .     S
C92    C93     1.400   .     S
C92    C95     1.474   .     S
C93    C94     1.394   .     D
C93    H114    1.083   .     S
C94    H115    1.083   .     S
C95    H116    1.084   .     S
N96    C138    1.437   .     S
C97    C98     1.404   .     D
C97    C102    1.400   .     S
C97    N137    1.437   .     S
C98    C99     1.394   .     S
C98    H117    1.081   .     S
C99    C100    1.406   .     D
C99    H118    1.083   .     S
C100   C101    1.406   .     S
C100   C103    1.483   .     S
C101   C102    1.403   .     D
C101   H119    1.083   .     S
C102   H120    1.082   .     S
C103   C104    1.415   .     S
C103   C108    1.409   .     D
C104   C105    1.404   .     D
C104   H121    1.083   .     S
C105   C106    1.393   .     S
C105   H122    1.064   .     S
C106   C107    1.382   .     D
C106   N168    1.373   .     S
C107   C108    1.396   .     S
C108   H123    1.082   .     S
C124   C125    1.382   .     D
C124   N166    1.373   .     S
C126   C127    1.409   .     D
C126   H150    1.082   .     S
C127   C128    1.415   .     S
C127   C130    1.485   .     S
C128   C129    1.404   .     D
C128   H151    1.083   .     S
C129   H152    1.064   .     S
C130   C131    1.407   .     D
C130   C135    1.406   .     S
C131   C132    1.402   .     S
C131   H153    1.083   .     S
C132   C133    1.405   .     D
C132   H154    1.083   .     S
C133   C134    1.400   .     S
C133   C136    1.474   .     S
C134   C135    1.394   .     D
C134   H155    1.083   .     S
C135   H156    1.083   .     S
C136   H157    1.084   .     S
C138   C139    1.404   .     D
C138   C143    1.400   .     S
C139   C140    1.394   .     S
C139   H158    1.081   .     S
C140   C141    1.406   .     D
C140   H159    1.083   .     S
C141   C142    1.406   .     S
C141   C144    1.483   .     S
C142   C143    1.403   .     D
C142   H160    1.083   .     S
C143   H161    1.082   .     S
C144   C145    1.415   .     S
C144   C149    1.409   .     D
C145   C146    1.404   .     D
C145   H162    1.083   .     S
C146   C147    1.393   .     S
C146   H163    1.064   .     S
C147   C148    1.382   .     D
C147   N167    1.373   .     S
C148   C149    1.396   .     S
C149   H164    1.082   .     S
N165   N166    1.439   1_565 S
N166   N165    1.439   1_545 S
N167   N168    1.438   1_655 S
N168   N167    1.438   1_455 S
