data_430
_audit_creation_date              2023-09-08
_audit_creation_method            'Materials Studio'
_symmetry_space_group_name_H-M    'P1'
_symmetry_Int_Tables_number       1
_symmetry_cell_setting            triclinic
loop_
_symmetry_equiv_pos_as_xyz
  x,y,z
_cell_length_a                    47.1066
_cell_length_b                    47.9596
_cell_length_c                    4.5810
_cell_angle_alpha                 82.0000
_cell_angle_beta                  89.0000
_cell_angle_gamma                 60.0000
loop_
_atom_site_label
_atom_site_type_symbol
_atom_site_fract_x
_atom_site_fract_y
_atom_site_fract_z
_atom_site_U_iso_or_equiv
_atom_site_adp_type
_atom_site_occupancy
C1     C     0.29270   0.14220   0.08090   0.00000  Uiso   1.00
C2     C     0.30940   0.12700  -0.15870   0.00000  Uiso   1.00
C3     C     0.33480   0.13110  -0.28230   0.00000  Uiso   1.00
C4     C     0.34570   0.14950  -0.15250   0.00000  Uiso   1.00
C5     C     0.32820   0.16580   0.07920   0.00000  Uiso   1.00
C6     C     0.30270   0.16200   0.19970   0.00000  Uiso   1.00
C7     C     0.26560   0.13800   0.20520   0.00000  Uiso   1.00
C8     C     0.25550   0.11830   0.08520   0.00000  Uiso   1.00
C9     C     0.22970   0.11490   0.20300   0.00000  Uiso   1.00
C10    C     0.21210   0.13120   0.43400   0.00000  Uiso   1.00
C11    C     0.22320   0.14930   0.56600   0.00000  Uiso   1.00
C12    C     0.24880   0.15320   0.44460   0.00000  Uiso   1.00
H13    H     0.30290   0.11130  -0.25520   0.00000  Uiso   1.00
H14    H     0.34940   0.11600  -0.44460   0.00000  Uiso   1.00
H15    H     0.33510   0.18090   0.18110   0.00000  Uiso   1.00
H16    H     0.28840   0.17720   0.36200   0.00000  Uiso   1.00
H17    H     0.26970   0.10310  -0.07730   0.00000  Uiso   1.00
H18    H     0.22270   0.10000   0.09880   0.00000  Uiso   1.00
H19    H     0.20860   0.16440   0.72870   0.00000  Uiso   1.00
H20    H     0.25550   0.16870   0.54290   0.00000  Uiso   1.00
C21    C     0.37670   0.14880  -0.23920   0.00000  Uiso   1.00
C22    C     0.18060   0.13250   0.51540   0.00000  Uiso   1.00
C23    C     0.39130   0.15990  -0.06070   0.00000  Uiso   1.00
C24    C     0.16620   0.12160   0.33520   0.00000  Uiso   1.00
C25    C     0.16400   0.14980   0.74720   0.00000  Uiso   1.00
C26    C     0.39320   0.13200  -0.47360   0.00000  Uiso   1.00
N27    N     0.15070   0.16290   0.94730   0.00000  Uiso   1.00
N28    N     0.40700   0.11920  -0.67390   0.00000  Uiso   1.00
H29    H     0.37550   0.17520   0.09600   0.00000  Uiso   1.00
H30    H     0.18220   0.10620   0.18020   0.00000  Uiso   1.00
C31    C     0.42190   0.16080  -0.08160   0.00000  Uiso   1.00
C32    C     0.44720   0.14540  -0.27350   0.00000  Uiso   1.00
C33    C     0.42700   0.17720   0.12630   0.00000  Uiso   1.00
C34    C     0.47600   0.14670  -0.25520   0.00000  Uiso   1.00
H35    H     0.44490   0.13140  -0.43040   0.00000  Uiso   1.00
C36    C     0.45570   0.17840   0.14360   0.00000  Uiso   1.00
H37    H     0.40820   0.18860   0.28210   0.00000  Uiso   1.00
C38    C     0.48070   0.16330  -0.04910   0.00000  Uiso   1.00
H39    H     0.49510   0.13480  -0.40680   0.00000  Uiso   1.00
H40    H     0.45880   0.19130   0.30660   0.00000  Uiso   1.00
C41    C     0.13460   0.12250   0.33500   0.00000  Uiso   1.00
C42    C     0.10780   0.14030   0.50530   0.00000  Uiso   1.00
C43    C     0.13000   0.10690   0.11640   0.00000  Uiso   1.00
C44    C     0.07720   0.14410   0.43640   0.00000  Uiso   1.00
H45    H     0.11000   0.15350   0.66980   0.00000  Uiso   1.00
C46    C     0.09970   0.11040   0.05060   0.00000  Uiso   1.00
H47    H     0.15050   0.09330  -0.01730   0.00000  Uiso   1.00
C48    C     0.07250   0.13010   0.20740   0.00000  Uiso   1.00
H49    H     0.05650   0.15780   0.56660   0.00000  Uiso   1.00
H50    H     0.09700   0.09740  -0.11340   0.00000  Uiso   1.00
C51    C     0.04010   0.13410   0.12750   0.00000  Uiso   1.00
C52    C     0.01210   0.16350   0.05710   0.00000  Uiso   1.00
C53    C    -0.02050   0.63580  -0.10150   0.00000  Uiso   1.00
C54    C    -0.03670   0.63460  -0.34700   0.00000  Uiso   1.00
C55    C    -0.00390   0.60770   0.10830   0.00000  Uiso   1.00
C56    C    -0.03680   0.60630  -0.39170   0.00000  Uiso   1.00
H57    H    -0.04860   0.65600  -0.51220   0.00000  Uiso   1.00
C58    C    -0.00410   0.57960   0.06540   0.00000  Uiso   1.00
H59    H     0.01070   0.60740   0.29020   0.00000  Uiso   1.00
C60    C    -0.02110   0.57850  -0.17700   0.00000  Uiso   1.00
H61    H    -0.05190   0.60700  -0.57130   0.00000  Uiso   1.00
H62    H     0.00740   0.55850   0.23490   0.00000  Uiso   1.00
C63    C    -0.02380   0.54910  -0.16470   0.00000  Uiso   1.00
C64    C    -0.03600   0.53850  -0.36820   0.00000  Uiso   1.00
H65    H    -0.00950   0.53100   0.02290   0.00000  Uiso   1.00
C66    C    -0.03320   0.50570  -0.31480   0.00000  Uiso   1.00
C67    C    -0.05350   0.55770  -0.63240   0.00000  Uiso   1.00
C68    C    -0.04770   0.49660  -0.52000   0.00000  Uiso   1.00
C69    C    -0.01600   0.48300  -0.06600   0.00000  Uiso   1.00
N70    N    -0.06710   0.56990  -0.86430   0.00000  Uiso   1.00
C71    C    -0.04510   0.46610  -0.47900   0.00000  Uiso   1.00
H72    H    -0.06160   0.51360  -0.71360   0.00000  Uiso   1.00
C73    C    -0.01370   0.45260  -0.02370   0.00000  Uiso   1.00
H74    H    -0.00410   0.48860   0.09970   0.00000  Uiso   1.00
C75    C    -0.02810   0.44360  -0.23000   0.00000  Uiso   1.00
H76    H    -0.05710   0.46010  -0.64070   0.00000  Uiso   1.00
H77    H    -0.00030   0.43550   0.17190   0.00000  Uiso   1.00
C78    C    -0.02590   0.41100  -0.17640   0.00000  Uiso   1.00
C79    C    -0.00890   0.38730  -0.35990   0.00000  Uiso   1.00
C80    C    -0.04050   0.40350   0.06760   0.00000  Uiso   1.00
C81    C    -0.00590   0.35660  -0.29500   0.00000  Uiso   1.00
H82    H     0.00300   0.39250  -0.54960   0.00000  Uiso   1.00
C83    C    -0.03790   0.37310   0.13090   0.00000  Uiso   1.00
H84    H    -0.05420   0.42170   0.21110   0.00000  Uiso   1.00
C85    C    -0.02020   0.34890  -0.04880   0.00000  Uiso   1.00
H86    H     0.00750   0.33890  -0.44260   0.00000  Uiso   1.00
H87    H    -0.05020   0.36830   0.31770   0.00000  Uiso   1.00
C88    C    -0.01770   0.31650   0.02630   0.00000  Uiso   1.00
C89    C    -0.00310   0.29220  -0.14900   0.00000  Uiso   1.00
C90    C    -0.03250   0.31210   0.28460   0.00000  Uiso   1.00
H91    H     0.01240   0.29470  -0.31890   0.00000  Uiso   1.00
C92    C     0.00150   0.25920  -0.07180   0.00000  Uiso   1.00
N93    N    -0.04350   0.30910   0.51110   0.00000  Uiso   1.00
C94    C    -0.02400   0.25410   0.03210   0.00000  Uiso   1.00
C95    C     0.03150   0.23210  -0.12060   0.00000  Uiso   1.00
C96    C    -0.01990   0.22300   0.07670   0.00000  Uiso   1.00
H97    H    -0.04760   0.27460   0.06540   0.00000  Uiso   1.00
C98    C     0.03590   0.20100  -0.06590   0.00000  Uiso   1.00
H99    H     0.05150   0.23560  -0.20330   0.00000  Uiso   1.00
C100   C     0.01000   0.19570   0.02880   0.00000  Uiso   1.00
H101   H    -0.04050   0.21990   0.14670   0.00000  Uiso   1.00
H102   H     0.05940   0.18080  -0.10630   0.00000  Uiso   1.00
C103   C     0.04020   0.10320   0.11420   0.00000  Uiso   1.00
C104   C     0.02470   0.10010  -0.12640   0.00000  Uiso   1.00
C105   C     0.05600   0.07630   0.33700   0.00000  Uiso   1.00
C106   C     0.02220   0.07260  -0.13910   0.00000  Uiso   1.00
H107   H     0.01520   0.11940  -0.31230   0.00000  Uiso   1.00
C108   C     0.05350   0.04870   0.32520   0.00000  Uiso   1.00
H109   H     0.07060   0.07690   0.51420   0.00000  Uiso   1.00
C110   C     0.03550   0.04670   0.09600   0.00000  Uiso   1.00
H111   H     0.00810   0.07230  -0.32170   0.00000  Uiso   1.00
H112   H     0.06450   0.02870   0.50630   0.00000  Uiso   1.00
C113   C     0.03000   0.01890   0.13040   0.00000  Uiso   1.00
C114   C     0.01560   0.00950  -0.06580   0.00000  Uiso   1.00
H115   H     0.04340   0.00100   0.32190   0.00000  Uiso   1.00
C116   C     0.01340  -0.02070   0.00320   0.00000  Uiso   1.00
C117   C    -0.00020   0.02870  -0.33550   0.00000  Uiso   1.00
C118   C     0.02780  -0.04280   0.26170   0.00000  Uiso   1.00
C119   C    -0.00420  -0.02750  -0.19430   0.00000  Uiso   1.00
N120   N    -0.01260   0.04190  -0.56980   0.00000  Uiso   1.00
C121   C     0.02480  -0.07050   0.32160   0.00000  Uiso   1.00
H122   H     0.04130  -0.03850   0.42330   0.00000  Uiso   1.00
C123   C    -0.00680  -0.05530  -0.13560   0.00000  Uiso   1.00
H124   H    -0.01650  -0.01040  -0.39250   0.00000  Uiso   1.00
C125   C     0.00780  -0.07740   0.12150   0.00000  Uiso   1.00
H126   H     0.03670  -0.08750   0.52200   0.00000  Uiso   1.00
H127   H    -0.02050  -0.05990  -0.29300   0.00000  Uiso   1.00
C128   C     0.00550  -0.10770   0.17400   0.00000  Uiso   1.00
C129   C    -0.01140  -0.11340   0.40870   0.00000  Uiso   1.00
C130   C     0.02000  -0.13100  -0.01700   0.00000  Uiso   1.00
C131   C    -0.01360  -0.14150   0.45180   0.00000  Uiso   1.00
H132   H    -0.02340  -0.09540   0.55760   0.00000  Uiso   1.00
C133   C     0.01810  -0.15940   0.02800   0.00000  Uiso   1.00
H134   H     0.03330  -0.12720  -0.20130   0.00000  Uiso   1.00
C135   C     0.00120  -0.16520   0.26310   0.00000  Uiso   1.00
H136   H    -0.02750  -0.14480   0.63320   0.00000  Uiso   1.00
H137   H     0.03000  -0.17680  -0.12560   0.00000  Uiso   1.00
C138   C    -0.00130  -0.19540   0.31760   0.00000  Uiso   1.00
C139   C     0.01120  -0.21820   0.12750   0.00000  Uiso   1.00
C140   C    -0.01880  -0.19730   0.56600   0.00000  Uiso   1.00
H141   H     0.02550  -0.21420  -0.04650   0.00000  Uiso   1.00
C142   C     0.01350  -0.25010   0.14010   0.00000  Uiso   1.00
N143   N    -0.03230  -0.19620   0.78550   0.00000  Uiso   1.00
C144   C    -0.00310  -0.26190   0.33550   0.00000  Uiso   1.00
C145   C     0.03050  -0.26790  -0.08600   0.00000  Uiso   1.00
C146   C    -0.00480  -0.28900   0.28000   0.00000  Uiso   1.00
H147   H    -0.01800  -0.24750   0.50020   0.00000  Uiso   1.00
C148   C     0.02900  -0.29510  -0.13920   0.00000  Uiso   1.00
H149   H     0.04320  -0.25880  -0.23720   0.00000  Uiso   1.00
C150   C     0.01030  -0.30530   0.04250   0.00000  Uiso   1.00
H151   H    -0.01800  -0.29800   0.42630   0.00000  Uiso   1.00
H152   H     0.04370  -0.30950  -0.30510   0.00000  Uiso   1.00
C153   C     0.00820  -0.33390  -0.02180   0.00000  Uiso   1.00
C154   C    -0.02080  -0.33360  -0.06250   0.00000  Uiso   1.00
C155   C    -0.01960   0.16440  -0.00140   0.00000  Uiso   1.00
C156   C    -0.03850   0.18070  -0.26460   0.00000  Uiso   1.00
C157   C    -0.03090   0.14830   0.20890   0.00000  Uiso   1.00
C158   C    -0.06770   0.18100  -0.32370   0.00000  Uiso   1.00
H159   H    -0.02960   0.19240  -0.43170   0.00000  Uiso   1.00
C160   C    -0.05990   0.14880   0.15190   0.00000  Uiso   1.00
H161   H    -0.01610   0.13430   0.40860   0.00000  Uiso   1.00
C162   C    -0.07920   0.16540  -0.11000   0.00000  Uiso   1.00
H163   H    -0.08260   0.19540  -0.52290   0.00000  Uiso   1.00
H164   H    -0.06880   0.13720   0.32170   0.00000  Uiso   1.00
C165   C    -0.11120   0.16720  -0.11400   0.00000  Uiso   1.00
C166   C    -0.13620   0.17920  -0.32820   0.00000  Uiso   1.00
H167   H    -0.11310   0.15240   0.07880   0.00000  Uiso   1.00
C168   C    -0.16730   0.17930  -0.25190   0.00000  Uiso   1.00
C169   C    -0.13570   0.19590  -0.60330   0.00000  Uiso   1.00
C170   C    -0.16980   0.16350   0.01940   0.00000  Uiso   1.00
C171   C    -0.19590   0.19780  -0.43820   0.00000  Uiso   1.00
N172   N    -0.13480   0.20870  -0.83780   0.00000  Uiso   1.00
C173   C    -0.19970   0.16770   0.11810   0.00000  Uiso   1.00
H174   H    -0.14850   0.14850   0.16910   0.00000  Uiso   1.00
C175   C    -0.22600   0.20230  -0.33800   0.00000  Uiso   1.00
H176   H    -0.19540   0.21220  -0.64050   0.00000  Uiso   1.00
C177   C    -0.22880   0.18760  -0.06110   0.00000  Uiso   1.00
H178   H    -0.19960   0.15300   0.32020   0.00000  Uiso   1.00
H179   H    -0.24760   0.21750  -0.48440   0.00000  Uiso   1.00
C180   C    -0.26060   0.19200   0.04080   0.00000  Uiso   1.00
C181   C    -0.26300   0.17720   0.31840   0.00000  Uiso   1.00
C182   C    -0.28990   0.21140  -0.13780   0.00000  Uiso   1.00
C183   C    -0.29280   0.18100   0.41980   0.00000  Uiso   1.00
H184   H    -0.24140   0.16230   0.46490   0.00000  Uiso   1.00
C185   C    -0.31950   0.21480  -0.03850   0.00000  Uiso   1.00
H186   H    -0.29020   0.22610  -0.34050   0.00000  Uiso   1.00
C187   C    -0.32160   0.19890   0.23360   0.00000  Uiso   1.00
H188   H    -0.29300   0.16640   0.62230   0.00000  Uiso   1.00
H189   H    -0.34100   0.22930  -0.18770   0.00000  Uiso   1.00
C190   C    -0.35180   0.19750   0.31220   0.00000  Uiso   1.00
C191   C    -0.37700   0.20840   0.10170   0.00000  Uiso   1.00
C192   C    -0.35120   0.18030   0.58830   0.00000  Uiso   1.00
H193   H    -0.37640   0.22390  -0.09310   0.00000  Uiso   1.00
C194   C    -0.40760   0.20720   0.10760   0.00000  Uiso   1.00
N195   N    -0.35110   0.16710   0.82320   0.00000  Uiso   1.00
C196   C    -0.41590   0.18940   0.32920   0.00000  Uiso   1.00
C197   C    -0.42830   0.22250  -0.14840   0.00000  Uiso   1.00
C198   C    -0.44270   0.18540   0.27960   0.00000  Uiso   1.00
H199   H    -0.40010   0.17650   0.52710   0.00000  Uiso   1.00
C200   C    -0.45530   0.21890  -0.19570   0.00000  Uiso   1.00
H201   H    -0.42200   0.23620  -0.32150   0.00000  Uiso   1.00
C202   C    -0.46220   0.19930   0.01790   0.00000  Uiso   1.00
H203   H    -0.44920   0.17170   0.44830   0.00000  Uiso   1.00
H204   H    -0.47140   0.23160  -0.39220   0.00000  Uiso   1.00
C205   C    -0.49080   0.19490  -0.03090   0.00000  Uiso   1.00
C206   C    -0.48860   0.16520  -0.02770   0.00000  Uiso   1.00
C207   C    -0.05380  -0.30440  -0.06690   0.00000  Uiso   1.00
C208   C    -0.05980  -0.27270  -0.15970   0.00000  Uiso   1.00
C209   C    -0.08070  -0.30810   0.02240   0.00000  Uiso   1.00
C210   C    -0.09080  -0.24590  -0.15530   0.00000  Uiso   1.00
H211   H    -0.04000  -0.26850  -0.23580   0.00000  Uiso   1.00
C212   C    -0.11160  -0.28130   0.03470   0.00000  Uiso   1.00
H213   H    -0.07730  -0.33230   0.08850   0.00000  Uiso   1.00
C214   C    -0.11720  -0.24970  -0.05530   0.00000  Uiso   1.00
H215   H    -0.09430  -0.22180  -0.22190   0.00000  Uiso   1.00
H216   H    -0.13170  -0.28490   0.11260   0.00000  Uiso   1.00
C217   C    -0.14970  -0.22130  -0.02950   0.00000  Uiso   1.00
C218   C    -0.16600  -0.19540  -0.25220   0.00000  Uiso   1.00
H219   H    -0.16410  -0.22490   0.14630   0.00000  Uiso   1.00
C220   C    -0.19700  -0.16610  -0.20020   0.00000  Uiso   1.00
C221   C    -0.15010  -0.19480  -0.51400   0.00000  Uiso   1.00
C222   C    -0.21380  -0.16570   0.05590   0.00000  Uiso   1.00
C223   C    -0.20810  -0.13670  -0.39320   0.00000  Uiso   1.00
N224   N    -0.13570  -0.19690  -0.73000   0.00000  Uiso   1.00
C225   C    -0.23920  -0.13700   0.13680   0.00000  Uiso   1.00
H226   H    -0.20640  -0.18810   0.20560   0.00000  Uiso   1.00
C227   C    -0.23300  -0.10770  -0.30850   0.00000  Uiso   1.00
H228   H    -0.19350  -0.13560  -0.57700   0.00000  Uiso   1.00
C229   C    -0.24930  -0.10710  -0.04720   0.00000  Uiso   1.00
H230   H    -0.25330  -0.13860   0.32230   0.00000  Uiso   1.00
H231   H    -0.23930  -0.08530  -0.45210   0.00000  Uiso   1.00
C232   C    -0.27550  -0.07620   0.03560   0.00000  Uiso   1.00
C233   C    -0.29210  -0.07500   0.29540   0.00000  Uiso   1.00
C234   C    -0.28470  -0.04640  -0.14750   0.00000  Uiso   1.00
C235   C    -0.31650  -0.04570   0.38020   0.00000  Uiso   1.00
H236   H    -0.28650  -0.09730   0.43780   0.00000  Uiso   1.00
C237   C    -0.30920  -0.01730  -0.06570   0.00000  Uiso   1.00
H238   H    -0.27030  -0.04520  -0.33190   0.00000  Uiso   1.00
C239   C    -0.32640  -0.01630   0.18950   0.00000  Uiso   1.00
H240   H    -0.33130  -0.04610   0.56350   0.00000  Uiso   1.00
H241   H    -0.31540   0.00480  -0.21390   0.00000  Uiso   1.00
C242   C    -0.35610   0.01430   0.24170   0.00000  Uiso   1.00
C243   C    -0.37010   0.04050   0.01830   0.00000  Uiso   1.00
C244   C    -0.37280   0.01550   0.50140   0.00000  Uiso   1.00
H245   H    -0.35430   0.04160  -0.15470   0.00000  Uiso   1.00
C246   C    -0.39990   0.07190   0.03330   0.00000  Uiso   1.00
N247   N    -0.38800   0.01940   0.71390   0.00000  Uiso   1.00
C248   C    -0.42930   0.07480   0.13930   0.00000  Uiso   1.00
C249   C    -0.39960   0.10040  -0.08270   0.00000  Uiso   1.00
C250   C    -0.45750   0.10500   0.12170   0.00000  Uiso   1.00
H251   H    -0.43050   0.05310   0.22670   0.00000  Uiso   1.00
C252   C    -0.42740   0.13060  -0.09140   0.00000  Uiso   1.00
H253   H    -0.37710   0.09880  -0.16680   0.00000  Uiso   1.00
C254   C    -0.45740   0.13370   0.00350   0.00000  Uiso   1.00
H255   H    -0.48000   0.10650   0.20070   0.00000  Uiso   1.00
H256   H    -0.42560   0.15180  -0.17890   0.00000  Uiso   1.00
C257   C     0.04050  -0.36330  -0.03960   0.00000  Uiso   1.00
C258   C     0.06660  -0.37040   0.15790   0.00000  Uiso   1.00
C259   C     0.04700  -0.38340  -0.25630   0.00000  Uiso   1.00
C260   C     0.09720  -0.39780   0.14970   0.00000  Uiso   1.00
H261   H     0.06300  -0.35390   0.31380   0.00000  Uiso   1.00
C262   C     0.07750  -0.41080  -0.26420   0.00000  Uiso   1.00
H263   H     0.02830  -0.37700  -0.42780   0.00000  Uiso   1.00
C264   C     0.10290  -0.41940  -0.05260   0.00000  Uiso   1.00
H265   H     0.11620  -0.40210   0.30700   0.00000  Uiso   1.00
H266   H     0.08150  -0.42670  -0.42860   0.00000  Uiso   1.00
C267   C     0.13310  -0.45060  -0.05730   0.00000  Uiso   1.00
C268   C     0.15890  -0.46760   0.15210   0.00000  Uiso   1.00
H269   H     0.13100  -0.46450  -0.21640   0.00000  Uiso   1.00
C270   C     0.18730  -0.49920   0.10120   0.00000  Uiso   1.00
C271   C     0.16180  -0.45310   0.38870   0.00000  Uiso   1.00
C272   C     0.18620  -0.51540  -0.12730   0.00000  Uiso   1.00
C273   C     0.21730  -0.51210   0.26490   0.00000  Uiso   1.00
N274   N     0.16230  -0.43980   0.58450   0.00000  Uiso   1.00
C275   C     0.21410  -0.54160  -0.21370   0.00000  Uiso   1.00
H276   H     0.16330  -0.50690  -0.25230   0.00000  Uiso   1.00
C277   C     0.24550  -0.53820   0.17500   0.00000  Uiso   1.00
H278   H     0.21960  -0.49840   0.42420   0.00000  Uiso   1.00
C279   C     0.24480  -0.55360  -0.06130   0.00000  Uiso   1.00
H280   H     0.21130  -0.55490  -0.37420   0.00000  Uiso   1.00
H281   H     0.26850  -0.54590   0.29310   0.00000  Uiso   1.00
C282   C     0.27480  -0.58120  -0.15030   0.00000  Uiso   1.00
C283   C     0.27430  -0.59680  -0.38590   0.00000  Uiso   1.00
C284   C     0.30540  -0.59280   0.00200   0.00000  Uiso   1.00
C285   C     0.30270  -0.62270  -0.47540   0.00000  Uiso   1.00
H286   H     0.25130  -0.58920  -0.50400   0.00000  Uiso   1.00
C287   C     0.33350  -0.61890  -0.08410   0.00000  Uiso   1.00
H288   H     0.30800  -0.57950   0.16220   0.00000  Uiso   1.00
C289   C     0.33270  -0.63530  -0.31200   0.00000  Uiso   1.00
H290   H     0.30060  -0.63650  -0.63470   0.00000  Uiso   1.00
H291   H     0.35620  -0.62700   0.04100   0.00000  Uiso   1.00
C292   C     0.36140  -0.66680  -0.36070   0.00000  Uiso   1.00
C293   C     0.38720  -0.68300  -0.15020   0.00000  Uiso   1.00
C294   C     0.35920  -0.68190  -0.59490   0.00000  Uiso   1.00
H295   H     0.38860  -0.66850   0.00660   0.00000  Uiso   1.00
C296   C     0.41740  -0.71430  -0.13970   0.00000  Uiso   1.00
N297   N     0.35910  -0.69530  -0.79070   0.00000  Uiso   1.00
C298   C     0.42450  -0.73730  -0.33080   0.00000  Uiso   1.00
C299   C     0.44130  -0.72180   0.08410   0.00000  Uiso   1.00
C300   C     0.45390  -0.76650  -0.29700   0.00000  Uiso   1.00
H301   H     0.40710  -0.73290  -0.50640   0.00000  Uiso   1.00
C302   C     0.47080  -0.75080   0.11510   0.00000  Uiso   1.00
H303   H     0.43650  -0.70430   0.23380   0.00000  Uiso   1.00
C304   C     0.47750  -0.77400  -0.07240   0.00000  Uiso   1.00
H305   H     0.45890  -0.78370  -0.44880   0.00000  Uiso   1.00
H306   H     0.48870  -0.75590   0.28990   0.00000  Uiso   1.00
loop_
_geom_bond_atom_site_label_1
_geom_bond_atom_site_label_2
_geom_bond_distance
_geom_bond_site_symmetry_2
_ccdc_geom_bond_type
C1     C2      1.405   .     D
C1     C6      1.421   .     S
C1     C7      1.481   .     S
C2     C3      1.404   .     S
C2     H13     1.088   .     S
C3     C4      1.416   .     D
C3     H14     1.088   .     S
C4     C5      1.405   .     S
C4     C21     1.492   .     S
C5     C6      1.396   .     D
C5     H15     1.088   .     S
C6     H16     1.086   .     S
C7     C8      1.423   .     D
C7     C12     1.406   .     S
C8     C9      1.395   .     S
C8     H17     1.086   .     S
C9     C10     1.403   .     D
C9     H18     1.088   .     S
C10    C11     1.416   .     S
C10    C22     1.496   .     S
C11    C12     1.404   .     D
C11    H19     1.090   .     S
C12    H20     1.090   .     S
C21    C23     1.390   .     D
C21    C26     1.411   .     S
C22    C24     1.382   .     D
C22    C25     1.412   .     S
C23    H29     1.091   .     S
C23    C31     1.465   .     S
C24    H30     1.090   .     S
C24    C41     1.467   .     S
C25    N27     1.172   .     T
C26    N28     1.174   .     T
C31    C32     1.415   .     S
C31    C33     1.410   .     D
C32    C34     1.393   .     D
C32    H35     1.090   .     S
C33    C36     1.386   .     S
C33    H37     1.093   .     S
C34    C38     1.403   .     S
C34    H39     1.092   .     S
C36    C38     1.407   .     D
C36    H40     1.088   .     S
C38    C206    1.500   1_655 S
C41    C42     1.416   .     D
C41    C43     1.410   .     S
C42    C44     1.396   .     S
C42    H45     1.087   .     S
C43    C46     1.385   .     D
C43    H47     1.093   .     S
C44    C48     1.398   .     D
C44    H49     1.089   .     S
C46    C48     1.413   .     S
C46    H50     1.087   .     S
C48    C51     1.486   .     S
C51    C52     1.364   .     D
C51    C103    1.489   .     S
C52    C100    1.484   .     S
C52    C155    1.500   .     S
C53    C54     1.394   .     D
C53    C55     1.401   .     S
C53    C154    1.496   1_565 S
C54    C56     1.403   .     S
C54    H57     1.079   .     S
C55    C58     1.393   .     D
C55    H59     1.084   .     S
C56    C60     1.402   .     D
C56    H61     1.083   .     S
C58    C60     1.402   .     S
C58    H62     1.081   .     S
C60    C63     1.471   .     S
C63    C64     1.379   .     D
C63    H65     1.083   .     S
C64    C66     1.496   .     S
C64    C67     1.399   .     S
C66    C68     1.405   .     D
C66    C69     1.395   .     S
C67    N70     1.165   .     T
C68    C71     1.391   .     S
C68    H72     1.079   .     S
C69    C73     1.393   .     D
C69    H74     1.088   .     S
C71    C75     1.390   .     D
C71    H76     1.090   .     S
C73    C75     1.403   .     S
C73    H77     1.082   .     S
C75    C78     1.499   .     S
C78    C79     1.404   .     D
C78    C80     1.400   .     S
C79    C81     1.396   .     S
C79    H82     1.093   .     S
C80    C83     1.389   .     D
C80    H84     1.092   .     S
C81    C85     1.403   .     D
C81    H86     1.089   .     S
C83    C85     1.412   .     S
C83    H87     1.087   .     S
C85    C88     1.489   .     S
C88    C89     1.384   .     D
C88    C90     1.407   .     S
C89    H91     1.093   .     S
C89    C92     1.477   .     S
C90    N93     1.175   .     T
C92    C94     1.404   .     D
C92    C95     1.403   .     S
C94    C96     1.390   .     S
C94    H97     1.081   .     S
C95    C98     1.385   .     D
C95    H99     1.090   .     S
C96    C100    1.404   .     D
C96    H101    1.089   .     S
C98    C100    1.415   .     S
C98    H102    1.081   .     S
C103   C104    1.397   .     D
C103   C105    1.400   .     S
C104   C106    1.391   .     S
C104   H107    1.078   .     S
C105   C108    1.395   .     D
C105   H109    1.086   .     S
C106   C110    1.403   .     D
C106   H111    1.083   .     S
C108   C110    1.404   .     S
C108   H112    1.083   .     S
C110   C113    1.468   .     S
C113   C114    1.382   .     D
C113   H115    1.083   .     S
C114   C116    1.493   .     S
C114   C117    1.399   .     S
C116   C118    1.395   .     S
C116   C119    1.411   .     D
C117   N120    1.165   .     T
C118   C121    1.395   .     D
C118   H122    1.089   .     S
C119   C123    1.388   .     S
C119   H124    1.081   .     S
C121   C125    1.402   .     S
C121   H126    1.084   .     S
C123   C125    1.391   .     D
C123   H127    1.090   .     S
C125   C128    1.497   .     S
C128   C129    1.404   .     S
C128   C130    1.403   .     D
C129   C131    1.390   .     D
C129   H132    1.092   .     S
C130   C133    1.396   .     S
C130   H134    1.092   .     S
C131   C135    1.409   .     S
C131   H136    1.092   .     S
C133   C135    1.407   .     D
C133   H137    1.090   .     S
C135   C138    1.498   .     S
C138   C139    1.380   .     D
C138   C140    1.413   .     S
C139   H141    1.093   .     S
C139   C142    1.472   .     S
C140   N143    1.174   .     T
C142   C144    1.418   .     S
C142   C145    1.406   .     D
C144   C146    1.399   .     D
C144   H147    1.087   .     S
C145   C148    1.395   .     S
C145   H149    1.091   .     S
C146   C150    1.398   .     S
C146   H151    1.093   .     S
C148   C150    1.414   .     D
C148   H152    1.088   .     S
C150   C153    1.492   .     S
C153   C154    1.375   .     D
C153   C257    1.481   .     S
C154   C53     1.496   1_545 S
C154   C207    1.481   .     S
C155   C156    1.392   .     D
C155   C157    1.412   .     S
C156   C158    1.399   .     S
C156   H159    1.087   .     S
C157   C160    1.383   .     D
C157   H161    1.076   .     S
C158   C162    1.412   .     D
C158   H163    1.079   .     S
C160   C162    1.396   .     S
C160   H164    1.092   .     S
C162   C165    1.466   .     S
C165   C166    1.373   .     D
C165   H167    1.085   .     S
C166   C168    1.498   .     S
C166   C169    1.403   .     S
C168   C170    1.398   .     D
C168   C171    1.402   .     S
C169   N172    1.172   .     T
C170   C173    1.396   .     S
C170   H174    1.077   .     S
C171   C175    1.402   .     D
C171   H176    1.083   .     S
C173   C177    1.406   .     D
C173   H178    1.081   .     S
C175   C177    1.401   .     S
C175   H179    1.078   .     S
C177   C180    1.481   .     S
C180   C181    1.399   .     D
C180   C182    1.408   .     S
C181   C183    1.402   .     S
C181   H184    1.077   .     S
C182   C185    1.396   .     D
C182   H186    1.081   .     S
C183   C187    1.406   .     D
C183   H188    1.085   .     S
C185   C187    1.397   .     S
C185   H189    1.079   .     S
C187   C190    1.493   .     S
C190   C191    1.375   .     D
C190   C192    1.403   .     S
C191   H193    1.089   .     S
C191   C194    1.471   .     S
C192   N195    1.169   .     T
C194   C196    1.411   .     D
C194   C197    1.396   .     S
C196   C198    1.395   .     S
C196   H199    1.080   .     S
C197   C200    1.391   .     D
C197   H201    1.091   .     S
C198   C202    1.389   .     D
C198   H203    1.084   .     S
C200   C202    1.409   .     S
C200   H204    1.080   .     S
C202   C205    1.489   .     S
C205   C206    1.373   .     D
C205   C304    1.481   1_465 S
C206   C38     1.500   1_455 S
C206   C254    1.480   .     S
C207   C208    1.402   .     D
C207   C209    1.411   .     S
C208   C210    1.384   .     S
C208   H211    1.090   .     S
C209   C212    1.386   .     D
C209   H213    1.087   .     S
C210   C214    1.405   .     D
C210   H215    1.081   .     S
C212   C214    1.402   .     S
C212   H216    1.090   .     S
C214   C217    1.472   .     S
C217   C218    1.376   .     D
C217   H219    1.094   .     S
C218   C220    1.481   .     S
C218   C221    1.407   .     S
C220   C222    1.401   .     D
C220   C223    1.405   .     S
C221   N224    1.177   .     T
C222   C225    1.394   .     S
C222   H226    1.084   .     S
C223   C227    1.401   .     D
C223   H228    1.090   .     S
C225   C229    1.410   .     D
C225   H230    1.087   .     S
C227   C229    1.407   .     S
C227   H231    1.080   .     S
C229   C232    1.475   .     S
C232   C233    1.405   .     D
C232   C234    1.412   .     S
C233   C235    1.403   .     S
C233   H236    1.081   .     S
C234   C237    1.393   .     D
C234   H238    1.087   .     S
C235   C239    1.408   .     D
C235   H240    1.086   .     S
C237   C239    1.403   .     S
C237   H241    1.080   .     S
C239   C242    1.484   .     S
C242   C243    1.378   .     D
C242   C244    1.407   .     S
C243   H245    1.092   .     S
C243   C246    1.468   .     S
C244   N247    1.178   .     T
C246   C248    1.406   .     D
C246   C249    1.403   .     S
C248   C250    1.384   .     S
C248   H251    1.090   .     S
C249   C252    1.380   .     D
C249   H253    1.091   .     S
C250   C254    1.410   .     D
C250   H255    1.085   .     S
C252   C254    1.412   .     S
C252   H256    1.083   .     S
C257   C258    1.407   .     D
C257   C259    1.403   .     S
C258   C260    1.387   .     S
C258   H261    1.088   .     S
C259   C262    1.384   .     D
C259   H263    1.084   .     S
C260   C264    1.409   .     D
C260   H265    1.077   .     S
C262   C264    1.406   .     S
C262   H266    1.093   .     S
C264   C267    1.464   .     S
C267   C268    1.376   .     D
C267   H269    1.090   .     S
C268   C270    1.484   .     S
C268   C271    1.410   .     S
C270   C272    1.404   .     D
C270   C273    1.406   .     S
C271   N274    1.178   .     T
C272   C275    1.390   .     S
C272   H276    1.084   .     S
C273   C277    1.401   .     D
C273   H278    1.088   .     S
C275   C279    1.415   .     D
C275   H280    1.088   .     S
C277   C279    1.402   .     S
C277   H281    1.081   .     S
C279   C282    1.475   .     S
C282   C283    1.403   .     D
C282   C284    1.414   .     S
C283   C285    1.401   .     S
C283   H286    1.082   .     S
C284   C287    1.392   .     D
C284   H288    1.083   .     S
C285   C289    1.407   .     D
C285   H290    1.088   .     S
C287   C289    1.403   .     S
C287   H291    1.080   .     S
C289   C292    1.483   .     S
C292   C293    1.378   .     D
C292   C294    1.408   .     S
C293   H295    1.091   .     S
C293   C296    1.458   .     S
C294   N297    1.175   .     T
C296   C298    1.409   .     D
C296   C299    1.407   .     S
C298   C300    1.382   .     S
C298   H301    1.080   .     S
C299   C302    1.380   .     D
C299   H303    1.091   .     S
C300   C304    1.400   .     D
C300   H305    1.086   .     S
C302   C304    1.407   .     S
C302   H306    1.084   .     S
C304   C205    1.481   1_645 S
