data_431
_audit_creation_date              2023-09-08
_audit_creation_method            'Materials Studio'
_symmetry_space_group_name_H-M    'P1'
_symmetry_Int_Tables_number       1
_symmetry_cell_setting            triclinic
loop_
_symmetry_equiv_pos_as_xyz
  x,y,z
_cell_length_a                    23.2000
_cell_length_b                    23.2000
_cell_length_c                    8.9000
_cell_angle_alpha                 90.0000
_cell_angle_beta                  90.0000
_cell_angle_gamma                 90.0000
loop_
_atom_site_label
_atom_site_type_symbol
_atom_site_fract_x
_atom_site_fract_y
_atom_site_fract_z
_atom_site_U_iso_or_equiv
_atom_site_adp_type
_atom_site_occupancy
H1     H     0.91205   0.91205   0.48643   0.00000  Uiso   1.00
C2     C     0.74503   0.74503   0.09971   0.00000  Uiso   1.00
C3     C     0.78874   0.78874   0.13234   0.00000  Uiso   1.00
C4     C     0.78990   0.78990   0.29508   0.00000  Uiso   1.00
C5     C     0.82230   0.82230   0.01170   0.00000  Uiso   1.00
N6     N     0.86675   0.86675   0.99016   0.00000  Uiso   1.00
C7     C     0.89855   0.89855   0.87173   0.00000  Uiso   1.00
C8     C     0.94338   0.94338   0.88989   0.00000  Uiso   1.00
C9     C     0.97726   0.97726   0.77553   0.00000  Uiso   1.00
C10    C     0.96497   0.96497   0.62071   0.00000  Uiso   1.00
C11    C     0.92180   0.92180   0.59562   0.00000  Uiso   1.00
C12    C     0.89120   0.89120   0.71319   0.00000  Uiso   1.00
H13    H     0.73737   0.73737   0.98837   0.00000  Uiso   1.00
H14    H     0.81838   0.81838   0.34170   0.00000  Uiso   1.00
H15    H     0.80907   0.80907   0.90789   0.00000  Uiso   1.00
H16    H     0.95080   0.95080   0.99910   0.00000  Uiso   1.00
H17    H     0.86139   0.86139   0.68029   0.00000  Uiso   1.00
H18    H     0.08795   0.08795   0.48643   0.00000  Uiso   1.00
C19    C     0.25497   0.25497   0.09971   0.00000  Uiso   1.00
C20    C     0.21126   0.21126   0.13234   0.00000  Uiso   1.00
C21    C     0.21010   0.21010   0.29508   0.00000  Uiso   1.00
C22    C     0.17770   0.17770   0.01170   0.00000  Uiso   1.00
N23    N     0.13325   0.13325   0.99016   0.00000  Uiso   1.00
C24    C     0.10145   0.10145   0.87173   0.00000  Uiso   1.00
C25    C     0.05662   0.05662   0.88989   0.00000  Uiso   1.00
C26    C     0.02274   0.02274   0.77553   0.00000  Uiso   1.00
C27    C     0.03503   0.03503   0.62071   0.00000  Uiso   1.00
C28    C     0.07821   0.07821   0.59562   0.00000  Uiso   1.00
C29    C     0.10880   0.10880   0.71319   0.00000  Uiso   1.00
H30    H     0.26263   0.26263   0.98837   0.00000  Uiso   1.00
H31    H     0.18162   0.18162   0.34170   0.00000  Uiso   1.00
H32    H     0.19093   0.19093   0.90789   0.00000  Uiso   1.00
H33    H     0.04920   0.04920   0.99910   0.00000  Uiso   1.00
H34    H     0.13861   0.13861   0.68029   0.00000  Uiso   1.00
H35    H     0.58795   0.41206   0.98643   0.00000  Uiso   1.00
C36    C     0.75497   0.24503   0.59971   0.00000  Uiso   1.00
C37    C     0.71126   0.28874   0.63234   0.00000  Uiso   1.00
C38    C     0.71010   0.28990   0.79508   0.00000  Uiso   1.00
C39    C     0.67770   0.32230   0.51170   0.00000  Uiso   1.00
N40    N     0.63325   0.36675   0.49016   0.00000  Uiso   1.00
C41    C     0.60145   0.39855   0.37173   0.00000  Uiso   1.00
C42    C     0.55662   0.44338   0.38989   0.00000  Uiso   1.00
C43    C     0.52274   0.47726   0.27553   0.00000  Uiso   1.00
C44    C     0.53503   0.46497   0.12071   0.00000  Uiso   1.00
C45    C     0.57821   0.42179   0.09562   0.00000  Uiso   1.00
C46    C     0.60880   0.39120   0.21319   0.00000  Uiso   1.00
H47    H     0.76263   0.23737   0.48837   0.00000  Uiso   1.00
H48    H     0.68162   0.31838   0.84170   0.00000  Uiso   1.00
H49    H     0.69093   0.30907   0.40789   0.00000  Uiso   1.00
H50    H     0.54920   0.45080   0.49910   0.00000  Uiso   1.00
H51    H     0.63861   0.36139   0.18029   0.00000  Uiso   1.00
H52    H     0.41206   0.58795   0.98643   0.00000  Uiso   1.00
C53    C     0.24503   0.75497   0.59971   0.00000  Uiso   1.00
C54    C     0.28874   0.71126   0.63234   0.00000  Uiso   1.00
C55    C     0.28990   0.71010   0.79508   0.00000  Uiso   1.00
C56    C     0.32230   0.67770   0.51170   0.00000  Uiso   1.00
N57    N     0.36675   0.63325   0.49016   0.00000  Uiso   1.00
C58    C     0.39855   0.60145   0.37173   0.00000  Uiso   1.00
C59    C     0.44338   0.55662   0.38989   0.00000  Uiso   1.00
C60    C     0.47726   0.52274   0.27553   0.00000  Uiso   1.00
C61    C     0.46497   0.53503   0.12071   0.00000  Uiso   1.00
C62    C     0.42179   0.57821   0.09562   0.00000  Uiso   1.00
C63    C     0.39120   0.60880   0.21319   0.00000  Uiso   1.00
H64    H     0.23737   0.76263   0.48837   0.00000  Uiso   1.00
H65    H     0.31838   0.68162   0.84170   0.00000  Uiso   1.00
H66    H     0.30907   0.69093   0.40789   0.00000  Uiso   1.00
H67    H     0.45080   0.54920   0.49910   0.00000  Uiso   1.00
H68    H     0.36139   0.63861   0.18029   0.00000  Uiso   1.00
H69    H     0.08795   0.91205   0.51358   0.00000  Uiso   1.00
C70    C     0.25497   0.74503   0.90029   0.00000  Uiso   1.00
C71    C     0.21126   0.78874   0.86766   0.00000  Uiso   1.00
C72    C     0.21010   0.78990   0.70492   0.00000  Uiso   1.00
C73    C     0.17770   0.82230   0.98830   0.00000  Uiso   1.00
N74    N     0.13325   0.86675   0.00984   0.00000  Uiso   1.00
C75    C     0.10145   0.89855   0.12827   0.00000  Uiso   1.00
C76    C     0.05662   0.94338   0.11011   0.00000  Uiso   1.00
C77    C     0.02274   0.97726   0.22448   0.00000  Uiso   1.00
C78    C     0.03503   0.96497   0.37929   0.00000  Uiso   1.00
C79    C     0.07821   0.92180   0.40438   0.00000  Uiso   1.00
C80    C     0.10880   0.89120   0.28681   0.00000  Uiso   1.00
H81    H     0.26263   0.73737   0.01163   0.00000  Uiso   1.00
H82    H     0.18162   0.81838   0.65830   0.00000  Uiso   1.00
H83    H     0.19093   0.80907   0.09211   0.00000  Uiso   1.00
H84    H     0.04920   0.95080   0.00090   0.00000  Uiso   1.00
H85    H     0.13861   0.86139   0.31971   0.00000  Uiso   1.00
H86    H     0.91205   0.08795   0.51358   0.00000  Uiso   1.00
C87    C     0.74503   0.25497   0.90029   0.00000  Uiso   1.00
C88    C     0.78874   0.21126   0.86766   0.00000  Uiso   1.00
C89    C     0.78990   0.21010   0.70492   0.00000  Uiso   1.00
C90    C     0.82230   0.17770   0.98830   0.00000  Uiso   1.00
N91    N     0.86675   0.13325   0.00984   0.00000  Uiso   1.00
C92    C     0.89855   0.10145   0.12827   0.00000  Uiso   1.00
C93    C     0.94338   0.05662   0.11011   0.00000  Uiso   1.00
C94    C     0.97726   0.02274   0.22448   0.00000  Uiso   1.00
C95    C     0.96497   0.03503   0.37929   0.00000  Uiso   1.00
C96    C     0.92180   0.07821   0.40438   0.00000  Uiso   1.00
C97    C     0.89120   0.10880   0.28681   0.00000  Uiso   1.00
H98    H     0.73737   0.26263   0.01163   0.00000  Uiso   1.00
H99    H     0.81838   0.18162   0.65830   0.00000  Uiso   1.00
H100   H     0.80907   0.19093   0.09211   0.00000  Uiso   1.00
H101   H     0.95080   0.04920   0.00090   0.00000  Uiso   1.00
H102   H     0.86139   0.13861   0.31971   0.00000  Uiso   1.00
H103   H     0.41206   0.41206   0.01358   0.00000  Uiso   1.00
C104   C     0.24503   0.24503   0.40029   0.00000  Uiso   1.00
C105   C     0.28874   0.28874   0.36766   0.00000  Uiso   1.00
C106   C     0.28990   0.28990   0.20492   0.00000  Uiso   1.00
C107   C     0.32230   0.32230   0.48830   0.00000  Uiso   1.00
N108   N     0.36675   0.36675   0.50984   0.00000  Uiso   1.00
C109   C     0.39855   0.39855   0.62827   0.00000  Uiso   1.00
C110   C     0.44338   0.44338   0.61011   0.00000  Uiso   1.00
C111   C     0.47726   0.47726   0.72448   0.00000  Uiso   1.00
C112   C     0.46497   0.46497   0.87929   0.00000  Uiso   1.00
C113   C     0.42179   0.42179   0.90438   0.00000  Uiso   1.00
C114   C     0.39120   0.39120   0.78681   0.00000  Uiso   1.00
H115   H     0.23737   0.23737   0.51163   0.00000  Uiso   1.00
H116   H     0.31838   0.31838   0.15830   0.00000  Uiso   1.00
H117   H     0.30907   0.30907   0.59211   0.00000  Uiso   1.00
H118   H     0.45080   0.45080   0.50090   0.00000  Uiso   1.00
H119   H     0.36139   0.36139   0.81971   0.00000  Uiso   1.00
H120   H     0.58795   0.58795   0.01358   0.00000  Uiso   1.00
C121   C     0.75497   0.75497   0.40029   0.00000  Uiso   1.00
C122   C     0.71126   0.71126   0.36766   0.00000  Uiso   1.00
C123   C     0.71010   0.71010   0.20492   0.00000  Uiso   1.00
C124   C     0.67770   0.67770   0.48830   0.00000  Uiso   1.00
N125   N     0.63325   0.63325   0.50984   0.00000  Uiso   1.00
C126   C     0.60145   0.60145   0.62827   0.00000  Uiso   1.00
C127   C     0.55662   0.55662   0.61011   0.00000  Uiso   1.00
C128   C     0.52274   0.52274   0.72448   0.00000  Uiso   1.00
C129   C     0.53503   0.53503   0.87929   0.00000  Uiso   1.00
C130   C     0.57821   0.57821   0.90438   0.00000  Uiso   1.00
C131   C     0.60880   0.60880   0.78681   0.00000  Uiso   1.00
H132   H     0.76263   0.76263   0.51163   0.00000  Uiso   1.00
H133   H     0.68162   0.68162   0.15830   0.00000  Uiso   1.00
H134   H     0.69093   0.69093   0.59211   0.00000  Uiso   1.00
H135   H     0.54920   0.54920   0.50090   0.00000  Uiso   1.00
H136   H     0.63861   0.63861   0.81971   0.00000  Uiso   1.00
C137   C     0.00000   0.00000   0.50000   0.00000  Uiso   1.00
C138   C     0.50000   0.50000   0.00000   0.00000  Uiso   1.00
loop_
_geom_bond_atom_site_label_1
_geom_bond_atom_site_label_2
_geom_bond_distance
_geom_bond_site_symmetry_2
_ccdc_geom_bond_type
H1     C11     1.023   .     S
C2     C3      1.463   .     S
C2     H13     1.022   1_554 S
C2     C123    1.480   .     D
C3     C4      1.449   .     D
C3     C5      1.538   .     S
C4     H14     1.022   .     S
C4     C121    1.480   .     S
C5     N6      1.471   1_554 D
C5     H15     1.021   1_554 S
N6     C5      1.471   1_556 D
N6     C7      1.483   .     S
C7     C8      1.480   .     D
C7     C12     1.431   .     S
C8     C9      1.507   .     S
C8     H16     1.002   .     S
C9     C10     1.436   .     D
C9     C26     1.492   1_665 S
C10    C11     1.434   .     S
C10    C137    1.573   1_665 S
C11    C12     1.450   .     D
C12    H17     1.021   .     S
H13    C2      1.022   1_556 S
H15    C5      1.021   1_556 S
H18    C28     1.023   .     S
C19    C20     1.463   .     D
C19    H30     1.022   1_554 S
C19    C106    1.480   .     S
C20    C21     1.449   .     S
C20    C22     1.538   .     S
C21    H31     1.022   .     S
C21    C104    1.480   .     D
C22    N23     1.471   1_554 D
C22    H32     1.021   1_554 S
N23    C22     1.471   1_556 D
N23    C24     1.483   .     S
C24    C25     1.480   .     S
C24    C29     1.431   .     D
C25    C26     1.507   .     D
C25    H33     1.002   .     S
C26    C9      1.492   1_445 S
C26    C27     1.436   .     S
C27    C28     1.434   .     D
C27    C137    1.573   .     S
C28    C29     1.450   .     S
C29    H34     1.021   .     S
H30    C19     1.022   1_556 S
H32    C22     1.021   1_556 S
H35    C45     1.023   1_556 S
C36    C37     1.463   .     S
C36    H47     1.022   .     S
C36    C89     1.480   .     D
C37    C38     1.449   .     D
C37    C39     1.538   .     S
C38    H48     1.022   .     S
C38    C87     1.480   .     S
C39    N40     1.471   .     D
C39    H49     1.021   .     S
N40    C41     1.483   .     S
C41    C42     1.480   .     D
C41    C46     1.431   .     S
C42    C43     1.507   .     S
C42    H50     1.002   .     S
C43    C44     1.436   .     D
C43    C60     1.492   .     S
C44    C45     1.434   .     S
C44    C138    1.573   .     S
C45    H35     1.023   1_554 S
C45    C46     1.450   .     D
C46    H51     1.021   .     S
H52    C62     1.023   1_556 S
C53    C54     1.463   .     D
C53    H64     1.022   .     S
C53    C72     1.480   .     S
C54    C55     1.449   .     S
C54    C56     1.538   .     S
C55    H65     1.022   .     S
C55    C70     1.480   .     D
C56    N57     1.471   .     D
C56    H66     1.021   .     S
N57    C58     1.483   .     S
C58    C59     1.480   .     S
C58    C63     1.431   .     D
C59    C60     1.507   .     D
C59    H67     1.002   .     S
C60    C61     1.436   .     S
C61    C62     1.434   .     D
C61    C138    1.573   .     S
C62    H52     1.023   1_554 S
C62    C63     1.450   .     S
C63    H68     1.021   .     S
H69    C79     1.023   .     S
C70    C71     1.463   .     S
C70    H81     1.022   1_556 S
C71    C72     1.449   .     D
C71    C73     1.538   .     S
C72    H82     1.022   .     S
C73    N74     1.471   1_556 D
C73    H83     1.021   1_556 S
N74    C73     1.471   1_554 D
N74    C75     1.483   .     S
C75    C76     1.480   .     D
C75    C80     1.431   .     S
C76    C77     1.507   .     S
C76    H84     1.002   .     S
C77    C78     1.436   .     D
C77    C94     1.492   1_465 S
C78    C79     1.434   .     S
C78    C137    1.573   1_565 S
C79    C80     1.450   .     D
C80    H85     1.021   .     S
H81    C70     1.022   1_554 S
H83    C73     1.021   1_554 S
H86    C96     1.023   .     S
C87    C88     1.463   .     D
C87    H98     1.022   1_556 S
C88    C89     1.449   .     S
C88    C90     1.538   .     S
C89    H99     1.022   .     S
C90    N91     1.471   1_556 D
C90    H100    1.021   1_556 S
N91    C90     1.471   1_554 D
N91    C92     1.483   .     S
C92    C93     1.480   .     S
C92    C97     1.431   .     D
C93    C94     1.507   .     D
C93    H101    1.002   .     S
C94    C77     1.492   1_645 S
C94    C95     1.436   .     S
C95    C96     1.434   .     D
C95    C137    1.573   1_655 S
C96    C97     1.450   .     S
C97    H102    1.021   .     S
H98    C87     1.022   1_554 S
H100   C90     1.021   1_554 S
H103   C113    1.023   1_554 S
C104   C105    1.463   .     S
C104   H115    1.022   .     S
C105   C106    1.449   .     D
C105   C107    1.538   .     S
C106   H116    1.022   .     S
C107   N108    1.471   .     D
C107   H117    1.021   .     S
N108   C109    1.483   .     S
C109   C110    1.480   .     D
C109   C114    1.431   .     S
C110   C111    1.507   .     S
C110   H118    1.002   .     S
C111   C112    1.436   .     D
C111   C128    1.492   .     S
C112   C113    1.434   .     S
C112   C138    1.573   1_556 S
C113   H103    1.023   1_556 S
C113   C114    1.450   .     D
C114   H119    1.021   .     S
H120   C130    1.023   1_554 S
C121   C122    1.463   .     D
C121   H132    1.022   .     S
C122   C123    1.449   .     S
C122   C124    1.538   .     S
C123   H133    1.022   .     S
C124   N125    1.471   .     D
C124   H134    1.021   .     S
N125   C126    1.483   .     S
C126   C127    1.480   .     S
C126   C131    1.431   .     D
C127   C128    1.507   .     D
C127   H135    1.002   .     S
C128   C129    1.436   .     S
C129   C130    1.434   .     D
C129   C138    1.573   1_556 S
C130   H120    1.023   1_556 S
C130   C131    1.450   .     S
C131   H136    1.021   .     S
C137   C95     1.573   1_455 S
C137   C78     1.573   1_545 S
C137   C10     1.573   1_445 S
C138   C129    1.573   1_554 S
C138   C112    1.573   1_554 S
