data_432
_audit_creation_date              2023-09-08
_audit_creation_method            'Materials Studio'
_symmetry_space_group_name_H-M    'P1'
_symmetry_Int_Tables_number       1
_symmetry_cell_setting            triclinic
loop_
_symmetry_equiv_pos_as_xyz
  x,y,z
_cell_length_a                    39.9000
_cell_length_b                    39.9000
_cell_length_c                    6.4000
_cell_angle_alpha                 90.0000
_cell_angle_beta                  90.0000
_cell_angle_gamma                 90.0000
loop_
_atom_site_label
_atom_site_type_symbol
_atom_site_fract_x
_atom_site_fract_y
_atom_site_fract_z
_atom_site_U_iso_or_equiv
_atom_site_adp_type
_atom_site_occupancy
C1     C     0.82975   0.50000   0.65304   0.00000  Uiso   1.00
C2     C     0.79821   0.50000   0.74249   0.00000  Uiso   1.00
C3     C     0.76820   0.50000   0.63564   0.00000  Uiso   1.00
C4     C     0.76627   0.50000   0.42216   0.00000  Uiso   1.00
C5     C     0.79870   0.50000   0.32956   0.00000  Uiso   1.00
C6     C     0.82935   0.50000   0.43777   0.00000  Uiso   1.00
H7     H     0.79702   0.50000   0.88866   0.00000  Uiso   1.00
H8     H     0.74750   0.50000   0.71404   0.00000  Uiso   1.00
H9     H     0.80162   0.50000   0.18283   0.00000  Uiso   1.00
H10    H     0.85111   0.50000   0.36421   0.00000  Uiso   1.00
C11    C     0.64247   0.50000   0.96359   0.00000  Uiso   1.00
N12    N     0.60944   0.50000   0.01098   0.00000  Uiso   1.00
C13    C     0.58406   0.50000   0.86749   0.00000  Uiso   1.00
C14    C     0.55013   0.50000   0.92598   0.00000  Uiso   1.00
C15    C     0.51943   0.50000   0.79965   0.00000  Uiso   1.00
C16    C     0.53047   0.50000   0.60210   0.00000  Uiso   1.00
C17    C     0.56304   0.50000   0.51732   0.00000  Uiso   1.00
C18    C     0.58926   0.50000   0.65373   0.00000  Uiso   1.00
H19    H     0.64891   0.50000   0.81076   0.00000  Uiso   1.00
H20    H     0.61170   0.50000   0.59279   0.00000  Uiso   1.00
H21    H     0.56838   0.50000   0.36596   0.00000  Uiso   1.00
H22    H     0.55077   0.50000   0.07536   0.00000  Uiso   1.00
C23    C     0.67025   0.00000   0.15304   0.00000  Uiso   1.00
C24    C     0.70179   0.00000   0.24249   0.00000  Uiso   1.00
C25    C     0.73180   0.00000   0.13564   0.00000  Uiso   1.00
C26    C     0.73373   0.00000   0.92216   0.00000  Uiso   1.00
C27    C     0.70130   0.00000   0.82956   0.00000  Uiso   1.00
C28    C     0.67065   0.00000   0.93777   0.00000  Uiso   1.00
H29    H     0.70298   0.00000   0.38866   0.00000  Uiso   1.00
H30    H     0.75249   0.00000   0.21404   0.00000  Uiso   1.00
H31    H     0.69838   0.00000   0.68283   0.00000  Uiso   1.00
H32    H     0.64889   0.00000   0.86421   0.00000  Uiso   1.00
C33    C     0.85753   0.00000   0.46359   0.00000  Uiso   1.00
N34    N     0.89056   0.00000   0.51098   0.00000  Uiso   1.00
C35    C     0.91594   0.00000   0.36749   0.00000  Uiso   1.00
C36    C     0.94987   0.00000   0.42598   0.00000  Uiso   1.00
C37    C     0.98057   0.00000   0.29965   0.00000  Uiso   1.00
C38    C     0.96953   0.00000   0.10210   0.00000  Uiso   1.00
C39    C     0.93696   0.00000   0.01732   0.00000  Uiso   1.00
C40    C     0.91074   0.00000   0.15373   0.00000  Uiso   1.00
H41    H     0.85109   0.00000   0.31076   0.00000  Uiso   1.00
H42    H     0.88830   0.00000   0.09279   0.00000  Uiso   1.00
H43    H     0.93162   0.00000   0.86596   0.00000  Uiso   1.00
H44    H     0.94923   0.00000   0.57536   0.00000  Uiso   1.00
C45    C     0.50000   0.32975   0.90304   0.00000  Uiso   1.00
C46    C     0.50000   0.29822   0.99249   0.00000  Uiso   1.00
C47    C     0.50000   0.26820   0.88565   0.00000  Uiso   1.00
C48    C     0.50000   0.26627   0.67216   0.00000  Uiso   1.00
C49    C     0.50000   0.29870   0.57956   0.00000  Uiso   1.00
C50    C     0.50000   0.32935   0.68777   0.00000  Uiso   1.00
H51    H     0.50000   0.29702   0.13866   0.00000  Uiso   1.00
H52    H     0.50000   0.24751   0.96404   0.00000  Uiso   1.00
H53    H     0.50000   0.30162   0.43283   0.00000  Uiso   1.00
H54    H     0.50000   0.35111   0.61421   0.00000  Uiso   1.00
C55    C     0.50000   0.14247   0.21359   0.00000  Uiso   1.00
N56    N     0.50000   0.10944   0.26098   0.00000  Uiso   1.00
C57    C     0.50000   0.08406   0.11749   0.00000  Uiso   1.00
C58    C     0.50000   0.05013   0.17598   0.00000  Uiso   1.00
C59    C     0.50000   0.01943   0.04965   0.00000  Uiso   1.00
C60    C     0.50000   0.03047   0.85210   0.00000  Uiso   1.00
C61    C     0.50000   0.06304   0.76732   0.00000  Uiso   1.00
C62    C     0.50000   0.08926   0.90373   0.00000  Uiso   1.00
H63    H     0.50000   0.14891   0.06076   0.00000  Uiso   1.00
H64    H     0.50000   0.11170   0.84279   0.00000  Uiso   1.00
H65    H     0.50000   0.06838   0.61596   0.00000  Uiso   1.00
H66    H     0.50000   0.05077   0.32536   0.00000  Uiso   1.00
C67    C     0.00000   0.82975   0.40304   0.00000  Uiso   1.00
C68    C     0.00000   0.79821   0.49249   0.00000  Uiso   1.00
C69    C     0.00000   0.76820   0.38564   0.00000  Uiso   1.00
C70    C     0.00000   0.76627   0.17216   0.00000  Uiso   1.00
C71    C     0.00000   0.79870   0.07956   0.00000  Uiso   1.00
C72    C     0.00000   0.82935   0.18777   0.00000  Uiso   1.00
H73    H     0.00000   0.79702   0.63866   0.00000  Uiso   1.00
H74    H     0.00000   0.74750   0.46404   0.00000  Uiso   1.00
H75    H     0.00000   0.80162   0.93283   0.00000  Uiso   1.00
H76    H     0.00000   0.85111   0.11421   0.00000  Uiso   1.00
C77    C     0.00000   0.64247   0.71359   0.00000  Uiso   1.00
N78    N     0.00000   0.60944   0.76098   0.00000  Uiso   1.00
C79    C     0.00000   0.58406   0.61749   0.00000  Uiso   1.00
C80    C     0.00000   0.55013   0.67598   0.00000  Uiso   1.00
C81    C     0.00000   0.51943   0.54965   0.00000  Uiso   1.00
C82    C     0.00000   0.53047   0.35210   0.00000  Uiso   1.00
C83    C     0.00000   0.56304   0.26732   0.00000  Uiso   1.00
C84    C     0.00000   0.58926   0.40373   0.00000  Uiso   1.00
H85    H     0.00000   0.64891   0.56077   0.00000  Uiso   1.00
H86    H     0.00000   0.61170   0.34279   0.00000  Uiso   1.00
H87    H     0.00000   0.56838   0.11596   0.00000  Uiso   1.00
H88    H     0.00000   0.55077   0.82536   0.00000  Uiso   1.00
C89    C     0.00000   0.17025   0.40304   0.00000  Uiso   1.00
C90    C     0.00000   0.20178   0.49249   0.00000  Uiso   1.00
C91    C     0.00000   0.23180   0.38564   0.00000  Uiso   1.00
C92    C     0.00000   0.23373   0.17216   0.00000  Uiso   1.00
C93    C     0.00000   0.20130   0.07956   0.00000  Uiso   1.00
C94    C     0.00000   0.17065   0.18777   0.00000  Uiso   1.00
H95    H     0.00000   0.20298   0.63866   0.00000  Uiso   1.00
H96    H     0.00000   0.25249   0.46404   0.00000  Uiso   1.00
H97    H     0.00000   0.19838   0.93283   0.00000  Uiso   1.00
H98    H     0.00000   0.14889   0.11421   0.00000  Uiso   1.00
C99    C     0.00000   0.35753   0.71359   0.00000  Uiso   1.00
N100   N     0.00000   0.39056   0.76098   0.00000  Uiso   1.00
C101   C     0.00000   0.41594   0.61749   0.00000  Uiso   1.00
C102   C     0.00000   0.44987   0.67598   0.00000  Uiso   1.00
C103   C     0.00000   0.48057   0.54965   0.00000  Uiso   1.00
C104   C     0.00000   0.46953   0.35210   0.00000  Uiso   1.00
C105   C     0.00000   0.43696   0.26732   0.00000  Uiso   1.00
C106   C     0.00000   0.41074   0.40373   0.00000  Uiso   1.00
H107   H     0.00000   0.35109   0.56077   0.00000  Uiso   1.00
H108   H     0.00000   0.38830   0.34279   0.00000  Uiso   1.00
H109   H     0.00000   0.43162   0.11596   0.00000  Uiso   1.00
H110   H     0.00000   0.44923   0.82536   0.00000  Uiso   1.00
C111   C     0.50000   0.67025   0.90304   0.00000  Uiso   1.00
C112   C     0.50000   0.70179   0.99249   0.00000  Uiso   1.00
C113   C     0.50000   0.73180   0.88565   0.00000  Uiso   1.00
C114   C     0.50000   0.73373   0.67216   0.00000  Uiso   1.00
C115   C     0.50000   0.70130   0.57956   0.00000  Uiso   1.00
C116   C     0.50000   0.67065   0.68777   0.00000  Uiso   1.00
H117   H     0.50000   0.70298   0.13866   0.00000  Uiso   1.00
H118   H     0.50000   0.75249   0.96404   0.00000  Uiso   1.00
H119   H     0.50000   0.69838   0.43283   0.00000  Uiso   1.00
H120   H     0.50000   0.64889   0.61421   0.00000  Uiso   1.00
C121   C     0.50000   0.85753   0.21359   0.00000  Uiso   1.00
N122   N     0.50000   0.89056   0.26098   0.00000  Uiso   1.00
C123   C     0.50000   0.91594   0.11749   0.00000  Uiso   1.00
C124   C     0.50000   0.94987   0.17598   0.00000  Uiso   1.00
C125   C     0.50000   0.98057   0.04965   0.00000  Uiso   1.00
C126   C     0.50000   0.96953   0.85210   0.00000  Uiso   1.00
C127   C     0.50000   0.93696   0.76732   0.00000  Uiso   1.00
C128   C     0.50000   0.91074   0.90373   0.00000  Uiso   1.00
H129   H     0.50000   0.85109   0.06076   0.00000  Uiso   1.00
H130   H     0.50000   0.88830   0.84279   0.00000  Uiso   1.00
H131   H     0.50000   0.93162   0.61596   0.00000  Uiso   1.00
H132   H     0.50000   0.94923   0.32536   0.00000  Uiso   1.00
C133   C     0.67025   0.50000   0.09696   0.00000  Uiso   1.00
C134   C     0.70179   0.50000   0.00751   0.00000  Uiso   1.00
C135   C     0.73180   0.50000   0.11435   0.00000  Uiso   1.00
C136   C     0.73373   0.50000   0.32784   0.00000  Uiso   1.00
C137   C     0.70130   0.50000   0.42044   0.00000  Uiso   1.00
C138   C     0.67065   0.50000   0.31223   0.00000  Uiso   1.00
H139   H     0.70298   0.50000   0.86134   0.00000  Uiso   1.00
H140   H     0.75249   0.50000   0.03596   0.00000  Uiso   1.00
H141   H     0.69838   0.50000   0.56717   0.00000  Uiso   1.00
H142   H     0.64889   0.50000   0.38579   0.00000  Uiso   1.00
C143   C     0.85753   0.50000   0.78641   0.00000  Uiso   1.00
N144   N     0.89056   0.50000   0.73902   0.00000  Uiso   1.00
C145   C     0.91594   0.50000   0.88251   0.00000  Uiso   1.00
C146   C     0.94987   0.50000   0.82402   0.00000  Uiso   1.00
C147   C     0.98057   0.50000   0.95035   0.00000  Uiso   1.00
C148   C     0.96953   0.50000   0.14790   0.00000  Uiso   1.00
C149   C     0.93696   0.50000   0.23268   0.00000  Uiso   1.00
C150   C     0.91074   0.50000   0.09627   0.00000  Uiso   1.00
H151   H     0.85109   0.50000   0.93923   0.00000  Uiso   1.00
H152   H     0.88830   0.50000   0.15721   0.00000  Uiso   1.00
H153   H     0.93162   0.50000   0.38404   0.00000  Uiso   1.00
H154   H     0.94923   0.50000   0.67464   0.00000  Uiso   1.00
C155   C     0.82975   0.00000   0.59696   0.00000  Uiso   1.00
C156   C     0.79821   0.00000   0.50751   0.00000  Uiso   1.00
C157   C     0.76820   0.00000   0.61435   0.00000  Uiso   1.00
C158   C     0.76627   0.00000   0.82784   0.00000  Uiso   1.00
C159   C     0.79870   0.00000   0.92044   0.00000  Uiso   1.00
C160   C     0.82935   0.00000   0.81223   0.00000  Uiso   1.00
H161   H     0.79702   0.00000   0.36134   0.00000  Uiso   1.00
H162   H     0.74750   0.00000   0.53596   0.00000  Uiso   1.00
H163   H     0.80162   0.00000   0.06717   0.00000  Uiso   1.00
H164   H     0.85111   0.00000   0.88579   0.00000  Uiso   1.00
C165   C     0.64247   0.00000   0.28641   0.00000  Uiso   1.00
N166   N     0.60944   0.00000   0.23902   0.00000  Uiso   1.00
C167   C     0.58406   0.00000   0.38251   0.00000  Uiso   1.00
C168   C     0.55013   0.00000   0.32402   0.00000  Uiso   1.00
C169   C     0.51943   0.00000   0.45035   0.00000  Uiso   1.00
C170   C     0.53047   0.00000   0.64790   0.00000  Uiso   1.00
C171   C     0.56304   0.00000   0.73268   0.00000  Uiso   1.00
C172   C     0.58926   0.00000   0.59627   0.00000  Uiso   1.00
H173   H     0.64891   0.00000   0.43923   0.00000  Uiso   1.00
H174   H     0.61170   0.00000   0.65721   0.00000  Uiso   1.00
H175   H     0.56838   0.00000   0.88404   0.00000  Uiso   1.00
H176   H     0.55077   0.00000   0.17464   0.00000  Uiso   1.00
C177   C     0.32975   0.50000   0.09696   0.00000  Uiso   1.00
C178   C     0.29822   0.50000   0.00751   0.00000  Uiso   1.00
C179   C     0.26820   0.50000   0.11435   0.00000  Uiso   1.00
C180   C     0.26627   0.50000   0.32784   0.00000  Uiso   1.00
C181   C     0.29870   0.50000   0.42044   0.00000  Uiso   1.00
C182   C     0.32935   0.50000   0.31223   0.00000  Uiso   1.00
H183   H     0.29702   0.50000   0.86134   0.00000  Uiso   1.00
H184   H     0.24751   0.50000   0.03596   0.00000  Uiso   1.00
H185   H     0.30162   0.50000   0.56717   0.00000  Uiso   1.00
H186   H     0.35111   0.50000   0.38579   0.00000  Uiso   1.00
C187   C     0.14247   0.50000   0.78641   0.00000  Uiso   1.00
N188   N     0.10944   0.50000   0.73902   0.00000  Uiso   1.00
C189   C     0.08406   0.50000   0.88251   0.00000  Uiso   1.00
C190   C     0.05013   0.50000   0.82402   0.00000  Uiso   1.00
C191   C     0.01943   0.50000   0.95035   0.00000  Uiso   1.00
C192   C     0.03047   0.50000   0.14790   0.00000  Uiso   1.00
C193   C     0.06304   0.50000   0.23268   0.00000  Uiso   1.00
C194   C     0.08926   0.50000   0.09627   0.00000  Uiso   1.00
H195   H     0.14891   0.50000   0.93923   0.00000  Uiso   1.00
H196   H     0.11170   0.50000   0.15721   0.00000  Uiso   1.00
H197   H     0.06838   0.50000   0.38404   0.00000  Uiso   1.00
H198   H     0.05077   0.50000   0.67464   0.00000  Uiso   1.00
C199   C     0.00000   0.32975   0.84696   0.00000  Uiso   1.00
C200   C     0.00000   0.29822   0.75751   0.00000  Uiso   1.00
C201   C     0.00000   0.26820   0.86435   0.00000  Uiso   1.00
C202   C     0.00000   0.26627   0.07784   0.00000  Uiso   1.00
C203   C     0.00000   0.29870   0.17044   0.00000  Uiso   1.00
C204   C     0.00000   0.32935   0.06223   0.00000  Uiso   1.00
H205   H     0.00000   0.29702   0.61134   0.00000  Uiso   1.00
H206   H     0.00000   0.24751   0.78596   0.00000  Uiso   1.00
H207   H     0.00000   0.30162   0.31717   0.00000  Uiso   1.00
H208   H     0.00000   0.35111   0.13579   0.00000  Uiso   1.00
C209   C     0.00000   0.14247   0.53641   0.00000  Uiso   1.00
N210   N     0.00000   0.10944   0.48902   0.00000  Uiso   1.00
C211   C     0.00000   0.08406   0.63251   0.00000  Uiso   1.00
C212   C     0.00000   0.05013   0.57402   0.00000  Uiso   1.00
C213   C     0.00000   0.01943   0.70035   0.00000  Uiso   1.00
C214   C     0.00000   0.03047   0.89790   0.00000  Uiso   1.00
C215   C     0.00000   0.06304   0.98268   0.00000  Uiso   1.00
C216   C     0.00000   0.08926   0.84627   0.00000  Uiso   1.00
H217   H     0.00000   0.14891   0.68923   0.00000  Uiso   1.00
H218   H     0.00000   0.11170   0.90721   0.00000  Uiso   1.00
H219   H     0.00000   0.06838   0.13404   0.00000  Uiso   1.00
H220   H     0.00000   0.05077   0.42464   0.00000  Uiso   1.00
C221   C     0.50000   0.82975   0.34696   0.00000  Uiso   1.00
C222   C     0.50000   0.79821   0.25751   0.00000  Uiso   1.00
C223   C     0.50000   0.76820   0.36436   0.00000  Uiso   1.00
C224   C     0.50000   0.76627   0.57784   0.00000  Uiso   1.00
C225   C     0.50000   0.79870   0.67044   0.00000  Uiso   1.00
C226   C     0.50000   0.82935   0.56223   0.00000  Uiso   1.00
H227   H     0.50000   0.79702   0.11134   0.00000  Uiso   1.00
H228   H     0.50000   0.74750   0.28596   0.00000  Uiso   1.00
H229   H     0.50000   0.80162   0.81717   0.00000  Uiso   1.00
H230   H     0.50000   0.85111   0.63579   0.00000  Uiso   1.00
C231   C     0.50000   0.64247   0.03641   0.00000  Uiso   1.00
N232   N     0.50000   0.60944   0.98902   0.00000  Uiso   1.00
C233   C     0.50000   0.58406   0.13251   0.00000  Uiso   1.00
C234   C     0.50000   0.55013   0.07402   0.00000  Uiso   1.00
C235   C     0.50000   0.51943   0.20035   0.00000  Uiso   1.00
C236   C     0.50000   0.53047   0.39790   0.00000  Uiso   1.00
C237   C     0.50000   0.56304   0.48268   0.00000  Uiso   1.00
C238   C     0.50000   0.58926   0.34627   0.00000  Uiso   1.00
H239   H     0.50000   0.64891   0.18924   0.00000  Uiso   1.00
H240   H     0.50000   0.61170   0.40721   0.00000  Uiso   1.00
H241   H     0.50000   0.56838   0.63404   0.00000  Uiso   1.00
H242   H     0.50000   0.55077   0.92464   0.00000  Uiso   1.00
C243   C     0.50000   0.17025   0.34696   0.00000  Uiso   1.00
C244   C     0.50000   0.20178   0.25751   0.00000  Uiso   1.00
C245   C     0.50000   0.23180   0.36436   0.00000  Uiso   1.00
C246   C     0.50000   0.23373   0.57784   0.00000  Uiso   1.00
C247   C     0.50000   0.20130   0.67044   0.00000  Uiso   1.00
C248   C     0.50000   0.17065   0.56223   0.00000  Uiso   1.00
H249   H     0.50000   0.20298   0.11134   0.00000  Uiso   1.00
H250   H     0.50000   0.25249   0.28596   0.00000  Uiso   1.00
H251   H     0.50000   0.19838   0.81717   0.00000  Uiso   1.00
H252   H     0.50000   0.14889   0.63579   0.00000  Uiso   1.00
C253   C     0.50000   0.35753   0.03641   0.00000  Uiso   1.00
N254   N     0.50000   0.39056   0.98902   0.00000  Uiso   1.00
C255   C     0.50000   0.41594   0.13251   0.00000  Uiso   1.00
C256   C     0.50000   0.44987   0.07402   0.00000  Uiso   1.00
C257   C     0.50000   0.48057   0.20035   0.00000  Uiso   1.00
C258   C     0.50000   0.46953   0.39790   0.00000  Uiso   1.00
C259   C     0.50000   0.43696   0.48268   0.00000  Uiso   1.00
C260   C     0.50000   0.41074   0.34627   0.00000  Uiso   1.00
H261   H     0.50000   0.35109   0.18924   0.00000  Uiso   1.00
H262   H     0.50000   0.38830   0.40721   0.00000  Uiso   1.00
H263   H     0.50000   0.43162   0.63404   0.00000  Uiso   1.00
H264   H     0.50000   0.44923   0.92464   0.00000  Uiso   1.00
C265   C     0.00000   0.67025   0.84696   0.00000  Uiso   1.00
C266   C     0.00000   0.70179   0.75751   0.00000  Uiso   1.00
C267   C     0.00000   0.73180   0.86435   0.00000  Uiso   1.00
C268   C     0.00000   0.73373   0.07784   0.00000  Uiso   1.00
C269   C     0.00000   0.70130   0.17044   0.00000  Uiso   1.00
C270   C     0.00000   0.67065   0.06223   0.00000  Uiso   1.00
H271   H     0.00000   0.70298   0.61134   0.00000  Uiso   1.00
H272   H     0.00000   0.75249   0.78596   0.00000  Uiso   1.00
H273   H     0.00000   0.69838   0.31717   0.00000  Uiso   1.00
H274   H     0.00000   0.64889   0.13579   0.00000  Uiso   1.00
C275   C     0.00000   0.85753   0.53641   0.00000  Uiso   1.00
N276   N     0.00000   0.89056   0.48902   0.00000  Uiso   1.00
C277   C     0.00000   0.91594   0.63251   0.00000  Uiso   1.00
C278   C     0.00000   0.94987   0.57402   0.00000  Uiso   1.00
C279   C     0.00000   0.98057   0.70035   0.00000  Uiso   1.00
C280   C     0.00000   0.96953   0.89790   0.00000  Uiso   1.00
C281   C     0.00000   0.93696   0.98268   0.00000  Uiso   1.00
C282   C     0.00000   0.91074   0.84627   0.00000  Uiso   1.00
H283   H     0.00000   0.85109   0.68923   0.00000  Uiso   1.00
H284   H     0.00000   0.88830   0.90721   0.00000  Uiso   1.00
H285   H     0.00000   0.93162   0.13404   0.00000  Uiso   1.00
H286   H     0.00000   0.94923   0.42464   0.00000  Uiso   1.00
C287   C     0.17025   0.00000   0.59696   0.00000  Uiso   1.00
C288   C     0.20178   0.00000   0.50751   0.00000  Uiso   1.00
C289   C     0.23180   0.00000   0.61435   0.00000  Uiso   1.00
C290   C     0.23373   0.00000   0.82784   0.00000  Uiso   1.00
C291   C     0.20130   0.00000   0.92044   0.00000  Uiso   1.00
C292   C     0.17065   0.00000   0.81223   0.00000  Uiso   1.00
H293   H     0.20298   0.00000   0.36134   0.00000  Uiso   1.00
H294   H     0.25249   0.00000   0.53596   0.00000  Uiso   1.00
H295   H     0.19838   0.00000   0.06717   0.00000  Uiso   1.00
H296   H     0.14889   0.00000   0.88579   0.00000  Uiso   1.00
C297   C     0.35753   0.00000   0.28641   0.00000  Uiso   1.00
N298   N     0.39056   0.00000   0.23902   0.00000  Uiso   1.00
C299   C     0.41594   0.00000   0.38251   0.00000  Uiso   1.00
C300   C     0.44987   0.00000   0.32402   0.00000  Uiso   1.00
C301   C     0.48057   0.00000   0.45035   0.00000  Uiso   1.00
C302   C     0.46953   0.00000   0.64790   0.00000  Uiso   1.00
C303   C     0.43696   0.00000   0.73268   0.00000  Uiso   1.00
C304   C     0.41074   0.00000   0.59627   0.00000  Uiso   1.00
H305   H     0.35109   0.00000   0.43923   0.00000  Uiso   1.00
H306   H     0.38830   0.00000   0.65721   0.00000  Uiso   1.00
H307   H     0.43162   0.00000   0.88404   0.00000  Uiso   1.00
H308   H     0.44923   0.00000   0.17464   0.00000  Uiso   1.00
C309   C     0.32975   0.00000   0.15304   0.00000  Uiso   1.00
C310   C     0.29822   0.00000   0.24249   0.00000  Uiso   1.00
C311   C     0.26820   0.00000   0.13564   0.00000  Uiso   1.00
C312   C     0.26627   0.00000   0.92216   0.00000  Uiso   1.00
C313   C     0.29870   0.00000   0.82956   0.00000  Uiso   1.00
C314   C     0.32935   0.00000   0.93777   0.00000  Uiso   1.00
H315   H     0.29702   0.00000   0.38866   0.00000  Uiso   1.00
H316   H     0.24751   0.00000   0.21404   0.00000  Uiso   1.00
H317   H     0.30162   0.00000   0.68283   0.00000  Uiso   1.00
H318   H     0.35111   0.00000   0.86421   0.00000  Uiso   1.00
C319   C     0.14247   0.00000   0.46359   0.00000  Uiso   1.00
N320   N     0.10944   0.00000   0.51098   0.00000  Uiso   1.00
C321   C     0.08406   0.00000   0.36749   0.00000  Uiso   1.00
C322   C     0.05013   0.00000   0.42598   0.00000  Uiso   1.00
C323   C     0.01943   0.00000   0.29965   0.00000  Uiso   1.00
C324   C     0.03047   0.00000   0.10210   0.00000  Uiso   1.00
C325   C     0.06304   0.00000   0.01732   0.00000  Uiso   1.00
C326   C     0.08926   0.00000   0.15373   0.00000  Uiso   1.00
H327   H     0.14891   0.00000   0.31076   0.00000  Uiso   1.00
H328   H     0.11170   0.00000   0.09279   0.00000  Uiso   1.00
H329   H     0.06838   0.00000   0.86596   0.00000  Uiso   1.00
H330   H     0.05077   0.00000   0.57536   0.00000  Uiso   1.00
C331   C     0.17025   0.50000   0.65304   0.00000  Uiso   1.00
C332   C     0.20178   0.50000   0.74249   0.00000  Uiso   1.00
C333   C     0.23180   0.50000   0.63564   0.00000  Uiso   1.00
C334   C     0.23373   0.50000   0.42216   0.00000  Uiso   1.00
C335   C     0.20130   0.50000   0.32956   0.00000  Uiso   1.00
C336   C     0.17065   0.50000   0.43777   0.00000  Uiso   1.00
H337   H     0.20298   0.50000   0.88866   0.00000  Uiso   1.00
H338   H     0.25249   0.50000   0.71404   0.00000  Uiso   1.00
H339   H     0.19838   0.50000   0.18283   0.00000  Uiso   1.00
H340   H     0.14889   0.50000   0.36421   0.00000  Uiso   1.00
C341   C     0.35753   0.50000   0.96359   0.00000  Uiso   1.00
N342   N     0.39056   0.50000   0.01098   0.00000  Uiso   1.00
C343   C     0.41594   0.50000   0.86749   0.00000  Uiso   1.00
C344   C     0.44987   0.50000   0.92598   0.00000  Uiso   1.00
C345   C     0.48057   0.50000   0.79965   0.00000  Uiso   1.00
C346   C     0.46953   0.50000   0.60210   0.00000  Uiso   1.00
C347   C     0.43696   0.50000   0.51732   0.00000  Uiso   1.00
C348   C     0.41074   0.50000   0.65373   0.00000  Uiso   1.00
H349   H     0.35109   0.50000   0.81076   0.00000  Uiso   1.00
H350   H     0.38830   0.50000   0.59279   0.00000  Uiso   1.00
H351   H     0.43162   0.50000   0.36596   0.00000  Uiso   1.00
H352   H     0.44923   0.50000   0.07536   0.00000  Uiso   1.00
C353   C     0.50000   0.50000   0.50000   0.00000  Uiso   1.00
C354   C     0.00000   0.00000   0.00000   0.00000  Uiso   1.00
C355   C     0.50000   0.00000   0.75000   0.00000  Uiso   1.00
C356   C     0.00000   0.50000   0.25000   0.00000  Uiso   1.00
loop_
_geom_bond_atom_site_label_1
_geom_bond_atom_site_label_2
_geom_bond_distance
_geom_bond_site_symmetry_2
_ccdc_geom_bond_type
C1     C2      1.382   .     S
C1     C6      1.378   .     D
C1     C143    1.399   .     S
C2     C3      1.379   .     D
C2     H7      0.937   .     S
C3     C4      1.368   .     S
C3     H8      0.966   .     S
C4     C5      1.423   .     D
C4     C136    1.432   .     S
C5     C6      1.405   .     S
C5     H9      0.946   .     S
C6     H10     0.987   .     S
C11    N12     1.352   1_556 D
C11    H19     1.011   .     S
C11    C133    1.399   1_556 S
N12    C11     1.352   1_554 D
N12    C13     1.367   1_554 S
C13    N12     1.367   1_556 S
C13    C14     1.404   .     S
C13    C18     1.384   .     D
C14    C15     1.468   .     D
C14    H22     0.956   1_556 S
C15    C16     1.339   .     S
C15    C345    1.551   .     S
C16    C17     1.408   .     D
C16    C353    1.380   .     S
C17    C18     1.363   .     S
C17    H21     0.992   .     S
C18    H20     0.977   .     S
H22    C14     0.956   1_554 S
C23    C24     1.382   .     S
C23    C28     1.378   1_554 D
C23    C165    1.399   .     S
C24    C25     1.379   .     D
C24    H29     0.937   .     S
C25    C26     1.368   1_554 S
C25    H30     0.966   .     S
C26    C25     1.368   1_556 S
C26    C27     1.423   .     D
C26    C158    1.432   .     S
C27    C28     1.405   .     S
C27    H31     0.946   .     S
C28    C23     1.378   1_556 D
C28    H32     0.987   .     S
C33    N34     1.352   .     D
C33    H41     1.011   .     S
C33    C155    1.399   .     S
N34    C35     1.367   .     S
C35    C36     1.404   .     S
C35    C40     1.384   .     D
C36    C37     1.468   .     D
C36    H44     0.956   .     S
C37    C38     1.339   .     S
C37    C323    1.551   1_655 S
C38    C39     1.408   .     D
C38    C354    1.380   1_655 S
C39    C40     1.363   .     S
C39    H43     0.992   1_554 S
C40    H42     0.977   .     S
H43    C39     0.992   1_556 S
C45    C46     1.382   .     S
C45    C50     1.378   .     D
C45    C253    1.399   1_556 S
C46    C47     1.379   .     D
C46    H51     0.937   1_556 S
C47    C48     1.368   .     S
C47    H52     0.966   .     S
C48    C49     1.423   .     D
C48    C246    1.432   .     S
C49    C50     1.405   .     S
C49    H53     0.946   .     S
C50    H54     0.987   .     S
H51    C46     0.937   1_554 S
C55    N56     1.352   .     D
C55    H63     1.011   .     S
C55    C243    1.399   .     S
N56    C57     1.367   .     S
C57    C58     1.404   .     S
C57    C62     1.384   1_554 D
C58    C59     1.468   .     D
C58    H66     0.956   .     S
C59    C60     1.339   1_554 S
C59    C125    1.551   1_545 S
C60    C59     1.339   1_556 S
C60    C61     1.408   .     D
C60    C355    1.380   .     S
C61    C62     1.363   .     S
C61    H65     0.992   .     S
C62    C57     1.384   1_556 D
C62    H64     0.977   .     S
C67    C68     1.382   .     S
C67    C72     1.378   .     D
C67    C275    1.399   .     S
C68    C69     1.379   .     D
C68    H73     0.937   .     S
C69    C70     1.368   .     S
C69    H74     0.966   .     S
C70    C71     1.423   .     D
C70    C268    1.432   .     S
C71    C72     1.405   .     S
C71    H75     0.946   1_554 S
C72    H76     0.987   .     S
H75    C71     0.946   1_556 S
C77    N78     1.352   .     D
C77    H85     1.011   .     S
C77    C265    1.399   .     S
N78    C79     1.367   .     S
C79    C80     1.404   .     S
C79    C84     1.384   .     D
C80    C81     1.468   .     D
C80    H88     0.956   .     S
C81    C82     1.339   .     S
C81    C103    1.551   .     S
C82    C83     1.408   .     D
C82    C356    1.380   .     S
C83    C84     1.363   .     S
C83    H87     0.992   .     S
C84    H86     0.977   .     S
C89    C90     1.382   .     S
C89    C94     1.378   .     D
C89    C209    1.399   .     S
C90    C91     1.379   .     D
C90    H95     0.937   .     S
C91    C92     1.368   .     S
C91    H96     0.966   .     S
C92    C93     1.423   .     D
C92    C202    1.432   .     S
C93    C94     1.405   .     S
C93    H97     0.946   1_554 S
C94    H98     0.987   .     S
H97    C93     0.946   1_556 S
C99    N100    1.352   .     D
C99    H107    1.011   .     S
C99    C199    1.399   .     S
N100   C101    1.367   .     S
C101   C102    1.404   .     S
C101   C106    1.384   .     D
C102   C103    1.468   .     D
C102   H110    0.956   .     S
C103   C104    1.339   .     S
C104   C105    1.408   .     D
C104   C356    1.380   .     S
C105   C106    1.363   .     S
C105   H109    0.992   .     S
C106   H108    0.977   .     S
C111   C112    1.382   .     S
C111   C116    1.378   .     D
C111   C231    1.399   1_556 S
C112   C113    1.379   .     D
C112   H117    0.937   1_556 S
C113   C114    1.368   .     S
C113   H118    0.966   .     S
C114   C115    1.423   .     D
C114   C224    1.432   .     S
C115   C116    1.405   .     S
C115   H119    0.946   .     S
C116   H120    0.987   .     S
H117   C112    0.937   1_554 S
C121   N122    1.352   .     D
C121   H129    1.011   .     S
C121   C221    1.399   .     S
N122   C123    1.367   .     S
C123   C124    1.404   .     S
C123   C128    1.384   1_554 D
C124   C125    1.468   .     D
C124   H132    0.956   .     S
C125   C59     1.551   1_565 S
C125   C126    1.339   1_554 S
C126   C125    1.339   1_556 S
C126   C127    1.408   .     D
C126   C355    1.380   1_565 S
C127   C128    1.363   .     S
C127   H131    0.992   .     S
C128   C123    1.384   1_556 D
C128   H130    0.977   .     S
C133   C11     1.399   1_554 S
C133   C134    1.382   .     S
C133   C138    1.378   .     D
C134   C135    1.379   .     D
C134   H139    0.937   1_554 S
C135   C136    1.368   .     S
C135   H140    0.966   .     S
C136   C137    1.423   .     D
C137   C138    1.405   .     S
C137   H141    0.946   .     S
C138   H142    0.987   .     S
H139   C134    0.937   1_556 S
C143   N144    1.352   .     D
C143   H151    1.011   .     S
N144   C145    1.367   .     S
C145   C146    1.404   .     S
C145   C150    1.384   1_556 D
C146   C147    1.468   .     D
C146   H154    0.956   .     S
C147   C148    1.339   1_556 S
C147   C191    1.551   1_655 S
C148   C147    1.339   1_554 S
C148   C149    1.408   .     D
C148   C356    1.380   1_655 S
C149   C150    1.363   .     S
C149   H153    0.992   .     S
C150   C145    1.384   1_554 D
C150   H152    0.977   .     S
C155   C156    1.382   .     S
C155   C160    1.378   .     D
C156   C157    1.379   .     D
C156   H161    0.937   .     S
C157   C158    1.368   .     S
C157   H162    0.966   .     S
C158   C159    1.423   .     D
C159   C160    1.405   .     S
C159   H163    0.946   1_556 S
C160   H164    0.987   .     S
H163   C159    0.946   1_554 S
C165   N166    1.352   .     D
C165   H173    1.011   .     S
N166   C167    1.367   .     S
C167   C168    1.404   .     S
C167   C172    1.384   .     D
C168   C169    1.468   .     D
C168   H176    0.956   .     S
C169   C170    1.339   .     S
C169   C301    1.551   .     S
C170   C171    1.408   .     D
C170   C355    1.380   .     S
C171   C172    1.363   .     S
C171   H175    0.992   .     S
C172   H174    0.977   .     S
C177   C178    1.382   .     S
C177   C182    1.378   .     D
C177   C341    1.399   1_554 S
C178   C179    1.379   .     D
C178   H183    0.937   1_554 S
C179   C180    1.368   .     S
C179   H184    0.966   .     S
C180   C181    1.423   .     D
C180   C334    1.432   .     S
C181   C182    1.405   .     S
C181   H185    0.946   .     S
C182   H186    0.987   .     S
H183   C178    0.937   1_556 S
C187   N188    1.352   .     D
C187   H195    1.011   .     S
C187   C331    1.399   .     S
N188   C189    1.367   .     S
C189   C190    1.404   .     S
C189   C194    1.384   1_556 D
C190   C191    1.468   .     D
C190   H198    0.956   .     S
C191   C147    1.551   1_455 S
C191   C192    1.339   1_556 S
C192   C191    1.339   1_554 S
C192   C193    1.408   .     D
C192   C356    1.380   .     S
C193   C194    1.363   .     S
C193   H197    0.992   .     S
C194   C189    1.384   1_554 D
C194   H196    0.977   .     S
C199   C200    1.382   .     S
C199   C204    1.378   1_556 D
C200   C201    1.379   .     D
C200   H205    0.937   .     S
C201   C202    1.368   1_556 S
C201   H206    0.966   .     S
C202   C201    1.368   1_554 S
C202   C203    1.423   .     D
C203   C204    1.405   .     S
C203   H207    0.946   .     S
C204   C199    1.378   1_554 D
C204   H208    0.987   .     S
C209   N210    1.352   .     D
C209   H217    1.011   .     S
N210   C211    1.367   .     S
C211   C212    1.404   .     S
C211   C216    1.384   .     D
C212   C213    1.468   .     D
C212   H220    0.956   .     S
C213   C214    1.339   .     S
C213   C279    1.551   1_545 S
C214   C215    1.408   .     D
C214   C354    1.380   1_556 S
C215   C216    1.363   .     S
C215   H219    0.992   1_556 S
C216   H218    0.977   .     S
H219   C215    0.992   1_554 S
C221   C222    1.382   .     S
C221   C226    1.378   .     D
C222   C223    1.379   .     D
C222   H227    0.937   .     S
C223   C224    1.368   .     S
C223   H228    0.966   .     S
C224   C225    1.423   .     D
C225   C226    1.405   .     S
C225   H229    0.946   .     S
C226   H230    0.987   .     S
C231   C111    1.399   1_554 S
C231   N232    1.352   1_554 D
C231   H239    1.011   .     S
N232   C231    1.352   1_556 D
N232   C233    1.367   1_556 S
C233   N232    1.367   1_554 S
C233   C234    1.404   .     S
C233   C238    1.384   .     D
C234   C235    1.468   .     D
C234   H242    0.956   1_554 S
C235   C236    1.339   .     S
C235   C257    1.551   .     S
C236   C237    1.408   .     D
C236   C353    1.380   .     S
C237   C238    1.363   .     S
C237   H241    0.992   .     S
C238   H240    0.977   .     S
H242   C234    0.956   1_556 S
C243   C244    1.382   .     S
C243   C248    1.378   .     D
C244   C245    1.379   .     D
C244   H249    0.937   .     S
C245   C246    1.368   .     S
C245   H250    0.966   .     S
C246   C247    1.423   .     D
C247   C248    1.405   .     S
C247   H251    0.946   .     S
C248   H252    0.987   .     S
C253   C45     1.399   1_554 S
C253   N254    1.352   1_554 D
C253   H261    1.011   .     S
N254   C253    1.352   1_556 D
N254   C255    1.367   1_556 S
C255   N254    1.367   1_554 S
C255   C256    1.404   .     S
C255   C260    1.384   .     D
C256   C257    1.468   .     D
C256   H264    0.956   1_554 S
C257   C258    1.339   .     S
C258   C259    1.408   .     D
C258   C353    1.380   .     S
C259   C260    1.363   .     S
C259   H263    0.992   .     S
C260   H262    0.977   .     S
H264   C256    0.956   1_556 S
C265   C266    1.382   .     S
C265   C270    1.378   1_556 D
C266   C267    1.379   .     D
C266   H271    0.937   .     S
C267   C268    1.368   1_556 S
C267   H272    0.966   .     S
C268   C267    1.368   1_554 S
C268   C269    1.423   .     D
C269   C270    1.405   .     S
C269   H273    0.946   .     S
C270   C265    1.378   1_554 D
C270   H274    0.987   .     S
C275   N276    1.352   .     D
C275   H283    1.011   .     S
N276   C277    1.367   .     S
C277   C278    1.404   .     S
C277   C282    1.384   .     D
C278   C279    1.468   .     D
C278   H286    0.956   .     S
C279   C213    1.551   1_565 S
C279   C280    1.339   .     S
C280   C281    1.408   .     D
C280   C354    1.380   1_566 S
C281   C282    1.363   .     S
C281   H285    0.992   1_556 S
C282   H284    0.977   .     S
H285   C281    0.992   1_554 S
C287   C288    1.382   .     S
C287   C292    1.378   .     D
C287   C319    1.399   .     S
C288   C289    1.379   .     D
C288   H293    0.937   .     S
C289   C290    1.368   .     S
C289   H294    0.966   .     S
C290   C291    1.423   .     D
C290   C312    1.432   .     S
C291   C292    1.405   .     S
C291   H295    0.946   1_556 S
C292   H296    0.987   .     S
H295   C291    0.946   1_554 S
C297   N298    1.352   .     D
C297   H305    1.011   .     S
C297   C309    1.399   .     S
N298   C299    1.367   .     S
C299   C300    1.404   .     S
C299   C304    1.384   .     D
C300   C301    1.468   .     D
C300   H308    0.956   .     S
C301   C302    1.339   .     S
C302   C303    1.408   .     D
C302   C355    1.380   .     S
C303   C304    1.363   .     S
C303   H307    0.992   .     S
C304   H306    0.977   .     S
C309   C310    1.382   .     S
C309   C314    1.378   1_554 D
C310   C311    1.379   .     D
C310   H315    0.937   .     S
C311   C312    1.368   1_554 S
C311   H316    0.966   .     S
C312   C311    1.368   1_556 S
C312   C313    1.423   .     D
C313   C314    1.405   .     S
C313   H317    0.946   .     S
C314   C309    1.378   1_556 D
C314   H318    0.987   .     S
C319   N320    1.352   .     D
C319   H327    1.011   .     S
N320   C321    1.367   .     S
C321   C322    1.404   .     S
C321   C326    1.384   .     D
C322   C323    1.468   .     D
C322   H330    0.956   .     S
C323   C37     1.551   1_455 S
C323   C324    1.339   .     S
C324   C325    1.408   .     D
C324   C354    1.380   .     S
C325   C326    1.363   .     S
C325   H329    0.992   1_554 S
C326   H328    0.977   .     S
H329   C325    0.992   1_556 S
C331   C332    1.382   .     S
C331   C336    1.378   .     D
C332   C333    1.379   .     D
C332   H337    0.937   .     S
C333   C334    1.368   .     S
C333   H338    0.966   .     S
C334   C335    1.423   .     D
C335   C336    1.405   .     S
C335   H339    0.946   .     S
C336   H340    0.987   .     S
C341   C177    1.399   1_556 S
C341   N342    1.352   1_556 D
C341   H349    1.011   .     S
N342   C341    1.352   1_554 D
N342   C343    1.367   1_554 S
C343   N342    1.367   1_556 S
C343   C344    1.404   .     S
C343   C348    1.384   .     D
C344   C345    1.468   .     D
C344   H352    0.956   1_556 S
C345   C346    1.339   .     S
C346   C347    1.408   .     D
C346   C353    1.380   .     S
C347   C348    1.363   .     S
C347   H351    0.992   .     S
C348   H350    0.977   .     S
H352   C344    0.956   1_554 S
C354   C38     1.380   1_455 S
C354   C214    1.380   1_554 S
C354   C280    1.380   1_544 S
C355   C126    1.380   1_545 S
C356   C148    1.380   1_455 S
