data_433
_audit_creation_date              2023-09-08
_audit_creation_method            'Materials Studio'
_symmetry_space_group_name_H-M    'P1'
_symmetry_Int_Tables_number       1
_symmetry_cell_setting            triclinic
loop_
_symmetry_equiv_pos_as_xyz
  x,y,z
_cell_length_a                    29.4200
_cell_length_b                    28.9100
_cell_length_c                    4.6200
_cell_angle_alpha                 90.0000
_cell_angle_beta                  90.0000
_cell_angle_gamma                 120.0000
loop_
_atom_site_label
_atom_site_type_symbol
_atom_site_fract_x
_atom_site_fract_y
_atom_site_fract_z
_atom_site_U_iso_or_equiv
_atom_site_adp_type
_atom_site_occupancy
C1     C     0.51519   0.72558   0.03614   0.00000  Uiso   1.00
C2     C     0.54690   0.77299  -0.12078   0.00000  Uiso   1.00
C3     C     0.53890   0.81747  -0.10182   0.00000  Uiso   1.00
C4     C     0.49902   0.81578   0.07591   0.00000  Uiso   1.00
C5     C     0.46743   0.76812   0.23028   0.00000  Uiso   1.00
C6     C     0.47511   0.72388   0.20937   0.00000  Uiso   1.00
C7     C     0.48847   0.86172   0.10967   0.00000  Uiso   1.00
N8     N     0.51400   0.90725  -0.03027   0.00000  Uiso   1.00
C9     C     0.50607   0.95341  -0.01057   0.00000  Uiso   1.00
C10    C     0.53705   0.99871  -0.18270   0.00000  Uiso   1.00
C11    C     0.53128   0.04444  -0.17347   0.00000  Uiso   1.00
C12    C     0.99320   0.53560   0.17515   0.00000  Uiso   1.00
C13    C     0.95072   0.50053  -0.00396   0.00000  Uiso   1.00
C14    C     0.95879   0.46507  -0.17788   0.00000  Uiso   1.00
N15    N     0.89986   0.49916  -0.01634   0.00000  Uiso   1.00
C16    C     0.88593   0.53014   0.12126   0.00000  Uiso   1.00
C17    C     0.47540   0.47598  -0.02546   0.00000  Uiso   1.00
C18    C     0.47246   0.42061  -0.02328   0.00000  Uiso   1.00
C19    C     0.42171   0.47573  -0.04616   0.00000  Uiso   1.00
C20    C     0.40884   0.50563   0.14454   0.00000  Uiso   1.00
C21    C     0.36108   0.50655   0.13456   0.00000  Uiso   1.00
C22    C     0.32111   0.47588  -0.06685   0.00000  Uiso   1.00
C23    C     0.33352   0.44608  -0.26303   0.00000  Uiso   1.00
C24    C     0.38242   0.44710  -0.25699   0.00000  Uiso   1.00
C25    C     0.44375   0.37835  -0.22263   0.00000  Uiso   1.00
C26    C     0.44548   0.33016  -0.21723   0.00000  Uiso   1.00
C27    C     0.47735   0.32246  -0.01924   0.00000  Uiso   1.00
C28    C     0.50516   0.36336   0.18147   0.00000  Uiso   1.00
C29    C     0.50068   0.40971   0.18427   0.00000  Uiso   1.00
C30    C     0.73190   0.52451   0.07545   0.00000  Uiso   1.00
C31    C     0.74049   0.48634  -0.07360   0.00000  Uiso   1.00
C32    C     0.78955   0.48749  -0.06425   0.00000  Uiso   1.00
C33    C     0.83236   0.52655   0.09676   0.00000  Uiso   1.00
C34    C     0.82395   0.56431   0.24494   0.00000  Uiso   1.00
C35    C     0.77553   0.56364   0.23343   0.00000  Uiso   1.00
H36    H     0.57780   0.77557  -0.25904   0.00000  Uiso   1.00
H37    H     0.56391   0.85307  -0.22584   0.00000  Uiso   1.00
H38    H     0.43627   0.76490   0.36881   0.00000  Uiso   1.00
H39    H     0.44934   0.68801   0.32898   0.00000  Uiso   1.00
H40    H     0.45762   0.85549   0.25872   0.00000  Uiso   1.00
H41    H     0.56594   0.99856  -0.32738   0.00000  Uiso   1.00
H42    H     0.55617   0.07752  -0.31281   0.00000  Uiso   1.00
H43    H     0.98989   0.56358   0.31599   0.00000  Uiso   1.00
H44    H     0.92754   0.43763  -0.31933   0.00000  Uiso   1.00
H45    H     0.91406   0.56112   0.26179   0.00000  Uiso   1.00
H46    H     0.43650   0.52969   0.30163   0.00000  Uiso   1.00
H47    H     0.35566   0.53077   0.29337   0.00000  Uiso   1.00
H48    H     0.30670   0.42351  -0.43505   0.00000  Uiso   1.00
H49    H     0.38971   0.42841  -0.43636   0.00000  Uiso   1.00
H50    H     0.42252   0.38212  -0.39914   0.00000  Uiso   1.00
H51    H     0.42386   0.29989  -0.37909   0.00000  Uiso   1.00
H52    H     0.53041   0.35963   0.33805   0.00000  Uiso   1.00
H53    H     0.52055   0.43869   0.34561   0.00000  Uiso   1.00
H54    H     0.70929   0.45471  -0.19718   0.00000  Uiso   1.00
H55    H     0.79374   0.45748  -0.18217   0.00000  Uiso   1.00
H56    H     0.85549   0.59525   0.37152   0.00000  Uiso   1.00
H57    H     0.77326   0.59490   0.34844   0.00000  Uiso   1.00
C58    C     0.48481   0.27442  -0.03614   0.00000  Uiso   1.00
C59    C     0.45310   0.22701   0.12078   0.00000  Uiso   1.00
C60    C     0.46110   0.18253   0.10182   0.00000  Uiso   1.00
C61    C     0.50098   0.18422  -0.07591   0.00000  Uiso   1.00
C62    C     0.53257   0.23188  -0.23028   0.00000  Uiso   1.00
C63    C     0.52489   0.27612  -0.20937   0.00000  Uiso   1.00
C64    C     0.51153   0.13828  -0.10967   0.00000  Uiso   1.00
N65    N     0.48600   0.09275   0.03027   0.00000  Uiso   1.00
C66    C     0.49393   0.04659   0.01057   0.00000  Uiso   1.00
C67    C     0.46295   0.00129   0.18270   0.00000  Uiso   1.00
C68    C     0.46872   0.95556   0.17347   0.00000  Uiso   1.00
C69    C     0.00680   0.46440  -0.17515   0.00000  Uiso   1.00
C70    C     0.04928   0.49947   0.00396   0.00000  Uiso   1.00
C71    C     0.04121   0.53493   0.17788   0.00000  Uiso   1.00
N72    N     0.10014   0.50084   0.01634   0.00000  Uiso   1.00
C73    C     0.11407   0.46986  -0.12126   0.00000  Uiso   1.00
C74    C     0.52460   0.52402   0.02546   0.00000  Uiso   1.00
C75    C     0.52754   0.57939   0.02328   0.00000  Uiso   1.00
C76    C     0.57829   0.52427   0.04616   0.00000  Uiso   1.00
C77    C     0.59116   0.49437  -0.14454   0.00000  Uiso   1.00
C78    C     0.63892   0.49345  -0.13456   0.00000  Uiso   1.00
C79    C     0.67889   0.52412   0.06685   0.00000  Uiso   1.00
C80    C     0.66648   0.55392   0.26303   0.00000  Uiso   1.00
C81    C     0.61758   0.55290   0.25699   0.00000  Uiso   1.00
C82    C     0.55625   0.62165   0.22263   0.00000  Uiso   1.00
C83    C     0.55452   0.66984   0.21723   0.00000  Uiso   1.00
C84    C     0.52265   0.67754   0.01924   0.00000  Uiso   1.00
C85    C     0.49484   0.63664  -0.18147   0.00000  Uiso   1.00
C86    C     0.49932   0.59029  -0.18427   0.00000  Uiso   1.00
C87    C     0.26810   0.47549  -0.07545   0.00000  Uiso   1.00
C88    C     0.25951   0.51366   0.07360   0.00000  Uiso   1.00
C89    C     0.21045   0.51251   0.06425   0.00000  Uiso   1.00
C90    C     0.16764   0.47345  -0.09676   0.00000  Uiso   1.00
C91    C     0.17605   0.43569  -0.24494   0.00000  Uiso   1.00
C92    C     0.22447   0.43636  -0.23343   0.00000  Uiso   1.00
H93    H     0.42220   0.22443   0.25904   0.00000  Uiso   1.00
H94    H     0.43609   0.14693   0.22584   0.00000  Uiso   1.00
H95    H     0.56373   0.23510  -0.36881   0.00000  Uiso   1.00
H96    H     0.55066   0.31199  -0.32898   0.00000  Uiso   1.00
H97    H     0.54238   0.14451  -0.25872   0.00000  Uiso   1.00
H98    H     0.43406   0.00144   0.32738   0.00000  Uiso   1.00
H99    H     0.44383   0.92248   0.31281   0.00000  Uiso   1.00
H100   H     0.01011   0.43642  -0.31599   0.00000  Uiso   1.00
H101   H     0.07246   0.56237   0.31933   0.00000  Uiso   1.00
H102   H     0.08594   0.43888  -0.26179   0.00000  Uiso   1.00
H103   H     0.56350   0.47031  -0.30163   0.00000  Uiso   1.00
H104   H     0.64434   0.46923  -0.29337   0.00000  Uiso   1.00
H105   H     0.69330   0.57649   0.43505   0.00000  Uiso   1.00
H106   H     0.61029   0.57159   0.43636   0.00000  Uiso   1.00
H107   H     0.57748   0.61788   0.39914   0.00000  Uiso   1.00
H108   H     0.57614   0.70011   0.37909   0.00000  Uiso   1.00
H109   H     0.46959   0.64037  -0.33805   0.00000  Uiso   1.00
H110   H     0.47945   0.56131  -0.34561   0.00000  Uiso   1.00
H111   H     0.29071   0.54529   0.19718   0.00000  Uiso   1.00
H112   H     0.20626   0.54252   0.18217   0.00000  Uiso   1.00
H113   H     0.14451   0.40475  -0.37152   0.00000  Uiso   1.00
H114   H     0.22674   0.40510  -0.34844   0.00000  Uiso   1.00
loop_
_geom_bond_atom_site_label_1
_geom_bond_atom_site_label_2
_geom_bond_distance
_geom_bond_site_symmetry_2
_ccdc_geom_bond_type
C1     C2      1.413   .     D
C1     C6      1.405   .     S
C1     C84     1.513   .     S
C2     C3      1.421   .     S
C2     H36     1.083   .     S
C3     C4      1.413   .     D
C3     H37     1.082   .     S
C4     C5      1.411   .     S
C4     C7      1.516   .     S
C5     C6      1.409   .     D
C5     H38     1.083   .     S
C6     H39     1.081   .     S
C7     N8      1.314   .     D
C7     H40     1.080   .     S
N8     C9      1.468   .     S
C9     C10     1.409   .     D
C9     C68     1.415   .     S
C10    C11     1.415   1_565 S
C10    H41     1.083   .     S
C11    C10     1.415   1_545 S
C11    H42     1.079   .     S
C11    C66     1.415   .     D
C12    C13     1.417   .     D
C12    H43     1.080   .     S
C12    C71     1.422   1_655 S
C13    C14     1.413   .     S
C13    N15     1.478   .     S
C14    H44     1.083   .     S
C14    C69     1.422   1_655 D
N15    C16     1.320   .     D
C16    C33     1.531   .     S
C16    H45     1.080   .     S
C17    C18     1.559   .     S
C17    C19     1.579   .     S
C17    C74     1.438   .     D
C18    C25     1.422   .     D
C18    C29     1.403   .     S
C19    C20     1.412   .     D
C19    C24     1.419   .     S
C20    C21     1.419   .     S
C20    H46     1.052   .     S
C21    C22     1.411   .     D
C21    H47     1.080   .     S
C22    C23     1.418   .     S
C22    C87     1.554   .     S
C23    C24     1.424   .     D
C23    H48     1.079   .     S
C24    H49     1.068   .     S
C25    C26     1.420   .     S
C25    H50     1.065   .     S
C26    C27     1.405   .     D
C26    H51     1.083   .     S
C27    C28     1.400   .     S
C27    C58     1.513   .     S
C28    C29     1.411   .     D
C28    H52     1.080   .     S
C29    H53     1.053   .     S
C30    C31     1.426   .     D
C30    C35     1.417   .     S
C30    C79     1.554   .     S
C31    C32     1.428   .     S
C31    H54     1.080   .     S
C32    C33     1.412   .     D
C32    H55     1.082   .     S
C33    C34     1.411   .     S
C34    C35     1.416   .     D
C34    H56     1.083   .     S
C35    H57     1.079   .     S
C58    C59     1.413   .     D
C58    C63     1.405   .     S
C59    C60     1.421   .     S
C59    H93     1.083   .     S
C60    C61     1.413   .     D
C60    H94     1.082   .     S
C61    C62     1.411   .     S
C61    C64     1.516   .     S
C62    C63     1.409   .     D
C62    H95     1.083   .     S
C63    H96     1.081   .     S
C64    N65     1.314   .     D
C64    H97     1.080   .     S
N65    C66     1.468   .     S
C66    C67     1.409   .     S
C67    C68     1.415   1_545 D
C67    H98     1.083   .     S
C68    C67     1.415   1_565 D
C68    H99     1.079   .     S
C69    C14     1.422   1_455 D
C69    C70     1.417   .     S
C69    H100    1.080   .     S
C70    C71     1.413   .     D
C70    N72     1.478   .     S
C71    C12     1.422   1_455 S
C71    H101    1.083   .     S
N72    C73     1.320   .     D
C73    C90     1.531   .     S
C73    H102    1.080   .     S
C74    C75     1.559   .     S
C74    C76     1.579   .     S
C75    C82     1.422   .     S
C75    C86     1.403   .     D
C76    C77     1.412   .     D
C76    C81     1.419   .     S
C77    C78     1.419   .     S
C77    H103    1.052   .     S
C78    C79     1.411   .     D
C78    H104    1.080   .     S
C79    C80     1.418   .     S
C80    C81     1.424   .     D
C80    H105    1.079   .     S
C81    H106    1.068   .     S
C82    C83     1.420   .     D
C82    H107    1.065   .     S
C83    C84     1.405   .     S
C83    H108    1.083   .     S
C84    C85     1.400   .     D
C85    C86     1.411   .     S
C85    H109    1.080   .     S
C86    H110    1.053   .     S
C87    C88     1.426   .     D
C87    C92     1.417   .     S
C88    C89     1.428   .     S
C88    H111    1.080   .     S
C89    C90     1.412   .     D
C89    H112    1.082   .     S
C90    C91     1.411   .     S
C91    C92     1.416   .     D
C91    H113    1.083   .     S
C92    H114    1.079   .     S
