data_434
_audit_creation_date              2023-09-08
_audit_creation_method            'Materials Studio'
_symmetry_space_group_name_H-M    'P1'
_symmetry_Int_Tables_number       1
_symmetry_cell_setting            triclinic
loop_
_symmetry_equiv_pos_as_xyz
  x,y,z
_cell_length_a                    38.5200
_cell_length_b                    38.5200
_cell_length_c                    3.3800
_cell_angle_alpha                 90.0000
_cell_angle_beta                  90.0000
_cell_angle_gamma                 120.0000
loop_
_atom_site_label
_atom_site_type_symbol
_atom_site_fract_x
_atom_site_fract_y
_atom_site_fract_z
_atom_site_U_iso_or_equiv
_atom_site_adp_type
_atom_site_occupancy
C1     C     0.02290   0.54270   0.50000   0.00000  Uiso   1.00
C2     C     0.15210   0.59410   0.50000   0.00000  Uiso   1.00
C3     C     0.18850   0.63070   0.50000   0.00000  Uiso   1.00
C4     C     0.18850   0.66730   0.50000   0.00000  Uiso   1.00
C5     C     0.22530   0.70410   0.50000   0.00000  Uiso   1.00
C6     C     0.26210   0.70410   0.50000   0.00000  Uiso   1.00
C7     C     0.26210   0.66740   0.50000   0.00000  Uiso   1.00
C8     C     0.22530   0.63070   0.50000   0.00000  Uiso   1.00
O9     O     0.11180   0.58540   0.50000   0.00000  Uiso   1.00
H10    H     0.03849   0.57525   0.50000   0.00000  Uiso   1.00
H11    H     0.16031   0.66726   0.50000   0.00000  Uiso   1.00
H12    H     0.22038   0.72907   0.50000   0.00000  Uiso   1.00
H13    H     0.28676   0.66668   0.50000   0.00000  Uiso   1.00
C14    C     0.45730   0.48020   0.50000   0.00000  Uiso   1.00
C15    C     0.40590   0.55800   0.50000   0.00000  Uiso   1.00
C16    C     0.36930   0.55780   0.50000   0.00000  Uiso   1.00
C17    C     0.33270   0.52120   0.50000   0.00000  Uiso   1.00
C18    C     0.29590   0.52120   0.50000   0.00000  Uiso   1.00
C19    C     0.29590   0.55800   0.50000   0.00000  Uiso   1.00
C20    C     0.33260   0.59470   0.50000   0.00000  Uiso   1.00
C21    C     0.36930   0.59460   0.50000   0.00000  Uiso   1.00
O22    O     0.41460   0.52640   0.50000   0.00000  Uiso   1.00
H23    H     0.42475   0.46324   0.50000   0.00000  Uiso   1.00
H24    H     0.33274   0.49305   0.50000   0.00000  Uiso   1.00
H25    H     0.27093   0.49131   0.50000   0.00000  Uiso   1.00
H26    H     0.33332   0.62008   0.50000   0.00000  Uiso   1.00
C27    C     0.51980   0.97710   0.50000   0.00000  Uiso   1.00
C28    C     0.44200   0.84790   0.50000   0.00000  Uiso   1.00
C29    C     0.44220   0.81150   0.50000   0.00000  Uiso   1.00
C30    C     0.47880   0.81150   0.50000   0.00000  Uiso   1.00
C31    C     0.47880   0.77470   0.50000   0.00000  Uiso   1.00
C32    C     0.44200   0.73790   0.50000   0.00000  Uiso   1.00
C33    C     0.40530   0.73790   0.50000   0.00000  Uiso   1.00
C34    C     0.40540   0.77470   0.50000   0.00000  Uiso   1.00
O35    O     0.47360   0.88820   0.50000   0.00000  Uiso   1.00
H36    H     0.53676   0.96151   0.50000   0.00000  Uiso   1.00
H37    H     0.50695   0.83969   0.50000   0.00000  Uiso   1.00
H38    H     0.50869   0.77962   0.50000   0.00000  Uiso   1.00
H39    H     0.37992   0.71324   0.50000   0.00000  Uiso   1.00
C40    C     0.97710   0.45730   0.50000   0.00000  Uiso   1.00
C41    C     0.84790   0.40590   0.50000   0.00000  Uiso   1.00
C42    C     0.81150   0.36930   0.50000   0.00000  Uiso   1.00
C43    C     0.81150   0.33270   0.50000   0.00000  Uiso   1.00
C44    C     0.77470   0.29590   0.50000   0.00000  Uiso   1.00
C45    C     0.73790   0.29590   0.50000   0.00000  Uiso   1.00
C46    C     0.73790   0.33260   0.50000   0.00000  Uiso   1.00
C47    C     0.77470   0.36930   0.50000   0.00000  Uiso   1.00
O48    O     0.88820   0.41460   0.50000   0.00000  Uiso   1.00
H49    H     0.96151   0.42475   0.50000   0.00000  Uiso   1.00
H50    H     0.83969   0.33274   0.50000   0.00000  Uiso   1.00
H51    H     0.77962   0.27093   0.50000   0.00000  Uiso   1.00
H52    H     0.71324   0.33332   0.50000   0.00000  Uiso   1.00
C53    C     0.54270   0.51980   0.50000   0.00000  Uiso   1.00
C54    C     0.59410   0.44200   0.50000   0.00000  Uiso   1.00
C55    C     0.63070   0.44220   0.50000   0.00000  Uiso   1.00
C56    C     0.66730   0.47880   0.50000   0.00000  Uiso   1.00
C57    C     0.70410   0.47880   0.50000   0.00000  Uiso   1.00
C58    C     0.70410   0.44200   0.50000   0.00000  Uiso   1.00
C59    C     0.66740   0.40530   0.50000   0.00000  Uiso   1.00
C60    C     0.63070   0.40540   0.50000   0.00000  Uiso   1.00
O61    O     0.58540   0.47360   0.50000   0.00000  Uiso   1.00
H62    H     0.57525   0.53676   0.50000   0.00000  Uiso   1.00
H63    H     0.66726   0.50695   0.50000   0.00000  Uiso   1.00
H64    H     0.72907   0.50869   0.50000   0.00000  Uiso   1.00
H65    H     0.66668   0.37992   0.50000   0.00000  Uiso   1.00
C66    C     0.48020   0.02290   0.50000   0.00000  Uiso   1.00
C67    C     0.55800   0.15210   0.50000   0.00000  Uiso   1.00
C68    C     0.55780   0.18850   0.50000   0.00000  Uiso   1.00
C69    C     0.52120   0.18850   0.50000   0.00000  Uiso   1.00
C70    C     0.52120   0.22530   0.50000   0.00000  Uiso   1.00
C71    C     0.55800   0.26210   0.50000   0.00000  Uiso   1.00
C72    C     0.59470   0.26210   0.50000   0.00000  Uiso   1.00
C73    C     0.59460   0.22530   0.50000   0.00000  Uiso   1.00
O74    O     0.52640   0.11180   0.50000   0.00000  Uiso   1.00
H75    H     0.46324   0.03849   0.50000   0.00000  Uiso   1.00
H76    H     0.49305   0.16031   0.50000   0.00000  Uiso   1.00
H77    H     0.49131   0.22038   0.50000   0.00000  Uiso   1.00
H78    H     0.62008   0.28676   0.50000   0.00000  Uiso   1.00
C79    C     0.54270   0.02290   0.50000   0.00000  Uiso   1.00
C80    C     0.59410   0.15210   0.50000   0.00000  Uiso   1.00
C81    C     0.63070   0.18850   0.50000   0.00000  Uiso   1.00
C82    C     0.66730   0.18850   0.50000   0.00000  Uiso   1.00
C83    C     0.70410   0.22530   0.50000   0.00000  Uiso   1.00
C84    C     0.70410   0.26210   0.50000   0.00000  Uiso   1.00
C85    C     0.66740   0.26210   0.50000   0.00000  Uiso   1.00
C86    C     0.63070   0.22530   0.50000   0.00000  Uiso   1.00
O87    O     0.58540   0.11180   0.50000   0.00000  Uiso   1.00
H88    H     0.57525   0.03849   0.50000   0.00000  Uiso   1.00
H89    H     0.66726   0.16031   0.50000   0.00000  Uiso   1.00
H90    H     0.72907   0.22038   0.50000   0.00000  Uiso   1.00
H91    H     0.66668   0.28676   0.50000   0.00000  Uiso   1.00
C92    C     0.48020   0.45730   0.50000   0.00000  Uiso   1.00
C93    C     0.55800   0.40590   0.50000   0.00000  Uiso   1.00
C94    C     0.55780   0.36930   0.50000   0.00000  Uiso   1.00
C95    C     0.52120   0.33270   0.50000   0.00000  Uiso   1.00
C96    C     0.52120   0.29590   0.50000   0.00000  Uiso   1.00
C97    C     0.55800   0.29590   0.50000   0.00000  Uiso   1.00
C98    C     0.59470   0.33260   0.50000   0.00000  Uiso   1.00
C99    C     0.59460   0.36930   0.50000   0.00000  Uiso   1.00
O100   O     0.52640   0.41460   0.50000   0.00000  Uiso   1.00
H101   H     0.46324   0.42475   0.50000   0.00000  Uiso   1.00
H102   H     0.49305   0.33274   0.50000   0.00000  Uiso   1.00
H103   H     0.49131   0.27093   0.50000   0.00000  Uiso   1.00
H104   H     0.62008   0.33332   0.50000   0.00000  Uiso   1.00
C105   C     0.97710   0.51980   0.50000   0.00000  Uiso   1.00
C106   C     0.84790   0.44200   0.50000   0.00000  Uiso   1.00
C107   C     0.81150   0.44220   0.50000   0.00000  Uiso   1.00
C108   C     0.81150   0.47880   0.50000   0.00000  Uiso   1.00
C109   C     0.77470   0.47880   0.50000   0.00000  Uiso   1.00
C110   C     0.73790   0.44200   0.50000   0.00000  Uiso   1.00
C111   C     0.73790   0.40530   0.50000   0.00000  Uiso   1.00
C112   C     0.77470   0.40540   0.50000   0.00000  Uiso   1.00
O113   O     0.88820   0.47360   0.50000   0.00000  Uiso   1.00
H114   H     0.96151   0.53676   0.50000   0.00000  Uiso   1.00
H115   H     0.83969   0.50695   0.50000   0.00000  Uiso   1.00
H116   H     0.77962   0.50869   0.50000   0.00000  Uiso   1.00
H117   H     0.71324   0.37992   0.50000   0.00000  Uiso   1.00
C118   C     0.45730   0.97710   0.50000   0.00000  Uiso   1.00
C119   C     0.40590   0.84790   0.50000   0.00000  Uiso   1.00
C120   C     0.36930   0.81150   0.50000   0.00000  Uiso   1.00
C121   C     0.33270   0.81150   0.50000   0.00000  Uiso   1.00
C122   C     0.29590   0.77470   0.50000   0.00000  Uiso   1.00
C123   C     0.29590   0.73790   0.50000   0.00000  Uiso   1.00
C124   C     0.33260   0.73790   0.50000   0.00000  Uiso   1.00
C125   C     0.36930   0.77470   0.50000   0.00000  Uiso   1.00
O126   O     0.41460   0.88820   0.50000   0.00000  Uiso   1.00
H127   H     0.42475   0.96151   0.50000   0.00000  Uiso   1.00
H128   H     0.33274   0.83969   0.50000   0.00000  Uiso   1.00
H129   H     0.27093   0.77962   0.50000   0.00000  Uiso   1.00
H130   H     0.33332   0.71324   0.50000   0.00000  Uiso   1.00
C131   C     0.51980   0.54270   0.50000   0.00000  Uiso   1.00
C132   C     0.44200   0.59410   0.50000   0.00000  Uiso   1.00
C133   C     0.44220   0.63070   0.50000   0.00000  Uiso   1.00
C134   C     0.47880   0.66730   0.50000   0.00000  Uiso   1.00
C135   C     0.47880   0.70410   0.50000   0.00000  Uiso   1.00
C136   C     0.44200   0.70410   0.50000   0.00000  Uiso   1.00
C137   C     0.40530   0.66740   0.50000   0.00000  Uiso   1.00
C138   C     0.40540   0.63070   0.50000   0.00000  Uiso   1.00
O139   O     0.47360   0.58540   0.50000   0.00000  Uiso   1.00
H140   H     0.53676   0.57525   0.50000   0.00000  Uiso   1.00
H141   H     0.50695   0.66726   0.50000   0.00000  Uiso   1.00
H142   H     0.50869   0.72907   0.50000   0.00000  Uiso   1.00
H143   H     0.37992   0.66668   0.50000   0.00000  Uiso   1.00
C144   C     0.02290   0.48020   0.50000   0.00000  Uiso   1.00
C145   C     0.15210   0.55800   0.50000   0.00000  Uiso   1.00
C146   C     0.18850   0.55780   0.50000   0.00000  Uiso   1.00
C147   C     0.18850   0.52120   0.50000   0.00000  Uiso   1.00
C148   C     0.22530   0.52120   0.50000   0.00000  Uiso   1.00
C149   C     0.26210   0.55800   0.50000   0.00000  Uiso   1.00
C150   C     0.26210   0.59470   0.50000   0.00000  Uiso   1.00
C151   C     0.22530   0.59460   0.50000   0.00000  Uiso   1.00
O152   O     0.11180   0.52640   0.50000   0.00000  Uiso   1.00
H153   H     0.03849   0.46324   0.50000   0.00000  Uiso   1.00
H154   H     0.16031   0.49305   0.50000   0.00000  Uiso   1.00
H155   H     0.22038   0.49131   0.50000   0.00000  Uiso   1.00
H156   H     0.28676   0.62008   0.50000   0.00000  Uiso   1.00
C157   C     0.04410   0.52205   0.50000   0.00000  Uiso   1.00
B158   B     0.08680   0.54340   0.50000   0.00000  Uiso   1.00
C159   C     0.47795   0.52205   0.50000   0.00000  Uiso   1.00
B160   B     0.45660   0.54340   0.50000   0.00000  Uiso   1.00
C161   C     0.47795   0.95590   0.50000   0.00000  Uiso   1.00
B162   B     0.45660   0.91320   0.50000   0.00000  Uiso   1.00
C163   C     0.95590   0.47795   0.50000   0.00000  Uiso   1.00
B164   B     0.91320   0.45660   0.50000   0.00000  Uiso   1.00
C165   C     0.52205   0.47795   0.50000   0.00000  Uiso   1.00
B166   B     0.54340   0.45660   0.50000   0.00000  Uiso   1.00
C167   C     0.52205   0.04410   0.50000   0.00000  Uiso   1.00
B168   B     0.54340   0.08680   0.50000   0.00000  Uiso   1.00
loop_
_geom_bond_atom_site_label_1
_geom_bond_atom_site_label_2
_geom_bond_distance
_geom_bond_site_symmetry_2
_ccdc_geom_bond_type
C1     H10     1.086   .     S
C1     C105    1.528   1_455 S
C1     C157    1.396   .     D
C2     C3      1.406   .     S
C2     O9      1.415   .     S
C2     C145    1.391   .     D
C3     C4      1.410   .     D
C3     C8      1.418   .     S
C4     C5      1.418   .     S
C4     H11     1.085   .     S
C5     C6      1.418   .     D
C5     H12     1.069   .     S
C6     C7      1.414   .     S
C6     C123    1.302   .     S
C7     C8      1.416   .     D
C7     H13     0.964   .     S
C8     C151    1.391   .     S
O9     B158    1.410   .     S
C14    H23     1.086   .     S
C14    C92     1.528   .     S
C14    C159    1.396   .     D
C15    C16     1.406   .     S
C15    O22     1.415   .     S
C15    C132    1.391   .     D
C16    C17     1.410   .     D
C16    C21     1.418   .     S
C17    C18     1.418   .     S
C17    H24     1.085   .     S
C18    C19     1.418   .     D
C18    H25     1.069   .     S
C19    C20     1.414   .     S
C19    C149    1.302   .     S
C20    C21     1.416   .     D
C20    H26     0.964   .     S
C21    C138    1.391   .     S
O22    B160    1.410   .     S
C27    H36     1.086   .     S
C27    C79     1.528   1_565 D
C27    C161    1.396   .     S
C28    C29     1.406   .     S
C28    O35     1.415   .     S
C28    C119    1.391   .     D
C29    C30     1.410   .     S
C29    C34     1.418   .     D
C30    C31     1.418   .     D
C30    H37     1.085   .     S
C31    C32     1.418   .     S
C31    H38     1.069   .     S
C32    C33     1.414   .     D
C32    C136    1.302   .     S
C33    C34     1.416   .     S
C33    H39     0.964   .     S
C34    C125    1.391   .     S
O35    B162    1.410   .     S
C40    H49     1.086   .     S
C40    C144    1.528   1_655 D
C40    C163    1.396   .     S
C41    C42     1.406   .     S
C41    O48     1.415   .     S
C41    C106    1.391   .     D
C42    C43     1.410   .     D
C42    C47     1.418   .     S
C43    C44     1.418   .     S
C43    H50     1.085   .     S
C44    C45     1.418   .     D
C44    H51     1.069   .     S
C45    C46     1.414   .     S
C45    C84     1.302   .     S
C46    C47     1.416   .     D
C46    H52     0.964   .     S
C47    C112    1.391   .     S
O48    B164    1.410   .     S
C53    H62     1.086   .     S
C53    C131    1.528   .     D
C53    C165    1.396   .     S
C54    C55     1.406   .     S
C54    O61     1.415   .     S
C54    C93     1.391   .     D
C55    C56     1.410   .     D
C55    C60     1.418   .     S
C56    C57     1.418   .     S
C56    H63     1.085   .     S
C57    C58     1.418   .     D
C57    H64     1.069   .     S
C58    C59     1.414   .     S
C58    C110    1.302   .     S
C59    C60     1.416   .     D
C59    H65     0.964   .     S
C60    C99     1.391   .     S
O61    B166    1.410   .     S
C66    H75     1.086   .     S
C66    C118    1.528   1_545 S
C66    C167    1.396   .     D
C67    C68     1.406   .     S
C67    O74     1.415   .     S
C67    C80     1.391   .     D
C68    C69     1.410   .     S
C68    C73     1.418   .     D
C69    C70     1.418   .     D
C69    H76     1.085   .     S
C70    C71     1.418   .     S
C70    H77     1.069   .     S
C71    C72     1.414   .     D
C71    C97     1.302   .     S
C72    C73     1.416   .     S
C72    H78     0.964   .     S
C73    C86     1.391   .     S
O74    B168    1.410   .     S
C79    C27     1.528   1_545 D
C79    H88     1.086   .     S
C79    C167    1.396   .     S
C80    C81     1.406   .     S
C80    O87     1.415   .     S
C81    C82     1.410   .     D
C81    C86     1.418   .     S
C82    C83     1.418   .     S
C82    H89     1.085   .     S
C83    C84     1.418   .     D
C83    H90     1.069   .     S
C84    C85     1.414   .     S
C85    C86     1.416   .     D
C85    H91     0.964   .     S
O87    B168    1.410   .     S
C92    H101    1.086   .     S
C92    C165    1.396   .     D
C93    C94     1.406   .     S
C93    O100    1.415   .     S
C94    C95     1.410   .     S
C94    C99     1.418   .     D
C95    C96     1.418   .     D
C95    H102    1.085   .     S
C96    C97     1.418   .     S
C96    H103    1.069   .     S
C97    C98     1.414   .     D
C98    C99     1.416   .     S
C98    H104    0.964   .     S
O100   B166    1.410   .     S
C105   C1      1.528   1_655 S
C105   H114    1.086   .     S
C105   C163    1.396   .     D
C106   C107    1.406   .     S
C106   O113    1.415   .     S
C107   C108    1.410   .     D
C107   C112    1.418   .     S
C108   C109    1.418   .     S
C108   H115    1.085   .     S
C109   C110    1.418   .     D
C109   H116    1.069   .     S
C110   C111    1.414   .     S
C111   C112    1.416   .     D
C111   H117    0.964   .     S
O113   B164    1.410   .     S
C118   C66     1.528   1_565 S
C118   H127    1.086   .     S
C118   C161    1.396   .     D
C119   C120    1.406   .     S
C119   O126    1.415   .     S
C120   C121    1.410   .     D
C120   C125    1.418   .     S
C121   C122    1.418   .     S
C121   H128    1.085   .     S
C122   C123    1.418   .     D
C122   H129    1.069   .     S
C123   C124    1.414   .     S
C124   C125    1.416   .     D
C124   H130    0.964   .     S
O126   B162    1.410   .     S
C131   H140    1.086   .     S
C131   C159    1.396   .     S
C132   C133    1.406   .     S
C132   O139    1.415   .     S
C133   C134    1.410   .     D
C133   C138    1.418   .     S
C134   C135    1.418   .     S
C134   H141    1.085   .     S
C135   C136    1.418   .     D
C135   H142    1.069   .     S
C136   C137    1.414   .     S
C137   C138    1.416   .     D
C137   H143    0.964   .     S
O139   B160    1.410   .     S
C144   C40     1.528   1_455 D
C144   H153    1.086   .     S
C144   C157    1.396   .     S
C145   C146    1.406   .     S
C145   O152    1.415   .     S
C146   C147    1.410   .     D
C146   C151    1.418   .     S
C147   C148    1.418   .     S
C147   H154    1.085   .     S
C148   C149    1.418   .     D
C148   H155    1.069   .     S
C149   C150    1.414   .     S
C150   C151    1.416   .     D
C150   H156    0.964   .     S
O152   B158    1.410   .     S
C157   B158    1.424   .     S
C159   B160    1.424   .     S
C161   B162    1.424   .     S
C163   B164    1.424   .     S
C165   B166    1.424   .     S
C167   B168    1.424   .     S
