data_435
_audit_creation_date              2023-09-08
_audit_creation_method            'Materials Studio'
_symmetry_space_group_name_H-M    'P1'
_symmetry_Int_Tables_number       1
_symmetry_cell_setting            triclinic
loop_
_symmetry_equiv_pos_as_xyz
  x,y,z
_cell_length_a                    46.3300
_cell_length_b                    46.3300
_cell_length_c                    3.4200
_cell_angle_alpha                 90.0000
_cell_angle_beta                  90.0000
_cell_angle_gamma                 120.0000
loop_
_atom_site_label
_atom_site_type_symbol
_atom_site_fract_x
_atom_site_fract_y
_atom_site_fract_z
_atom_site_U_iso_or_equiv
_atom_site_adp_type
_atom_site_occupancy
C1     C     0.01880   0.56390   0.50000   0.00000  Uiso   1.00
C2     C     0.03650   0.54610   0.50000   0.00000  Uiso   1.00
C3     C     0.07210   0.56390   0.50000   0.00000  Uiso   1.00
C4     C     0.18020   0.60670   0.50000   0.00000  Uiso   1.00
C5     C     0.21090   0.63730   0.50000   0.00000  Uiso   1.00
C6     C     0.21100   0.66820   0.50000   0.00000  Uiso   1.00
C7     C     0.23940   0.69660   0.50000   0.00000  Uiso   1.00
C8     C     0.27030   0.69660   0.50000   0.00000  Uiso   1.00
C9     C     0.27030   0.66580   0.50000   0.00000  Uiso   1.00
C10    C     0.24180   0.63730   0.50000   0.00000  Uiso   1.00
O11    O     0.14380   0.59870   0.50000   0.00000  Uiso   1.00
H12    H     0.03206   0.59088   0.50000   0.00000  Uiso   1.00
H13    H     0.08594   0.59102   0.50000   0.00000  Uiso   1.00
H14    H     0.18754   0.66812   0.50000   0.00000  Uiso   1.00
H15    H     0.23744   0.71872   0.50000   0.00000  Uiso   1.00
H16    H     0.29269   0.66659   0.50000   0.00000  Uiso   1.00
C17    C     0.43610   0.45490   0.50000   0.00000  Uiso   1.00
C18    C     0.45390   0.49040   0.50000   0.00000  Uiso   1.00
C19    C     0.43610   0.50820   0.50000   0.00000  Uiso   1.00
C20    C     0.39330   0.57350   0.50000   0.00000  Uiso   1.00
C21    C     0.36270   0.57360   0.50000   0.00000  Uiso   1.00
C22    C     0.33180   0.54280   0.50000   0.00000  Uiso   1.00
C23    C     0.30340   0.54280   0.50000   0.00000  Uiso   1.00
C24    C     0.30340   0.57370   0.50000   0.00000  Uiso   1.00
C25    C     0.33420   0.60450   0.50000   0.00000  Uiso   1.00
C26    C     0.36270   0.60450   0.50000   0.00000  Uiso   1.00
O27    O     0.40130   0.54510   0.50000   0.00000  Uiso   1.00
H28    H     0.40912   0.44118   0.50000   0.00000  Uiso   1.00
H29    H     0.40898   0.49492   0.50000   0.00000  Uiso   1.00
H30    H     0.33189   0.51942   0.50000   0.00000  Uiso   1.00
H31    H     0.28128   0.51873   0.50000   0.00000  Uiso   1.00
H32    H     0.33341   0.62609   0.50000   0.00000  Uiso   1.00
C33    C     0.54510   0.98120   0.50000   0.00000  Uiso   1.00
C34    C     0.50960   0.96350   0.50000   0.00000  Uiso   1.00
C35    C     0.49180   0.92790   0.50000   0.00000  Uiso   1.00
C36    C     0.42650   0.81980   0.50000   0.00000  Uiso   1.00
C37    C     0.42640   0.78910   0.50000   0.00000  Uiso   1.00
C38    C     0.45720   0.78900   0.50000   0.00000  Uiso   1.00
C39    C     0.45720   0.76060   0.50000   0.00000  Uiso   1.00
C40    C     0.42630   0.72970   0.50000   0.00000  Uiso   1.00
C41    C     0.39550   0.72970   0.50000   0.00000  Uiso   1.00
C42    C     0.39550   0.75820   0.50000   0.00000  Uiso   1.00
O43    O     0.45490   0.85620   0.50000   0.00000  Uiso   1.00
H44    H     0.55882   0.96794   0.50000   0.00000  Uiso   1.00
H45    H     0.50508   0.91406   0.50000   0.00000  Uiso   1.00
H46    H     0.48058   0.81246   0.50000   0.00000  Uiso   1.00
H47    H     0.48127   0.76256   0.50000   0.00000  Uiso   1.00
H48    H     0.37391   0.70731   0.50000   0.00000  Uiso   1.00
C49    C     0.98120   0.43610   0.50000   0.00000  Uiso   1.00
C50    C     0.96350   0.45390   0.50000   0.00000  Uiso   1.00
C51    C     0.92790   0.43610   0.50000   0.00000  Uiso   1.00
C52    C     0.81980   0.39330   0.50000   0.00000  Uiso   1.00
C53    C     0.78910   0.36270   0.50000   0.00000  Uiso   1.00
C54    C     0.78900   0.33180   0.50000   0.00000  Uiso   1.00
C55    C     0.76060   0.30340   0.50000   0.00000  Uiso   1.00
C56    C     0.72970   0.30340   0.50000   0.00000  Uiso   1.00
C57    C     0.72970   0.33420   0.50000   0.00000  Uiso   1.00
C58    C     0.75820   0.36270   0.50000   0.00000  Uiso   1.00
O59    O     0.85620   0.40130   0.50000   0.00000  Uiso   1.00
H60    H     0.96794   0.40912   0.50000   0.00000  Uiso   1.00
H61    H     0.91406   0.40898   0.50000   0.00000  Uiso   1.00
H62    H     0.81246   0.33188   0.50000   0.00000  Uiso   1.00
H63    H     0.76256   0.28128   0.50000   0.00000  Uiso   1.00
H64    H     0.70731   0.33341   0.50000   0.00000  Uiso   1.00
C65    C     0.56390   0.54510   0.50000   0.00000  Uiso   1.00
C66    C     0.54610   0.50960   0.50000   0.00000  Uiso   1.00
C67    C     0.56390   0.49180   0.50000   0.00000  Uiso   1.00
C68    C     0.60670   0.42650   0.50000   0.00000  Uiso   1.00
C69    C     0.63730   0.42640   0.50000   0.00000  Uiso   1.00
C70    C     0.66820   0.45720   0.50000   0.00000  Uiso   1.00
C71    C     0.69660   0.45720   0.50000   0.00000  Uiso   1.00
C72    C     0.69660   0.42630   0.50000   0.00000  Uiso   1.00
C73    C     0.66580   0.39550   0.50000   0.00000  Uiso   1.00
C74    C     0.63730   0.39550   0.50000   0.00000  Uiso   1.00
O75    O     0.59870   0.45490   0.50000   0.00000  Uiso   1.00
H76    H     0.59088   0.55882   0.50000   0.00000  Uiso   1.00
H77    H     0.59102   0.50507   0.50000   0.00000  Uiso   1.00
H78    H     0.66812   0.48058   0.50000   0.00000  Uiso   1.00
H79    H     0.71872   0.48127   0.50000   0.00000  Uiso   1.00
H80    H     0.66659   0.37391   0.50000   0.00000  Uiso   1.00
C81    C     0.45490   0.01880   0.50000   0.00000  Uiso   1.00
C82    C     0.49040   0.03650   0.50000   0.00000  Uiso   1.00
C83    C     0.50820   0.07210   0.50000   0.00000  Uiso   1.00
C84    C     0.57350   0.18020   0.50000   0.00000  Uiso   1.00
C85    C     0.57360   0.21090   0.50000   0.00000  Uiso   1.00
C86    C     0.54280   0.21100   0.50000   0.00000  Uiso   1.00
C87    C     0.54280   0.23940   0.50000   0.00000  Uiso   1.00
C88    C     0.57370   0.27030   0.50000   0.00000  Uiso   1.00
C89    C     0.60450   0.27030   0.50000   0.00000  Uiso   1.00
C90    C     0.60450   0.24180   0.50000   0.00000  Uiso   1.00
O91    O     0.54510   0.14380   0.50000   0.00000  Uiso   1.00
H92    H     0.44118   0.03206   0.50000   0.00000  Uiso   1.00
H93    H     0.49493   0.08594   0.50000   0.00000  Uiso   1.00
H94    H     0.51942   0.18753   0.50000   0.00000  Uiso   1.00
H95    H     0.51873   0.23744   0.50000   0.00000  Uiso   1.00
H96    H     0.62609   0.29269   0.50000   0.00000  Uiso   1.00
C97    C     0.56390   0.01880   0.50000   0.00000  Uiso   1.00
C98    C     0.54610   0.03650   0.50000   0.00000  Uiso   1.00
C99    C     0.56390   0.07210   0.50000   0.00000  Uiso   1.00
C100   C     0.60670   0.18020   0.50000   0.00000  Uiso   1.00
C101   C     0.63730   0.21090   0.50000   0.00000  Uiso   1.00
C102   C     0.66820   0.21100   0.50000   0.00000  Uiso   1.00
C103   C     0.69660   0.23940   0.50000   0.00000  Uiso   1.00
C104   C     0.69660   0.27030   0.50000   0.00000  Uiso   1.00
C105   C     0.66580   0.27030   0.50000   0.00000  Uiso   1.00
C106   C     0.63730   0.24180   0.50000   0.00000  Uiso   1.00
O107   O     0.59870   0.14380   0.50000   0.00000  Uiso   1.00
H108   H     0.59088   0.03206   0.50000   0.00000  Uiso   1.00
H109   H     0.59102   0.08594   0.50000   0.00000  Uiso   1.00
H110   H     0.66812   0.18754   0.50000   0.00000  Uiso   1.00
H111   H     0.71872   0.23744   0.50000   0.00000  Uiso   1.00
H112   H     0.66659   0.29269   0.50000   0.00000  Uiso   1.00
C113   C     0.45490   0.43610   0.50000   0.00000  Uiso   1.00
C114   C     0.49040   0.45390   0.50000   0.00000  Uiso   1.00
C115   C     0.50820   0.43610   0.50000   0.00000  Uiso   1.00
C116   C     0.57350   0.39330   0.50000   0.00000  Uiso   1.00
C117   C     0.57360   0.36270   0.50000   0.00000  Uiso   1.00
C118   C     0.54280   0.33180   0.50000   0.00000  Uiso   1.00
C119   C     0.54280   0.30340   0.50000   0.00000  Uiso   1.00
C120   C     0.57370   0.30340   0.50000   0.00000  Uiso   1.00
C121   C     0.60450   0.33420   0.50000   0.00000  Uiso   1.00
C122   C     0.60450   0.36270   0.50000   0.00000  Uiso   1.00
O123   O     0.54510   0.40130   0.50000   0.00000  Uiso   1.00
H124   H     0.44118   0.40912   0.50000   0.00000  Uiso   1.00
H125   H     0.49493   0.40898   0.50000   0.00000  Uiso   1.00
H126   H     0.51942   0.33188   0.50000   0.00000  Uiso   1.00
H127   H     0.51873   0.28128   0.50000   0.00000  Uiso   1.00
H128   H     0.62609   0.33341   0.50000   0.00000  Uiso   1.00
C129   C     0.98120   0.54510   0.50000   0.00000  Uiso   1.00
C130   C     0.96350   0.50960   0.50000   0.00000  Uiso   1.00
C131   C     0.92790   0.49180   0.50000   0.00000  Uiso   1.00
C132   C     0.81980   0.42650   0.50000   0.00000  Uiso   1.00
C133   C     0.78910   0.42640   0.50000   0.00000  Uiso   1.00
C134   C     0.78900   0.45720   0.50000   0.00000  Uiso   1.00
C135   C     0.76060   0.45720   0.50000   0.00000  Uiso   1.00
C136   C     0.72970   0.42630   0.50000   0.00000  Uiso   1.00
C137   C     0.72970   0.39550   0.50000   0.00000  Uiso   1.00
C138   C     0.75820   0.39550   0.50000   0.00000  Uiso   1.00
O139   O     0.85620   0.45490   0.50000   0.00000  Uiso   1.00
H140   H     0.96794   0.55882   0.50000   0.00000  Uiso   1.00
H141   H     0.91406   0.50507   0.50000   0.00000  Uiso   1.00
H142   H     0.81246   0.48058   0.50000   0.00000  Uiso   1.00
H143   H     0.76256   0.48127   0.50000   0.00000  Uiso   1.00
H144   H     0.70731   0.37391   0.50000   0.00000  Uiso   1.00
C145   C     0.43610   0.98120   0.50000   0.00000  Uiso   1.00
C146   C     0.45390   0.96350   0.50000   0.00000  Uiso   1.00
C147   C     0.43610   0.92790   0.50000   0.00000  Uiso   1.00
C148   C     0.39330   0.81980   0.50000   0.00000  Uiso   1.00
C149   C     0.36270   0.78910   0.50000   0.00000  Uiso   1.00
C150   C     0.33180   0.78900   0.50000   0.00000  Uiso   1.00
C151   C     0.30340   0.76060   0.50000   0.00000  Uiso   1.00
C152   C     0.30340   0.72970   0.50000   0.00000  Uiso   1.00
C153   C     0.33420   0.72970   0.50000   0.00000  Uiso   1.00
C154   C     0.36270   0.75820   0.50000   0.00000  Uiso   1.00
O155   O     0.40130   0.85620   0.50000   0.00000  Uiso   1.00
H156   H     0.40912   0.96794   0.50000   0.00000  Uiso   1.00
H157   H     0.40898   0.91406   0.50000   0.00000  Uiso   1.00
H158   H     0.33189   0.81246   0.50000   0.00000  Uiso   1.00
H159   H     0.28128   0.76256   0.50000   0.00000  Uiso   1.00
H160   H     0.33341   0.70731   0.50000   0.00000  Uiso   1.00
C161   C     0.54510   0.56390   0.50000   0.00000  Uiso   1.00
C162   C     0.50960   0.54610   0.50000   0.00000  Uiso   1.00
C163   C     0.49180   0.56390   0.50000   0.00000  Uiso   1.00
C164   C     0.42650   0.60670   0.50000   0.00000  Uiso   1.00
C165   C     0.42640   0.63730   0.50000   0.00000  Uiso   1.00
C166   C     0.45720   0.66820   0.50000   0.00000  Uiso   1.00
C167   C     0.45720   0.69660   0.50000   0.00000  Uiso   1.00
C168   C     0.42630   0.69660   0.50000   0.00000  Uiso   1.00
C169   C     0.39550   0.66580   0.50000   0.00000  Uiso   1.00
C170   C     0.39550   0.63730   0.50000   0.00000  Uiso   1.00
O171   O     0.45490   0.59870   0.50000   0.00000  Uiso   1.00
H172   H     0.55882   0.59088   0.50000   0.00000  Uiso   1.00
H173   H     0.50508   0.59102   0.50000   0.00000  Uiso   1.00
H174   H     0.48058   0.66811   0.50000   0.00000  Uiso   1.00
H175   H     0.48127   0.71872   0.50000   0.00000  Uiso   1.00
H176   H     0.37391   0.66659   0.50000   0.00000  Uiso   1.00
C177   C     0.01880   0.45490   0.50000   0.00000  Uiso   1.00
C178   C     0.03650   0.49040   0.50000   0.00000  Uiso   1.00
C179   C     0.07210   0.50820   0.50000   0.00000  Uiso   1.00
C180   C     0.18020   0.57350   0.50000   0.00000  Uiso   1.00
C181   C     0.21090   0.57360   0.50000   0.00000  Uiso   1.00
C182   C     0.21100   0.54280   0.50000   0.00000  Uiso   1.00
C183   C     0.23940   0.54280   0.50000   0.00000  Uiso   1.00
C184   C     0.27030   0.57370   0.50000   0.00000  Uiso   1.00
C185   C     0.27030   0.60450   0.50000   0.00000  Uiso   1.00
C186   C     0.24180   0.60450   0.50000   0.00000  Uiso   1.00
O187   O     0.14380   0.54510   0.50000   0.00000  Uiso   1.00
H188   H     0.03206   0.44118   0.50000   0.00000  Uiso   1.00
H189   H     0.08594   0.49492   0.50000   0.00000  Uiso   1.00
H190   H     0.18754   0.51942   0.50000   0.00000  Uiso   1.00
H191   H     0.23744   0.51873   0.50000   0.00000  Uiso   1.00
H192   H     0.29269   0.62609   0.50000   0.00000  Uiso   1.00
C193   C     0.01650   0.50825   0.50000   0.00000  Uiso   1.00
C194   C     0.08760   0.54380   0.50000   0.00000  Uiso   1.00
B195   B     0.12130   0.56065   0.50000   0.00000  Uiso   1.00
C196   C     0.49175   0.50825   0.50000   0.00000  Uiso   1.00
C197   C     0.45620   0.54380   0.50000   0.00000  Uiso   1.00
B198   B     0.43935   0.56065   0.50000   0.00000  Uiso   1.00
C199   C     0.49175   0.98350   0.50000   0.00000  Uiso   1.00
C200   C     0.45620   0.91240   0.50000   0.00000  Uiso   1.00
B201   B     0.43935   0.87870   0.50000   0.00000  Uiso   1.00
C202   C     0.98350   0.49175   0.50000   0.00000  Uiso   1.00
C203   C     0.91240   0.45620   0.50000   0.00000  Uiso   1.00
B204   B     0.87870   0.43935   0.50000   0.00000  Uiso   1.00
C205   C     0.50825   0.49175   0.50000   0.00000  Uiso   1.00
C206   C     0.54380   0.45620   0.50000   0.00000  Uiso   1.00
B207   B     0.56065   0.43935   0.50000   0.00000  Uiso   1.00
C208   C     0.50825   0.01650   0.50000   0.00000  Uiso   1.00
C209   C     0.54380   0.08760   0.50000   0.00000  Uiso   1.00
B210   B     0.56065   0.12130   0.50000   0.00000  Uiso   1.00
loop_
_geom_bond_atom_site_label_1
_geom_bond_atom_site_label_2
_geom_bond_distance
_geom_bond_site_symmetry_2
_ccdc_geom_bond_type
C1     C2      1.424   .     D
C1     H12     1.082   .     S
C1     C129    1.509   1_455 S
C2     C3      1.428   .     S
C2     C193    1.519   .     S
C3     H13     1.088   .     S
C3     C194    1.432   .     D
C4     C5      1.420   .     S
C4     O11     1.535   .     S
C4     C180    1.538   .     D
C5     C6      1.429   .     D
C5     C10     1.432   .     S
C6     C7      1.316   .     S
C6     H14     1.085   .     S
C7     C8      1.432   .     D
C7     H15     1.073   .     S
C8     C9      1.427   .     S
C8     C152    1.534   .     S
C9     C10     1.320   .     D
C9     H16     1.019   .     S
C10    C186    1.520   .     S
O11    B195    1.535   .     S
C17    C18     1.424   .     D
C17    H28     1.082   .     S
C17    C113    1.509   .     S
C18    C19     1.428   .     S
C18    C196    1.519   .     S
C19    H29     1.088   .     S
C19    C197    1.432   .     D
C20    C21     1.420   .     S
C20    O27     1.535   .     S
C20    C164    1.538   .     D
C21    C22     1.429   .     D
C21    C26     1.432   .     S
C22    C23     1.316   .     S
C22    H30     1.085   .     S
C23    C24     1.432   .     D
C23    H31     1.073   .     S
C24    C25     1.427   .     S
C24    C184    1.534   .     S
C25    C26     1.320   .     D
C25    H32     1.019   .     S
C26    C170    1.520   .     S
O27    B198    1.535   .     S
C33    C34     1.424   .     S
C33    H44     1.082   .     S
C33    C97     1.509   1_565 D
C34    C35     1.428   .     D
C34    C199    1.519   .     S
C35    H45     1.088   .     S
C35    C200    1.432   .     S
C36    C37     1.420   .     S
C36    O43     1.535   .     S
C36    C148    1.538   .     D
C37    C38     1.429   .     S
C37    C42     1.432   .     D
C38    C39     1.316   .     D
C38    H46     1.085   .     S
C39    C40     1.432   .     S
C39    H47     1.073   .     S
C40    C41     1.427   .     D
C40    C168    1.534   .     S
C41    C42     1.320   .     S
C41    H48     1.019   .     S
C42    C154    1.520   .     S
O43    B201    1.535   .     S
C49    C50     1.424   .     S
C49    H60     1.082   .     S
C49    C177    1.509   1_655 D
C50    C51     1.428   .     D
C50    C202    1.519   .     S
C51    H61     1.088   .     S
C51    C203    1.432   .     S
C52    C53     1.420   .     S
C52    O59     1.535   .     S
C52    C132    1.538   .     D
C53    C54     1.429   .     D
C53    C58     1.432   .     S
C54    C55     1.316   .     S
C54    H62     1.085   .     S
C55    C56     1.432   .     D
C55    H63     1.073   .     S
C56    C57     1.427   .     S
C56    C104    1.534   .     S
C57    C58     1.320   .     D
C57    H64     1.019   .     S
C58    C138    1.520   .     S
O59    B204    1.535   .     S
C65    C66     1.424   .     S
C65    H76     1.082   .     S
C65    C161    1.509   .     D
C66    C67     1.428   .     D
C66    C205    1.519   .     S
C67    H77     1.088   .     S
C67    C206    1.432   .     S
C68    C69     1.420   .     S
C68    O75     1.535   .     S
C68    C116    1.538   .     D
C69    C70     1.429   .     D
C69    C74     1.432   .     S
C70    C71     1.316   .     S
C70    H78     1.085   .     S
C71    C72     1.432   .     D
C71    H79     1.073   .     S
C72    C73     1.427   .     S
C72    C136    1.534   .     S
C73    C74     1.320   .     D
C73    H80     1.019   .     S
C74    C122    1.520   .     S
O75    B207    1.535   .     S
C81    C82     1.424   .     D
C81    H92     1.082   .     S
C81    C145    1.509   1_545 S
C82    C83     1.428   .     S
C82    C208    1.519   .     S
C83    H93     1.088   .     S
C83    C209    1.432   .     D
C84    C85     1.420   .     S
C84    O91     1.535   .     S
C84    C100    1.538   .     D
C85    C86     1.429   .     S
C85    C90     1.432   .     D
C86    C87     1.316   .     D
C86    H94     1.085   .     S
C87    C88     1.432   .     S
C87    H95     1.073   .     S
C88    C89     1.427   .     D
C88    C120    1.534   .     S
C89    C90     1.320   .     S
C89    H96     1.019   .     S
C90    C106    1.520   .     S
O91    B210    1.535   .     S
C97    C33     1.509   1_545 D
C97    C98     1.424   .     S
C97    H108    1.082   .     S
C98    C99     1.428   .     D
C98    C208    1.519   .     S
C99    H109    1.088   .     S
C99    C209    1.432   .     S
C100   C101    1.420   .     S
C100   O107    1.535   .     S
C101   C102    1.429   .     D
C101   C106    1.432   .     S
C102   C103    1.316   .     S
C102   H110    1.085   .     S
C103   C104    1.432   .     D
C103   H111    1.073   .     S
C104   C105    1.427   .     S
C105   C106    1.320   .     D
C105   H112    1.019   .     S
O107   B210    1.535   .     S
C113   C114    1.424   .     D
C113   H124    1.082   .     S
C114   C115    1.428   .     S
C114   C205    1.519   .     S
C115   H125    1.088   .     S
C115   C206    1.432   .     D
C116   C117    1.420   .     S
C116   O123    1.535   .     S
C117   C118    1.429   .     S
C117   C122    1.432   .     D
C118   C119    1.316   .     D
C118   H126    1.085   .     S
C119   C120    1.432   .     S
C119   H127    1.073   .     S
C120   C121    1.427   .     D
C121   C122    1.320   .     S
C121   H128    1.019   .     S
O123   B207    1.535   .     S
C129   C1      1.509   1_655 S
C129   C130    1.424   .     D
C129   H140    1.082   .     S
C130   C131    1.428   .     S
C130   C202    1.519   .     S
C131   H141    1.088   .     S
C131   C203    1.432   .     D
C132   C133    1.420   .     S
C132   O139    1.535   .     S
C133   C134    1.429   .     D
C133   C138    1.432   .     S
C134   C135    1.316   .     S
C134   H142    1.085   .     S
C135   C136    1.432   .     D
C135   H143    1.073   .     S
C136   C137    1.427   .     S
C137   C138    1.320   .     D
C137   H144    1.019   .     S
O139   B204    1.535   .     S
C145   C81     1.509   1_565 S
C145   C146    1.424   .     D
C145   H156    1.082   .     S
C146   C147    1.428   .     S
C146   C199    1.519   .     S
C147   H157    1.088   .     S
C147   C200    1.432   .     D
C148   C149    1.420   .     S
C148   O155    1.535   .     S
C149   C150    1.429   .     D
C149   C154    1.432   .     S
C150   C151    1.316   .     S
C150   H158    1.085   .     S
C151   C152    1.432   .     D
C151   H159    1.073   .     S
C152   C153    1.427   .     S
C153   C154    1.320   .     D
C153   H160    1.019   .     S
O155   B201    1.535   .     S
C161   C162    1.424   .     S
C161   H172    1.082   .     S
C162   C163    1.428   .     D
C162   C196    1.519   .     S
C163   H173    1.088   .     S
C163   C197    1.432   .     S
C164   C165    1.420   .     S
C164   O171    1.535   .     S
C165   C166    1.429   .     S
C165   C170    1.432   .     D
C166   C167    1.316   .     D
C166   H174    1.085   .     S
C167   C168    1.432   .     S
C167   H175    1.073   .     S
C168   C169    1.427   .     D
C169   C170    1.320   .     S
C169   H176    1.019   .     S
O171   B198    1.535   .     S
C177   C49     1.509   1_455 D
C177   C178    1.424   .     S
C177   H188    1.082   .     S
C178   C179    1.428   .     D
C178   C193    1.519   .     S
C179   H189    1.088   .     S
C179   C194    1.432   .     S
C180   C181    1.420   .     S
C180   O187    1.535   .     S
C181   C182    1.429   .     D
C181   C186    1.432   .     S
C182   C183    1.316   .     S
C182   H190    1.085   .     S
C183   C184    1.432   .     D
C183   H191    1.073   .     S
C184   C185    1.427   .     S
C185   C186    1.320   .     D
C185   H192    1.019   .     S
O187   B195    1.535   .     S
C193   C202    1.324   1_455 D
C194   B195    1.352   .     S
C196   C205    1.324   .     D
C197   B198    1.352   .     S
C199   C208    1.324   1_565 D
C200   B201    1.352   .     S
C202   C193    1.324   1_655 D
C203   B204    1.352   .     S
C206   B207    1.352   .     S
C208   C199    1.324   1_545 D
C209   B210    1.352   .     S
