data_436
_audit_creation_date              2023-09-08
_audit_creation_method            'Materials Studio'
_symmetry_space_group_name_H-M    'P1'
_symmetry_Int_Tables_number       1
_symmetry_cell_setting            triclinic
loop_
_symmetry_equiv_pos_as_xyz
  x,y,z
_cell_length_a                    46.8300
_cell_length_b                    46.8300
_cell_length_c                    3.4100
_cell_angle_alpha                 90.0000
_cell_angle_beta                  90.0000
_cell_angle_gamma                 120.0000
loop_
_atom_site_label
_atom_site_type_symbol
_atom_site_fract_x
_atom_site_fract_y
_atom_site_fract_z
_atom_site_U_iso_or_equiv
_atom_site_adp_type
_atom_site_occupancy
C1     C     0.01640   0.50820   0.50000   0.00000  Uiso   1.00
C2     C     0.49180   0.50820   0.50000   0.00000  Uiso   1.00
C3     C     0.49180   0.98360   0.50000   0.00000  Uiso   1.00
C4     C     0.98360   0.49180   0.50000   0.00000  Uiso   1.00
C5     C     0.50820   0.49180   0.50000   0.00000  Uiso   1.00
C6     C     0.50820   0.01640   0.50000   0.00000  Uiso   1.00
C7     C     0.03600   0.54390   0.50000   0.00000  Uiso   1.00
C8     C     0.07150   0.56170   0.50000   0.00000  Uiso   1.00
C9     C     0.21040   0.63630   0.50000   0.00000  Uiso   1.00
C10    C     0.21040   0.66700   0.50000   0.00000  Uiso   1.00
C11    C     0.24110   0.69760   0.50000   0.00000  Uiso   1.00
C12    C     0.27170   0.69750   0.50000   0.00000  Uiso   1.00
C13    C     0.27170   0.66620   0.50000   0.00000  Uiso   1.00
C14    C     0.24110   0.63630   0.50000   0.00000  Uiso   1.00
C15    C     0.39305   0.57379   0.50000   0.00000  Uiso   1.00
O16    O     0.40108   0.54578   0.50000   0.00000  Uiso   1.00
H17    H     0.02519   0.55944   0.50000   0.00000  Uiso   1.00
H18    H     0.08428   0.58850   0.50000   0.00000  Uiso   1.00
H19    H     0.18727   0.66706   0.50000   0.00000  Uiso   1.00
H20    H     0.23842   0.71900   0.50000   0.00000  Uiso   1.00
H21    H     0.29347   0.66658   0.50000   0.00000  Uiso   1.00
C22    C     0.45610   0.49210   0.50000   0.00000  Uiso   1.00
C23    C     0.43830   0.50980   0.50000   0.00000  Uiso   1.00
C24    C     0.36370   0.57410   0.50000   0.00000  Uiso   1.00
C25    C     0.33300   0.54340   0.50000   0.00000  Uiso   1.00
C26    C     0.30240   0.54350   0.50000   0.00000  Uiso   1.00
C27    C     0.30250   0.57420   0.50000   0.00000  Uiso   1.00
C28    C     0.33380   0.60550   0.50000   0.00000  Uiso   1.00
C29    C     0.36370   0.60480   0.50000   0.00000  Uiso   1.00
C30    C     0.42621   0.81926   0.50000   0.00000  Uiso   1.00
O31    O     0.45422   0.85530   0.50000   0.00000  Uiso   1.00
H32    H     0.44056   0.46575   0.50000   0.00000  Uiso   1.00
H33    H     0.41150   0.49578   0.50000   0.00000  Uiso   1.00
H34    H     0.33294   0.52021   0.50000   0.00000  Uiso   1.00
H35    H     0.28100   0.51942   0.50000   0.00000  Uiso   1.00
H36    H     0.33342   0.62689   0.50000   0.00000  Uiso   1.00
C37    C     0.50790   0.96400   0.50000   0.00000  Uiso   1.00
C38    C     0.49020   0.92850   0.50000   0.00000  Uiso   1.00
C39    C     0.42590   0.78960   0.50000   0.00000  Uiso   1.00
C40    C     0.45660   0.78960   0.50000   0.00000  Uiso   1.00
C41    C     0.45650   0.75890   0.50000   0.00000  Uiso   1.00
C42    C     0.42580   0.72830   0.50000   0.00000  Uiso   1.00
C43    C     0.39450   0.72830   0.50000   0.00000  Uiso   1.00
C44    C     0.39520   0.75890   0.50000   0.00000  Uiso   1.00
C45    C     0.18074   0.60695   0.50000   0.00000  Uiso   1.00
O46    O     0.14470   0.59892   0.50000   0.00000  Uiso   1.00
H47    H     0.53425   0.97481   0.50000   0.00000  Uiso   1.00
H48    H     0.50422   0.91572   0.50000   0.00000  Uiso   1.00
H49    H     0.47979   0.81273   0.50000   0.00000  Uiso   1.00
H50    H     0.48058   0.76158   0.50000   0.00000  Uiso   1.00
H51    H     0.37311   0.70653   0.50000   0.00000  Uiso   1.00
C52    C     0.96400   0.45610   0.50000   0.00000  Uiso   1.00
C53    C     0.92850   0.43830   0.50000   0.00000  Uiso   1.00
C54    C     0.78960   0.36370   0.50000   0.00000  Uiso   1.00
C55    C     0.78960   0.33300   0.50000   0.00000  Uiso   1.00
C56    C     0.75890   0.30240   0.50000   0.00000  Uiso   1.00
C57    C     0.72830   0.30250   0.50000   0.00000  Uiso   1.00
C58    C     0.72830   0.33380   0.50000   0.00000  Uiso   1.00
C59    C     0.75890   0.36370   0.50000   0.00000  Uiso   1.00
C60    C     0.60695   0.42621   0.50000   0.00000  Uiso   1.00
O61    O     0.59892   0.45422   0.50000   0.00000  Uiso   1.00
H62    H     0.97481   0.44056   0.50000   0.00000  Uiso   1.00
H63    H     0.91572   0.41150   0.50000   0.00000  Uiso   1.00
H64    H     0.81273   0.33294   0.50000   0.00000  Uiso   1.00
H65    H     0.76158   0.28100   0.50000   0.00000  Uiso   1.00
H66    H     0.70653   0.33342   0.50000   0.00000  Uiso   1.00
C67    C     0.54390   0.50790   0.50000   0.00000  Uiso   1.00
C68    C     0.56170   0.49020   0.50000   0.00000  Uiso   1.00
C69    C     0.63630   0.42590   0.50000   0.00000  Uiso   1.00
C70    C     0.66700   0.45660   0.50000   0.00000  Uiso   1.00
C71    C     0.69760   0.45650   0.50000   0.00000  Uiso   1.00
C72    C     0.69750   0.42580   0.50000   0.00000  Uiso   1.00
C73    C     0.66620   0.39450   0.50000   0.00000  Uiso   1.00
C74    C     0.63630   0.39520   0.50000   0.00000  Uiso   1.00
C75    C     0.57379   0.18074   0.50000   0.00000  Uiso   1.00
O76    O     0.54578   0.14470   0.50000   0.00000  Uiso   1.00
H77    H     0.55944   0.53425   0.50000   0.00000  Uiso   1.00
H78    H     0.58850   0.50422   0.50000   0.00000  Uiso   1.00
H79    H     0.66706   0.47979   0.50000   0.00000  Uiso   1.00
H80    H     0.71900   0.48058   0.50000   0.00000  Uiso   1.00
H81    H     0.66658   0.37311   0.50000   0.00000  Uiso   1.00
C82    C     0.49210   0.03600   0.50000   0.00000  Uiso   1.00
C83    C     0.50980   0.07150   0.50000   0.00000  Uiso   1.00
C84    C     0.57410   0.21040   0.50000   0.00000  Uiso   1.00
C85    C     0.54340   0.21040   0.50000   0.00000  Uiso   1.00
C86    C     0.54350   0.24110   0.50000   0.00000  Uiso   1.00
C87    C     0.57420   0.27170   0.50000   0.00000  Uiso   1.00
C88    C     0.60550   0.27170   0.50000   0.00000  Uiso   1.00
C89    C     0.60480   0.24110   0.50000   0.00000  Uiso   1.00
C90    C     0.81926   0.39305   0.50000   0.00000  Uiso   1.00
O91    O     0.85530   0.40108   0.50000   0.00000  Uiso   1.00
H92    H     0.46575   0.02519   0.50000   0.00000  Uiso   1.00
H93    H     0.49578   0.08428   0.50000   0.00000  Uiso   1.00
H94    H     0.52021   0.18727   0.50000   0.00000  Uiso   1.00
H95    H     0.51942   0.23842   0.50000   0.00000  Uiso   1.00
H96    H     0.62689   0.29347   0.50000   0.00000  Uiso   1.00
C97    C     0.54390   0.03600   0.50000   0.00000  Uiso   1.00
C98    C     0.56170   0.07150   0.50000   0.00000  Uiso   1.00
C99    C     0.63630   0.21040   0.50000   0.00000  Uiso   1.00
C100   C     0.66700   0.21040   0.50000   0.00000  Uiso   1.00
C101   C     0.69760   0.24110   0.50000   0.00000  Uiso   1.00
C102   C     0.69750   0.27170   0.50000   0.00000  Uiso   1.00
C103   C     0.66620   0.27170   0.50000   0.00000  Uiso   1.00
C104   C     0.63630   0.24110   0.50000   0.00000  Uiso   1.00
C105   C     0.57379   0.39305   0.50000   0.00000  Uiso   1.00
O106   O     0.54578   0.40108   0.50000   0.00000  Uiso   1.00
H107   H     0.55944   0.02519   0.50000   0.00000  Uiso   1.00
H108   H     0.58850   0.08428   0.50000   0.00000  Uiso   1.00
H109   H     0.66706   0.18727   0.50000   0.00000  Uiso   1.00
H110   H     0.71900   0.23842   0.50000   0.00000  Uiso   1.00
H111   H     0.66658   0.29347   0.50000   0.00000  Uiso   1.00
C112   C     0.49210   0.45610   0.50000   0.00000  Uiso   1.00
C113   C     0.50980   0.43830   0.50000   0.00000  Uiso   1.00
C114   C     0.57410   0.36370   0.50000   0.00000  Uiso   1.00
C115   C     0.54340   0.33300   0.50000   0.00000  Uiso   1.00
C116   C     0.54350   0.30240   0.50000   0.00000  Uiso   1.00
C117   C     0.57420   0.30250   0.50000   0.00000  Uiso   1.00
C118   C     0.60550   0.33380   0.50000   0.00000  Uiso   1.00
C119   C     0.60480   0.36370   0.50000   0.00000  Uiso   1.00
C120   C     0.81926   0.42621   0.50000   0.00000  Uiso   1.00
O121   O     0.85530   0.45422   0.50000   0.00000  Uiso   1.00
H122   H     0.46575   0.44056   0.50000   0.00000  Uiso   1.00
H123   H     0.49578   0.41150   0.50000   0.00000  Uiso   1.00
H124   H     0.52021   0.33294   0.50000   0.00000  Uiso   1.00
H125   H     0.51942   0.28100   0.50000   0.00000  Uiso   1.00
H126   H     0.62689   0.33342   0.50000   0.00000  Uiso   1.00
C127   C     0.96400   0.50790   0.50000   0.00000  Uiso   1.00
C128   C     0.92850   0.49020   0.50000   0.00000  Uiso   1.00
C129   C     0.78960   0.42590   0.50000   0.00000  Uiso   1.00
C130   C     0.78960   0.45660   0.50000   0.00000  Uiso   1.00
C131   C     0.75890   0.45650   0.50000   0.00000  Uiso   1.00
C132   C     0.72830   0.42580   0.50000   0.00000  Uiso   1.00
C133   C     0.72830   0.39450   0.50000   0.00000  Uiso   1.00
C134   C     0.75890   0.39520   0.50000   0.00000  Uiso   1.00
C135   C     0.60695   0.18074   0.50000   0.00000  Uiso   1.00
O136   O     0.59892   0.14470   0.50000   0.00000  Uiso   1.00
H137   H     0.97481   0.53425   0.50000   0.00000  Uiso   1.00
H138   H     0.91572   0.50422   0.50000   0.00000  Uiso   1.00
H139   H     0.81273   0.47979   0.50000   0.00000  Uiso   1.00
H140   H     0.76158   0.48058   0.50000   0.00000  Uiso   1.00
H141   H     0.70653   0.37311   0.50000   0.00000  Uiso   1.00
C142   C     0.45610   0.96400   0.50000   0.00000  Uiso   1.00
C143   C     0.43830   0.92850   0.50000   0.00000  Uiso   1.00
C144   C     0.36370   0.78960   0.50000   0.00000  Uiso   1.00
C145   C     0.33300   0.78960   0.50000   0.00000  Uiso   1.00
C146   C     0.30240   0.75890   0.50000   0.00000  Uiso   1.00
C147   C     0.30250   0.72830   0.50000   0.00000  Uiso   1.00
C148   C     0.33380   0.72830   0.50000   0.00000  Uiso   1.00
C149   C     0.36370   0.75890   0.50000   0.00000  Uiso   1.00
C150   C     0.42621   0.60695   0.50000   0.00000  Uiso   1.00
O151   O     0.45422   0.59892   0.50000   0.00000  Uiso   1.00
H152   H     0.44056   0.97481   0.50000   0.00000  Uiso   1.00
H153   H     0.41150   0.91572   0.50000   0.00000  Uiso   1.00
H154   H     0.33294   0.81273   0.50000   0.00000  Uiso   1.00
H155   H     0.28100   0.76158   0.50000   0.00000  Uiso   1.00
H156   H     0.33342   0.70653   0.50000   0.00000  Uiso   1.00
C157   C     0.50790   0.54390   0.50000   0.00000  Uiso   1.00
C158   C     0.49020   0.56170   0.50000   0.00000  Uiso   1.00
C159   C     0.42590   0.63630   0.50000   0.00000  Uiso   1.00
C160   C     0.45660   0.66700   0.50000   0.00000  Uiso   1.00
C161   C     0.45650   0.69760   0.50000   0.00000  Uiso   1.00
C162   C     0.42580   0.69750   0.50000   0.00000  Uiso   1.00
C163   C     0.39450   0.66620   0.50000   0.00000  Uiso   1.00
C164   C     0.39520   0.63630   0.50000   0.00000  Uiso   1.00
C165   C     0.18074   0.57379   0.50000   0.00000  Uiso   1.00
O166   O     0.14470   0.54578   0.50000   0.00000  Uiso   1.00
H167   H     0.53425   0.55944   0.50000   0.00000  Uiso   1.00
H168   H     0.50422   0.58850   0.50000   0.00000  Uiso   1.00
H169   H     0.47979   0.66706   0.50000   0.00000  Uiso   1.00
H170   H     0.48058   0.71900   0.50000   0.00000  Uiso   1.00
H171   H     0.37311   0.66658   0.50000   0.00000  Uiso   1.00
C172   C     0.03600   0.49210   0.50000   0.00000  Uiso   1.00
C173   C     0.07150   0.50980   0.50000   0.00000  Uiso   1.00
C174   C     0.21040   0.57410   0.50000   0.00000  Uiso   1.00
C175   C     0.21040   0.54340   0.50000   0.00000  Uiso   1.00
C176   C     0.24110   0.54350   0.50000   0.00000  Uiso   1.00
C177   C     0.27170   0.57420   0.50000   0.00000  Uiso   1.00
C178   C     0.27170   0.60550   0.50000   0.00000  Uiso   1.00
C179   C     0.24110   0.60480   0.50000   0.00000  Uiso   1.00
C180   C     0.39305   0.81926   0.50000   0.00000  Uiso   1.00
O181   O     0.40108   0.85530   0.50000   0.00000  Uiso   1.00
H182   H     0.02519   0.46575   0.50000   0.00000  Uiso   1.00
H183   H     0.08428   0.49578   0.50000   0.00000  Uiso   1.00
H184   H     0.18727   0.52021   0.50000   0.00000  Uiso   1.00
H185   H     0.23842   0.51942   0.50000   0.00000  Uiso   1.00
H186   H     0.29347   0.62689   0.50000   0.00000  Uiso   1.00
C187   C     0.54460   0.45540   0.50000   0.00000  Uiso   1.00
B188   B     0.43873   0.56127   0.50000   0.00000  Uiso   1.00
C189   C     0.54460   0.08920   0.50000   0.00000  Uiso   1.00
B190   B     0.43873   0.87746   0.50000   0.00000  Uiso   1.00
C191   C     0.91080   0.45540   0.50000   0.00000  Uiso   1.00
B192   B     0.12254   0.56127   0.50000   0.00000  Uiso   1.00
C193   C     0.45540   0.54460   0.50000   0.00000  Uiso   1.00
B194   B     0.56127   0.43873   0.50000   0.00000  Uiso   1.00
C195   C     0.45540   0.91080   0.50000   0.00000  Uiso   1.00
B196   B     0.56127   0.12254   0.50000   0.00000  Uiso   1.00
C197   C     0.08920   0.54460   0.50000   0.00000  Uiso   1.00
B198   B     0.87746   0.43873   0.50000   0.00000  Uiso   1.00
loop_
_geom_bond_atom_site_label_1
_geom_bond_atom_site_label_2
_geom_bond_distance
_geom_bond_site_symmetry_2
_ccdc_geom_bond_type
C1     C4      1.330   1_455 S
C1     C7      1.450   .     D
C1     C172    1.450   .     S
C2     C5      1.330   .     S
C2     C22     1.450   .     S
C2     C157    1.450   .     D
C3     C6      1.330   1_565 S
C3     C37     1.450   .     S
C3     C142    1.450   .     D
C4     C1      1.330   1_655 S
C4     C52     1.450   .     D
C4     C127    1.450   .     S
C5     C67     1.450   .     D
C5     C112    1.450   .     S
C6     C3      1.330   1_545 S
C6     C82     1.450   .     D
C6     C97     1.450   .     S
C7     C8      1.440   .     S
C7     H17     1.074   .     S
C8     H18     1.087   .     S
C8     C197    1.411   .     D
C9     C10     1.438   .     D
C9     C14     1.438   .     S
C9     C45     1.382   .     S
C10    C11     1.435   .     S
C10    H19     1.085   .     S
C11    C12     1.435   .     D
C11    H20     1.071   .     S
C12    C13     1.466   .     S
C12    C147    1.442   .     S
C13    C14     1.417   .     D
C13    H21     1.011   .     S
C14    C179    1.475   .     S
C15    O16     1.535   .     S
C15    C24     1.382   .     S
C15    C150    1.553   .     D
O16    B188    1.535   .     S
C22    C23     1.440   .     D
C22    H32     1.074   .     S
C23    H33     1.087   .     S
C23    C193    1.411   .     S
C24    C25     1.438   .     D
C24    C29     1.438   .     S
C25    C26     1.435   .     S
C25    H34     1.085   .     S
C26    C27     1.435   .     D
C26    H35     1.071   .     S
C27    C28     1.466   .     S
C27    C177    1.442   .     S
C28    C29     1.417   .     D
C28    H36     1.011   .     S
C29    C164    1.475   .     S
C30    O31     1.535   .     S
C30    C39     1.382   .     S
C30    C180    1.553   .     D
O31    B190    1.535   .     S
C37    C38     1.440   .     D
C37    H47     1.074   .     S
C38    H48     1.087   .     S
C38    C195    1.411   .     S
C39    C40     1.438   .     D
C39    C44     1.438   .     S
C40    C41     1.435   .     S
C40    H49     1.085   .     S
C41    C42     1.435   .     D
C41    H50     1.071   .     S
C42    C43     1.466   .     S
C42    C162    1.442   .     S
C43    C44     1.417   .     D
C43    H51     1.011   .     S
C44    C149    1.475   .     S
C45    O46     1.535   .     S
C45    C165    1.553   .     D
O46    B192    1.535   .     S
C52    C53     1.440   .     S
C52    H62     1.074   .     S
C53    H63     1.087   .     S
C53    C191    1.411   .     D
C54    C55     1.438   .     D
C54    C59     1.438   .     S
C54    C90     1.382   .     S
C55    C56     1.435   .     S
C55    H64     1.085   .     S
C56    C57     1.435   .     D
C56    H65     1.071   .     S
C57    C58     1.466   .     S
C57    C102    1.442   .     S
C58    C59     1.417   .     D
C58    H66     1.011   .     S
C59    C134    1.475   .     S
C60    O61     1.535   .     S
C60    C69     1.382   .     S
C60    C105    1.553   .     D
O61    B194    1.535   .     S
C67    C68     1.440   .     S
C67    H77     1.074   .     S
C68    H78     1.087   .     S
C68    C187    1.411   .     D
C69    C70     1.438   .     S
C69    C74     1.438   .     D
C70    C71     1.435   .     D
C70    H79     1.085   .     S
C71    C72     1.435   .     S
C71    H80     1.071   .     S
C72    C73     1.466   .     D
C72    C132    1.442   .     S
C73    C74     1.417   .     S
C73    H81     1.011   .     S
C74    C119    1.475   .     S
C75    O76     1.535   .     S
C75    C84     1.382   .     S
C75    C135    1.553   .     D
O76    B196    1.535   .     S
C82    C83     1.440   .     S
C82    H92     1.074   .     S
C83    H93     1.087   .     S
C83    C189    1.411   .     D
C84    C85     1.438   .     D
C84    C89     1.438   .     S
C85    C86     1.435   .     S
C85    H94     1.085   .     S
C86    C87     1.435   .     D
C86    H95     1.071   .     S
C87    C88     1.466   .     S
C87    C117    1.442   .     S
C88    C89     1.417   .     D
C88    H96     1.011   .     S
C89    C104    1.475   .     S
C90    O91     1.535   .     S
C90    C120    1.553   .     D
O91    B198    1.535   .     S
C97    C98     1.440   .     D
C97    H107    1.074   .     S
C98    H108    1.087   .     S
C98    C189    1.411   .     S
C99    C100    1.438   .     D
C99    C104    1.438   .     S
C99    C135    1.382   .     S
C100   C101    1.435   .     S
C100   H109    1.085   .     S
C101   C102    1.435   .     D
C101   H110    1.071   .     S
C102   C103    1.466   .     S
C103   C104    1.417   .     D
C103   H111    1.011   .     S
C105   O106    1.535   .     S
C105   C114    1.382   .     S
O106   B194    1.535   .     S
C112   C113    1.440   .     D
C112   H122    1.074   .     S
C113   H123    1.087   .     S
C113   C187    1.411   .     S
C114   C115    1.438   .     D
C114   C119    1.438   .     S
C115   C116    1.435   .     S
C115   H124    1.085   .     S
C116   C117    1.435   .     D
C116   H125    1.071   .     S
C117   C118    1.466   .     S
C118   C119    1.417   .     D
C118   H126    1.011   .     S
C120   O121    1.535   .     S
C120   C129    1.382   .     S
O121   B198    1.535   .     S
C127   C128    1.440   .     D
C127   H137    1.074   .     S
C128   H138    1.087   .     S
C128   C191    1.411   .     S
C129   C130    1.438   .     D
C129   C134    1.438   .     S
C130   C131    1.435   .     S
C130   H139    1.085   .     S
C131   C132    1.435   .     D
C131   H140    1.071   .     S
C132   C133    1.466   .     S
C133   C134    1.417   .     D
C133   H141    1.011   .     S
C135   O136    1.535   .     S
O136   B196    1.535   .     S
C142   C143    1.440   .     S
C142   H152    1.074   .     S
C143   H153    1.087   .     S
C143   C195    1.411   .     D
C144   C145    1.438   .     D
C144   C149    1.438   .     S
C144   C180    1.382   .     S
C145   C146    1.435   .     S
C145   H154    1.085   .     S
C146   C147    1.435   .     D
C146   H155    1.071   .     S
C147   C148    1.466   .     S
C148   C149    1.417   .     D
C148   H156    1.011   .     S
C150   O151    1.535   .     S
C150   C159    1.382   .     S
O151   B188    1.535   .     S
C157   C158    1.440   .     S
C157   H167    1.074   .     S
C158   H168    1.087   .     S
C158   C193    1.411   .     D
C159   C160    1.438   .     D
C159   C164    1.438   .     S
C160   C161    1.435   .     S
C160   H169    1.085   .     S
C161   C162    1.435   .     D
C161   H170    1.071   .     S
C162   C163    1.466   .     S
C163   C164    1.417   .     D
C163   H171    1.011   .     S
C165   O166    1.535   .     S
C165   C174    1.382   .     S
O166   B192    1.535   .     S
C172   C173    1.440   .     D
C172   H182    1.074   .     S
C173   H183    1.087   .     S
C173   C197    1.411   .     S
C174   C175    1.438   .     S
C174   C179    1.438   .     D
C175   C176    1.435   .     D
C175   H184    1.085   .     S
C176   C177    1.435   .     S
C176   H185    1.071   .     S
C177   C178    1.466   .     D
C178   C179    1.417   .     S
C178   H186    1.011   .     S
C180   O181    1.535   .     S
O181   B190    1.535   .     S
C187   B194    1.352   .     S
B188   C193    1.352   .     S
C189   B196    1.352   .     S
B190   C195    1.352   .     S
C191   B198    1.352   .     S
B192   C197    1.352   .     S
