data_437
_audit_creation_date              2023-09-08
_audit_creation_method            'Materials Studio'
_symmetry_space_group_name_H-M    'P1'
_symmetry_Int_Tables_number       1
_symmetry_cell_setting            triclinic
loop_
_symmetry_equiv_pos_as_xyz
  x,y,z
_cell_length_a                    36.8750
_cell_length_b                    4.1044
_cell_length_c                    36.8750
_cell_angle_alpha                 90.0000
_cell_angle_beta                  120.0000
_cell_angle_gamma                 90.0000
loop_
_atom_site_label
_atom_site_type_symbol
_atom_site_fract_x
_atom_site_fract_y
_atom_site_fract_z
_atom_site_U_iso_or_equiv
_atom_site_adp_type
_atom_site_occupancy
C1     C     0.64714   0.52220   0.28875   0.00000  Uiso   1.00
C2     C     0.62235   0.52789   0.30785   0.00000  Uiso   1.00
C3     C     0.62793   0.51379   0.24240   0.00000  Uiso   1.00
C4     C     0.57751   0.31029   0.35324   0.00000  Uiso   1.00
C5     C     0.55424   0.27560   0.37342   0.00000  Uiso   1.00
C6     C     0.56830   0.41613   0.41279   0.00000  Uiso   1.00
C7     C     0.60555   0.59503   0.43170   0.00000  Uiso   1.00
C8     C     0.62871   0.63355   0.41138   0.00000  Uiso   1.00
N9     N     0.54629   0.35834   0.43490   0.00000  Uiso   1.00
C10    C     0.50736   0.52969   0.42430   0.00000  Uiso   1.00
C11    C     0.50276   0.57623   0.46305   0.00000  Uiso   1.00
C12    C     0.46334   0.61674   0.46025   0.00000  Uiso   1.00
C13    C     0.46106   0.60447   0.49729   0.00000  Uiso   1.00
O14    O     0.42775   0.66838   0.42043   0.00000  Uiso   1.00
C15    C     0.61009   0.77777   0.58186   0.00000  Uiso   1.00
H16    H     0.58862   0.53846   0.28898   0.00000  Uiso   1.00
H17    H     0.56674   0.18701   0.32363   0.00000  Uiso   1.00
H18    H     0.52599   0.12992   0.35901   0.00000  Uiso   1.00
H19    H     0.61663   0.70386   0.46221   0.00000  Uiso   1.00
H20    H     0.65710   0.77733   0.42643   0.00000  Uiso   1.00
H21    H     0.43098   0.61529   0.49555   0.00000  Uiso   1.00
H22    H     0.62366   0.58420   0.57122   0.00000  Uiso   1.00
H23    H     0.63319   0.83448   0.61496   0.00000  Uiso   1.00
H24    H     0.60441   1.00312   0.56308   0.00000  Uiso   1.00
H25    H     0.55650   0.16573   0.45631   0.00000  Uiso   1.00
C26    C     0.47218   0.34779   0.39070   0.00000  Uiso   1.00
N27    N     0.44449   0.20598   0.36416   0.00000  Uiso   1.00
H28    H     0.50794   0.77170   0.41163   0.00000  Uiso   1.00
C29    C     0.03487   0.55236   0.53997   0.00000  Uiso   1.00
C30    C     0.97801   0.73218   0.39203   0.00000  Uiso   1.00
H31    H     0.06213   0.56366   0.57085   0.00000  Uiso   1.00
H32    H     0.95381   0.53982   0.37709   0.00000  Uiso   1.00
H33    H     0.98984   0.79089   0.37043   0.00000  Uiso   1.00
H34    H     0.96433   0.95713   0.39702   0.00000  Uiso   1.00
C35    C     0.64120   0.50817   0.35159   0.00000  Uiso   1.00
C36    C     0.68500   0.48835   0.37560   0.00000  Uiso   1.00
C37    C     0.61523   0.48821   0.37206   0.00000  Uiso   1.00
C38    C     0.77482   0.26796   0.41839   0.00000  Uiso   1.00
C39    C     0.81825   0.23057   0.44088   0.00000  Uiso   1.00
C40    C     0.84306   0.36214   0.42564   0.00000  Uiso   1.00
C41    C     0.82400   0.52710   0.38730   0.00000  Uiso   1.00
C42    C     0.78046   0.56660   0.36476   0.00000  Uiso   1.00
N43    N     0.88744   0.31366   0.44799   0.00000  Uiso   1.00
C44    C     0.91479   0.48156   0.48762   0.00000  Uiso   1.00
C45    C     0.95922   0.52448   0.49476   0.00000  Uiso   1.00
C46    C     0.99447   0.56557   0.53520   0.00000  Uiso   1.00
O47    O     0.98784   0.61939   0.56930   0.00000  Uiso   1.00
H48    H     0.70002   0.47341   0.40933   0.00000  Uiso   1.00
H49    H     0.75659   0.15337   0.43045   0.00000  Uiso   1.00
H50    H     0.83240   0.09190   0.46969   0.00000  Uiso   1.00
H51    H     0.84294   0.62647   0.37507   0.00000  Uiso   1.00
H52    H     0.76644   0.69852   0.33539   0.00000  Uiso   1.00
H53    H     0.89939   0.12620   0.43780   0.00000  Uiso   1.00
C54    C     0.91427   0.30027   0.52183   0.00000  Uiso   1.00
N55    N     0.91379   0.15911   0.54876   0.00000  Uiso   1.00
H56    H     0.90167   0.72520   0.48647   0.00000  Uiso   1.00
C57    C     0.70912   0.47907   0.35584   0.00000  Uiso   1.00
N58    N     0.68948   0.49662   0.31331   0.00000  Uiso   1.00
C59    C     0.75535   0.43994   0.38022   0.00000  Uiso   1.00
C60    C     0.64900   0.35632   0.22435   0.00000  Uiso   1.00
C61    C     0.62981   0.31887   0.18093   0.00000  Uiso   1.00
C62    C     0.58937   0.43911   0.15487   0.00000  Uiso   1.00
C63    C     0.56870   0.60553   0.17233   0.00000  Uiso   1.00
C64    C     0.58796   0.64668   0.21569   0.00000  Uiso   1.00
N65    N     0.56792   0.36949   0.11101   0.00000  Uiso   1.00
C66    C     0.57733   0.54161   0.08188   0.00000  Uiso   1.00
C67    C     0.53771   0.58844   0.03911   0.00000  Uiso   1.00
C68    C     0.53915   0.62849   0.00175   0.00000  Uiso   1.00
O69    O     0.57839   0.67964   0.00462   0.00000  Uiso   1.00
H70    H     0.67969   0.25042   0.24386   0.00000  Uiso   1.00
H71    H     0.64580   0.18546   0.16773   0.00000  Uiso   1.00
H72    H     0.53749   0.70060   0.15229   0.00000  Uiso   1.00
H73    H     0.57131   0.78075   0.22809   0.00000  Uiso   1.00
H74    H     0.54634   0.17801   0.10028   0.00000  Uiso   1.00
C75    C     0.61024   0.35951   0.07908   0.00000  Uiso   1.00
N76    N     0.63626   0.21754   0.07698   0.00000  Uiso   1.00
H77    H     0.59031   0.78338   0.09498   0.00000  Uiso   1.00
C78    C     0.50137   0.61639   0.96304   0.00000  Uiso   1.00
C79    C     0.42061   0.78756   0.03167   0.00000  Uiso   1.00
H80    H     0.50208   0.62706   0.93416   0.00000  Uiso   1.00
H81    H     0.43192   0.59327   0.05582   0.00000  Uiso   1.00
H82    H     0.38774   0.84377   0.02267   0.00000  Uiso   1.00
H83    H     0.43948   1.01290   0.04441   0.00000  Uiso   1.00
C84    C     0.35286   0.52220   0.71125   0.00000  Uiso   1.00
C85    C     0.37765   0.52789   0.69215   0.00000  Uiso   1.00
C86    C     0.37207   0.51379   0.75760   0.00000  Uiso   1.00
C87    C     0.42249   0.31029   0.64676   0.00000  Uiso   1.00
C88    C     0.44576   0.27560   0.62658   0.00000  Uiso   1.00
C89    C     0.43170   0.41613   0.58721   0.00000  Uiso   1.00
C90    C     0.39445   0.59503   0.56830   0.00000  Uiso   1.00
C91    C     0.37129   0.63355   0.58862   0.00000  Uiso   1.00
N92    N     0.45371   0.35834   0.56510   0.00000  Uiso   1.00
C93    C     0.49264   0.52969   0.57570   0.00000  Uiso   1.00
C94    C     0.49724   0.57623   0.53695   0.00000  Uiso   1.00
C95    C     0.53666   0.61674   0.53975   0.00000  Uiso   1.00
C96    C     0.53894   0.60447   0.50271   0.00000  Uiso   1.00
O97    O     0.57225   0.66838   0.57957   0.00000  Uiso   1.00
C98    C     0.38991   0.77777   0.41814   0.00000  Uiso   1.00
H99    H     0.41138   0.53846   0.71102   0.00000  Uiso   1.00
H100   H     0.43326   0.18701   0.67637   0.00000  Uiso   1.00
H101   H     0.47401   0.12992   0.64099   0.00000  Uiso   1.00
H102   H     0.38337   0.70386   0.53779   0.00000  Uiso   1.00
H103   H     0.34290   0.77733   0.57357   0.00000  Uiso   1.00
H104   H     0.56902   0.61529   0.50445   0.00000  Uiso   1.00
H105   H     0.37634   0.58420   0.42878   0.00000  Uiso   1.00
H106   H     0.36681   0.83448   0.38504   0.00000  Uiso   1.00
H107   H     0.39559   1.00312   0.43692   0.00000  Uiso   1.00
H108   H     0.44350   0.16573   0.54369   0.00000  Uiso   1.00
C109   C     0.52782   0.34779   0.60930   0.00000  Uiso   1.00
N110   N     0.55551   0.20598   0.63584   0.00000  Uiso   1.00
H111   H     0.49206   0.77170   0.58837   0.00000  Uiso   1.00
C112   C     0.96513   0.55236   0.46003   0.00000  Uiso   1.00
C113   C     0.02199   0.73218   0.60797   0.00000  Uiso   1.00
H114   H     0.93787   0.56366   0.42915   0.00000  Uiso   1.00
H115   H     0.04619   0.53982   0.62291   0.00000  Uiso   1.00
H116   H     0.01016   0.79089   0.62957   0.00000  Uiso   1.00
H117   H     0.03567   0.95713   0.60298   0.00000  Uiso   1.00
C118   C     0.35880   0.50817   0.64841   0.00000  Uiso   1.00
C119   C     0.31500   0.48835   0.62440   0.00000  Uiso   1.00
C120   C     0.38477   0.48821   0.62794   0.00000  Uiso   1.00
C121   C     0.22518   0.26796   0.58161   0.00000  Uiso   1.00
C122   C     0.18175   0.23057   0.55912   0.00000  Uiso   1.00
C123   C     0.15694   0.36214   0.57436   0.00000  Uiso   1.00
C124   C     0.17600   0.52710   0.61270   0.00000  Uiso   1.00
C125   C     0.21954   0.56660   0.63524   0.00000  Uiso   1.00
N126   N     0.11256   0.31366   0.55201   0.00000  Uiso   1.00
C127   C     0.08521   0.48156   0.51238   0.00000  Uiso   1.00
C128   C     0.04078   0.52448   0.50524   0.00000  Uiso   1.00
C129   C     0.00553   0.56557   0.46480   0.00000  Uiso   1.00
O130   O     0.01216   0.61939   0.43070   0.00000  Uiso   1.00
H131   H     0.29998   0.47341   0.59067   0.00000  Uiso   1.00
H132   H     0.24341   0.15337   0.56955   0.00000  Uiso   1.00
H133   H     0.16760   0.09190   0.53031   0.00000  Uiso   1.00
H134   H     0.15706   0.62647   0.62493   0.00000  Uiso   1.00
H135   H     0.23356   0.69852   0.66461   0.00000  Uiso   1.00
H136   H     0.10061   0.12620   0.56220   0.00000  Uiso   1.00
C137   C     0.08573   0.30027   0.47817   0.00000  Uiso   1.00
N138   N     0.08621   0.15911   0.45124   0.00000  Uiso   1.00
H139   H     0.09833   0.72520   0.51353   0.00000  Uiso   1.00
C140   C     0.29088   0.47907   0.64416   0.00000  Uiso   1.00
N141   N     0.31052   0.49662   0.68669   0.00000  Uiso   1.00
C142   C     0.24465   0.43994   0.61978   0.00000  Uiso   1.00
C143   C     0.35100   0.35632   0.77565   0.00000  Uiso   1.00
C144   C     0.37019   0.31887   0.81907   0.00000  Uiso   1.00
C145   C     0.41063   0.43911   0.84513   0.00000  Uiso   1.00
C146   C     0.43130   0.60553   0.82767   0.00000  Uiso   1.00
C147   C     0.41204   0.64668   0.78431   0.00000  Uiso   1.00
N148   N     0.43208   0.36949   0.88899   0.00000  Uiso   1.00
C149   C     0.42267   0.54161   0.91812   0.00000  Uiso   1.00
C150   C     0.46229   0.58844   0.96089   0.00000  Uiso   1.00
C151   C     0.46085   0.62849   0.99825   0.00000  Uiso   1.00
O152   O     0.42161   0.67964   0.99538   0.00000  Uiso   1.00
H153   H     0.32031   0.25042   0.75614   0.00000  Uiso   1.00
H154   H     0.35420   0.18546   0.83227   0.00000  Uiso   1.00
H155   H     0.46251   0.70060   0.84771   0.00000  Uiso   1.00
H156   H     0.42869   0.78075   0.77191   0.00000  Uiso   1.00
H157   H     0.45366   0.17801   0.89972   0.00000  Uiso   1.00
C158   C     0.38976   0.35951   0.92092   0.00000  Uiso   1.00
N159   N     0.36374   0.21754   0.92302   0.00000  Uiso   1.00
H160   H     0.40969   0.78338   0.90502   0.00000  Uiso   1.00
C161   C     0.49863   0.61639   0.03696   0.00000  Uiso   1.00
C162   C     0.57939   0.78756   0.96833   0.00000  Uiso   1.00
H163   H     0.49792   0.62706   0.06584   0.00000  Uiso   1.00
H164   H     0.56808   0.59327   0.94418   0.00000  Uiso   1.00
H165   H     0.61226   0.84377   0.97733   0.00000  Uiso   1.00
H166   H     0.56052   1.01290   0.95559   0.00000  Uiso   1.00
loop_
_geom_bond_atom_site_label_1
_geom_bond_atom_site_label_2
_geom_bond_distance
_geom_bond_site_symmetry_2
_ccdc_geom_bond_type
C1     C2      1.406   .     D
C1     C3      1.488   .     S
C1     N58     1.362   .     S
C2     H16     1.081   .     S
C2     C35     1.404   .     S
C3     C60     1.408   .     D
C3     C64     1.410   .     S
C4     C5      1.396   .     S
C4     H17     1.083   .     S
C4     C37     1.409   .     D
C5     C6      1.399   .     D
C5     H18     1.082   .     S
C6     C7      1.398   .     S
C6     N9      1.429   .     S
C7     C8      1.398   .     D
C7     H19     1.083   .     S
C8     H20     1.082   .     S
C8     C37     1.409   .     S
N9     C10     1.465   .     S
N9     H25     1.045   .     S
C10    C11     1.533   .     S
C10    C26     1.472   .     S
C10    H28     1.102   .     S
C11    C12     1.415   .     S
C11    C96     1.407   .     D
C12    C13     1.411   .     D
C12    O14     1.413   .     S
C13    H21     1.079   .     S
C13    C94     1.407   .     S
O14    C98     1.428   .     S
C15    H22     1.110   .     S
C15    H23     1.109   .     S
C15    H24     1.111   .     S
C15    O97     1.428   .     S
C26    N27     1.158   .     T
C29    H31     1.079   .     S
C29    C46     1.411   1_455 S
C29    C128    1.407   .     D
C30    H32     1.110   .     S
C30    H33     1.109   .     S
C30    H34     1.111   .     S
C30    O130    1.428   1_655 S
C35    C36     1.403   .     D
C35    C37     1.489   .     S
C36    H48     1.081   .     S
C36    C57     1.404   .     S
C38    C39     1.396   .     S
C38    H49     1.082   .     S
C38    C59     1.409   .     D
C39    C40     1.399   .     D
C39    H50     1.082   .     S
C40    C41     1.399   .     S
C40    N43     1.431   .     S
C41    C42     1.400   .     D
C41    H51     1.083   .     S
C42    H52     1.083   .     S
C42    C59     1.407   .     S
N43    C44     1.468   .     S
N43    H53     1.045   .     S
C44    C45     1.534   .     S
C44    C54     1.473   .     S
C44    H56     1.102   .     S
C45    C46     1.415   .     D
C45    C112    1.407   .     S
C46    C29     1.411   1_655 S
C46    O47     1.413   .     S
O47    C113    1.428   1_655 S
C54    N55     1.157   .     T
C57    N58     1.361   .     D
C57    C59     1.486   .     S
C60    C61     1.398   .     S
C60    H70     1.083   .     S
C61    C62     1.399   .     D
C61    H71     1.082   .     S
C62    C63     1.397   .     S
C62    N65     1.430   .     S
C63    C64     1.398   .     D
C63    H72     1.083   .     S
C64    H73     1.081   .     S
N65    C66     1.465   .     S
N65    H74     1.045   .     S
C66    C67     1.534   .     S
C66    C75     1.472   .     S
C66    H77     1.103   .     S
C67    C68     1.415   .     D
C67    C161    1.408   .     S
C68    O69     1.413   .     S
C68    C78     1.411   1_554 S
O69    C162    1.427   1_554 S
C75    N76     1.158   .     T
C78    C68     1.411   1_556 S
C78    H80     1.079   .     S
C78    C150    1.408   .     D
C79    H81     1.110   .     S
C79    H82     1.109   .     S
C79    H83     1.111   .     S
C79    O152    1.427   1_554 S
C84    C85     1.406   .     D
C84    C86     1.488   .     S
C84    N141    1.362   .     S
C85    H99     1.081   .     S
C85    C118    1.404   .     S
C86    C143    1.408   .     D
C86    C147    1.410   .     S
C87    C88     1.396   .     S
C87    H100    1.083   .     S
C87    C120    1.409   .     D
C88    C89     1.399   .     D
C88    H101    1.082   .     S
C89    C90     1.398   .     S
C89    N92     1.429   .     S
C90    C91     1.398   .     D
C90    H102    1.083   .     S
C91    H103    1.082   .     S
C91    C120    1.409   .     S
N92    C93     1.465   .     S
N92    H108    1.045   .     S
C93    C94     1.533   .     S
C93    C109    1.472   .     S
C93    H111    1.102   .     S
C94    C95     1.415   .     D
C95    C96     1.411   .     S
C95    O97     1.413   .     S
C96    H104    1.079   .     S
C98    H105    1.110   .     S
C98    H106    1.109   .     S
C98    H107    1.111   .     S
C109   N110    1.158   .     T
C112   H114    1.079   .     S
C112   C129    1.411   1_655 D
C113   O47     1.428   1_455 S
C113   H115    1.110   .     S
C113   H116    1.109   .     S
C113   H117    1.111   .     S
C118   C119    1.403   .     D
C118   C120    1.489   .     S
C119   H131    1.081   .     S
C119   C140    1.404   .     S
C121   C122    1.396   .     D
C121   H132    1.082   .     S
C121   C142    1.409   .     S
C122   C123    1.399   .     S
C122   H133    1.082   .     S
C123   C124    1.399   .     D
C123   N126    1.431   .     S
C124   C125    1.400   .     S
C124   H134    1.083   .     S
C125   H135    1.083   .     S
C125   C142    1.407   .     D
N126   C127    1.468   .     S
N126   H136    1.045   .     S
C127   C128    1.534   .     S
C127   C137    1.473   .     S
C127   H139    1.102   .     S
C128   C129    1.415   .     S
C129   C112    1.411   1_455 D
C129   O130    1.413   .     S
O130   C30     1.428   1_455 S
C137   N138    1.157   .     T
C140   N141    1.361   .     D
C140   C142    1.486   .     S
C143   C144    1.398   .     S
C143   H153    1.083   .     S
C144   C145    1.399   .     D
C144   H154    1.082   .     S
C145   C146    1.397   .     S
C145   N148    1.430   .     S
C146   C147    1.398   .     D
C146   H155    1.083   .     S
C147   H156    1.081   .     S
N148   C149    1.465   .     S
N148   H157    1.045   .     S
C149   C150    1.534   .     S
C149   C158    1.472   .     S
C149   H160    1.103   .     S
C150   C151    1.415   .     S
C151   O152    1.413   .     S
C151   C161    1.411   1_556 D
O152   C79     1.427   1_556 S
C158   N159    1.158   .     T
C161   C151    1.411   1_554 D
C161   H163    1.079   .     S
C162   O69     1.427   1_556 S
C162   H164    1.110   .     S
C162   H165    1.109   .     S
C162   H166    1.111   .     S
