data_438
_audit_creation_date              2023-09-08
_audit_creation_method            'Materials Studio'
_symmetry_space_group_name_H-M    'P1'
_symmetry_Int_Tables_number       1
_symmetry_cell_setting            triclinic
loop_
_symmetry_equiv_pos_as_xyz
  x,y,z
_cell_length_a                    36.8750
_cell_length_b                    4.1044
_cell_length_c                    36.8750
_cell_angle_alpha                 90.0000
_cell_angle_beta                  120.0000
_cell_angle_gamma                 90.0000
loop_
_atom_site_label
_atom_site_type_symbol
_atom_site_fract_x
_atom_site_fract_y
_atom_site_fract_z
_atom_site_U_iso_or_equiv
_atom_site_adp_type
_atom_site_occupancy
C1     C     0.64484   0.59620   0.29053   0.00000  Uiso   1.00
C2     C     0.62054   0.55750   0.30985   0.00000  Uiso   1.00
C3     C     0.62507   0.64360   0.24459   0.00000  Uiso   1.00
C4     C     0.57659   0.23543   0.35082   0.00000  Uiso   1.00
C5     C     0.55353   0.15488   0.37020   0.00000  Uiso   1.00
C6     C     0.56806   0.24395   0.41184   0.00000  Uiso   1.00
C7     C     0.60560   0.41653   0.43395   0.00000  Uiso   1.00
C8     C     0.62846   0.50183   0.41448   0.00000  Uiso   1.00
N9     N     0.54559   0.14666   0.43229   0.00000  Uiso   1.00
C10    C     0.50679   0.30945   0.42384   0.00000  Uiso   1.00
C11    C     0.50314   0.32989   0.46319   0.00000  Uiso   1.00
C12    C     0.46382   0.34741   0.46072   0.00000  Uiso   1.00
C13    C     0.46075   0.34800   0.49697   0.00000  Uiso   1.00
H14    H     0.58678   0.57405   0.29157   0.00000  Uiso   1.00
H15    H     0.56538   0.15261   0.31910   0.00000  Uiso   1.00
H16    H     0.52495   0.01534   0.35315   0.00000  Uiso   1.00
H17    H     0.61700   0.48592   0.46620   0.00000  Uiso   1.00
H18    H     0.65706   0.64041   0.43204   0.00000  Uiso   1.00
H19    H     0.42990   0.35864   0.49364   0.00000  Uiso   1.00
H20    H     0.55731  -0.04849   0.45327   0.00000  Uiso   1.00
C21    C     0.47105   0.13817   0.38944   0.00000  Uiso   1.00
N22    N     0.44293   0.00431   0.36234   0.00000  Uiso   1.00
H23    H     0.50674   0.55961   0.41291   0.00000  Uiso   1.00
C24    C     0.03447   0.42259   0.54048   0.00000  Uiso   1.00
H25    H     0.06052   0.43702   0.57220   0.00000  Uiso   1.00
C26    C     0.63988   0.48244   0.35269   0.00000  Uiso   1.00
C27    C     0.68367   0.45759   0.37575   0.00000  Uiso   1.00
C28    C     0.61443   0.40958   0.37275   0.00000  Uiso   1.00
C29    C     0.77755   0.57074   0.42005   0.00000  Uiso   1.00
C30    C     0.82069   0.51464   0.44240   0.00000  Uiso   1.00
C31    C     0.84022   0.33793   0.42414   0.00000  Uiso   1.00
C32    C     0.81576   0.22479   0.38292   0.00000  Uiso   1.00
C33    C     0.77269   0.28477   0.36036   0.00000  Uiso   1.00
N34    N     0.88420   0.25994   0.44705   0.00000  Uiso   1.00
C35    C     0.91440   0.41157   0.48701   0.00000  Uiso   1.00
C36    C     0.95875   0.40782   0.49380   0.00000  Uiso   1.00
C37    C     0.99392   0.42163   0.53440   0.00000  Uiso   1.00
H38    H     0.69921   0.38832   0.40846   0.00000  Uiso   1.00
H39    H     0.76331   0.70702   0.43484   0.00000  Uiso   1.00
H40    H     0.83830   0.60540   0.47409   0.00000  Uiso   1.00
H41    H     0.83007   0.08680   0.36833   0.00000  Uiso   1.00
H42    H     0.75446   0.19047   0.32880   0.00000  Uiso   1.00
H43    H     0.89444   0.06767   0.43579   0.00000  Uiso   1.00
C44    C     0.91181   0.24727   0.52117   0.00000  Uiso   1.00
N45    N     0.90969   0.11868   0.54799   0.00000  Uiso   1.00
H46    H     0.90592   0.66925   0.48676   0.00000  Uiso   1.00
C47    C     0.70719   0.49939   0.35577   0.00000  Uiso   1.00
N48    N     0.68718   0.56244   0.31396   0.00000  Uiso   1.00
C49    C     0.75311   0.45378   0.37896   0.00000  Uiso   1.00
C50    C     0.64439   0.51406   0.22316   0.00000  Uiso   1.00
C51    C     0.62437   0.52738   0.17951   0.00000  Uiso   1.00
C52    C     0.58488   0.67288   0.15655   0.00000  Uiso   1.00
C53    C     0.56606   0.81232   0.17767   0.00000  Uiso   1.00
C54    C     0.58614   0.80141   0.22138   0.00000  Uiso   1.00
N55    N     0.56182   0.64900   0.11186   0.00000  Uiso   1.00
C56    C     0.57320   0.83183   0.08484   0.00000  Uiso   1.00
C57    C     0.53550   0.87266   0.04088   0.00000  Uiso   1.00
C58    C     0.54020   0.89395   0.00531   0.00000  Uiso   1.00
H59    H     0.67418   0.38913   0.24002   0.00000  Uiso   1.00
H60    H     0.63891   0.41128   0.16365   0.00000  Uiso   1.00
H61    H     0.53553   0.92531   0.16015   0.00000  Uiso   1.00
H62    H     0.57091   0.91359   0.23682   0.00000  Uiso   1.00
H63    H     0.53813   0.47350   0.09892   0.00000  Uiso   1.00
C64    C     0.60828   0.66566   0.08416   0.00000  Uiso   1.00
N65    N     0.63584   0.53553   0.08360   0.00000  Uiso   1.00
H66    H     0.58434   1.07572   0.09846   0.00000  Uiso   1.00
C67    C     0.50521   0.89587   0.96507   0.00000  Uiso   1.00
H68    H     0.51019   0.90561   0.93854   0.00000  Uiso   1.00
H69    H     0.43523   0.35656   0.43070   0.00000  Uiso   1.00
H70    H     0.99021   0.43371   0.56169   0.00000  Uiso   1.00
H71    H     0.57095   0.90134   0.00839   0.00000  Uiso   1.00
C72    C     0.35516   0.59620   0.70947   0.00000  Uiso   1.00
C73    C     0.37946   0.55750   0.69015   0.00000  Uiso   1.00
C74    C     0.37493   0.64360   0.75541   0.00000  Uiso   1.00
C75    C     0.42341   0.23543   0.64918   0.00000  Uiso   1.00
C76    C     0.44647   0.15488   0.62980   0.00000  Uiso   1.00
C77    C     0.43194   0.24395   0.58816   0.00000  Uiso   1.00
C78    C     0.39440   0.41653   0.56605   0.00000  Uiso   1.00
C79    C     0.37154   0.50183   0.58552   0.00000  Uiso   1.00
N80    N     0.45441   0.14666   0.56771   0.00000  Uiso   1.00
C81    C     0.49321   0.30945   0.57616   0.00000  Uiso   1.00
C82    C     0.49686   0.32989   0.53681   0.00000  Uiso   1.00
C83    C     0.53618   0.34741   0.53928   0.00000  Uiso   1.00
C84    C     0.53925   0.34800   0.50303   0.00000  Uiso   1.00
H85    H     0.41322   0.57405   0.70843   0.00000  Uiso   1.00
H86    H     0.43462   0.15261   0.68090   0.00000  Uiso   1.00
H87    H     0.47505   0.01534   0.64685   0.00000  Uiso   1.00
H88    H     0.38300   0.48592   0.53380   0.00000  Uiso   1.00
H89    H     0.34294   0.64041   0.56796   0.00000  Uiso   1.00
H90    H     0.57010   0.35864   0.50636   0.00000  Uiso   1.00
H91    H     0.44269  -0.04849   0.54673   0.00000  Uiso   1.00
C92    C     0.52895   0.13817   0.61056   0.00000  Uiso   1.00
N93    N     0.55707   0.00431   0.63766   0.00000  Uiso   1.00
H94    H     0.49326   0.55961   0.58709   0.00000  Uiso   1.00
C95    C     0.96553   0.42259   0.45952   0.00000  Uiso   1.00
H96    H     0.93948   0.43702   0.42780   0.00000  Uiso   1.00
C97    C     0.36012   0.48244   0.64731   0.00000  Uiso   1.00
C98    C     0.31633   0.45759   0.62425   0.00000  Uiso   1.00
C99    C     0.38557   0.40958   0.62725   0.00000  Uiso   1.00
C100   C     0.22245   0.57074   0.57995   0.00000  Uiso   1.00
C101   C     0.17931   0.51464   0.55760   0.00000  Uiso   1.00
C102   C     0.15978   0.33793   0.57586   0.00000  Uiso   1.00
C103   C     0.18424   0.22479   0.61708   0.00000  Uiso   1.00
C104   C     0.22731   0.28477   0.63964   0.00000  Uiso   1.00
N105   N     0.11580   0.25994   0.55295   0.00000  Uiso   1.00
C106   C     0.08560   0.41157   0.51299   0.00000  Uiso   1.00
C107   C     0.04125   0.40782   0.50620   0.00000  Uiso   1.00
C108   C     0.00608   0.42163   0.46560   0.00000  Uiso   1.00
H109   H     0.30079   0.38832   0.59154   0.00000  Uiso   1.00
H110   H     0.23669   0.70702   0.56516   0.00000  Uiso   1.00
H111   H     0.16170   0.60540   0.52591   0.00000  Uiso   1.00
H112   H     0.16993   0.08680   0.63167   0.00000  Uiso   1.00
H113   H     0.24554   0.19047   0.67120   0.00000  Uiso   1.00
H114   H     0.10556   0.06767   0.56421   0.00000  Uiso   1.00
C115   C     0.08819   0.24727   0.47883   0.00000  Uiso   1.00
N116   N     0.09031   0.11868   0.45201   0.00000  Uiso   1.00
H117   H     0.09408   0.66925   0.51324   0.00000  Uiso   1.00
C118   C     0.29281   0.49939   0.64423   0.00000  Uiso   1.00
N119   N     0.31282   0.56244   0.68604   0.00000  Uiso   1.00
C120   C     0.24689   0.45378   0.62104   0.00000  Uiso   1.00
C121   C     0.35561   0.51406   0.77684   0.00000  Uiso   1.00
C122   C     0.37563   0.52738   0.82049   0.00000  Uiso   1.00
C123   C     0.41512   0.67288   0.84345   0.00000  Uiso   1.00
C124   C     0.43394   0.81232   0.82233   0.00000  Uiso   1.00
C125   C     0.41386   0.80141   0.77862   0.00000  Uiso   1.00
N126   N     0.43818   0.64900   0.88814   0.00000  Uiso   1.00
C127   C     0.42680   0.83183   0.91516   0.00000  Uiso   1.00
C128   C     0.46450   0.87266   0.95912   0.00000  Uiso   1.00
C129   C     0.45980   0.89395   0.99469   0.00000  Uiso   1.00
H130   H     0.32582   0.38913   0.75998   0.00000  Uiso   1.00
H131   H     0.36109   0.41128   0.83635   0.00000  Uiso   1.00
H132   H     0.46447   0.92531   0.83985   0.00000  Uiso   1.00
H133   H     0.42909   0.91359   0.76318   0.00000  Uiso   1.00
H134   H     0.46187   0.47350   0.90108   0.00000  Uiso   1.00
C135   C     0.39172   0.66566   0.91584   0.00000  Uiso   1.00
N136   N     0.36416   0.53553   0.91640   0.00000  Uiso   1.00
H137   H     0.41566   1.07572   0.90154   0.00000  Uiso   1.00
C138   C     0.49479   0.89587   0.03493   0.00000  Uiso   1.00
H139   H     0.48981   0.90561   0.06146   0.00000  Uiso   1.00
H140   H     0.56477   0.35656   0.56930   0.00000  Uiso   1.00
H141   H     0.00979   0.43371   0.43831   0.00000  Uiso   1.00
H142   H     0.42905   0.90134   0.99161   0.00000  Uiso   1.00
loop_
_geom_bond_atom_site_label_1
_geom_bond_atom_site_label_2
_geom_bond_distance
_geom_bond_site_symmetry_2
_ccdc_geom_bond_type
C1     C2      1.405   .     D
C1     C3      1.485   .     S
C1     N48     1.362   .     S
C2     H14     1.081   .     S
C2     C26     1.404   .     S
C3     C50     1.406   .     D
C3     C54     1.409   .     S
C4     C5      1.397   .     S
C4     H15     1.082   .     S
C4     C28     1.408   .     D
C5     C6      1.398   .     D
C5     H16     1.082   .     S
C6     C7      1.398   .     S
C6     N9      1.428   .     S
C7     C8      1.398   .     D
C7     H17     1.083   .     S
C8     H18     1.083   .     S
C8     C28     1.408   .     S
N9     C10     1.464   .     S
N9     H20     1.045   .     S
C10    C11     1.525   .     S
C10    C21     1.473   .     S
C10    H23     1.103   .     S
C11    C12     1.408   .     S
C11    C84     1.407   .     D
C12    C13     1.397   .     D
C12    H69     1.082   .     S
C13    H19     1.082   .     S
C13    C82     1.407   .     S
C21    N22     1.157   .     T
C24    H25     1.082   .     S
C24    C37     1.397   1_455 S
C24    C107    1.407   .     D
C26    C27     1.403   .     D
C26    C28     1.487   .     S
C27    H38     1.083   .     S
C27    C47     1.401   .     S
C29    C30     1.397   .     S
C29    H39     1.083   .     S
C29    C49     1.405   .     D
C30    C31     1.408   .     D
C30    H40     1.080   .     S
C31    C32     1.403   .     S
C31    N34     1.441   .     S
C32    C33     1.398   .     D
C32    H41     1.083   .     S
C33    H42     1.083   .     S
C33    C49     1.403   .     S
N34    C35     1.469   .     S
N34    H43     1.046   .     S
C35    C36     1.526   .     S
C35    C44     1.473   .     S
C35    H46     1.102   .     S
C36    C37     1.409   .     D
C36    C95     1.407   .     S
C37    C24     1.397   1_655 S
C37    H70     1.082   .     S
C44    N45     1.158   .     T
C47    N48     1.360   .     D
C47    C49     1.478   .     S
C50    C51     1.397   .     S
C50    H59     1.083   .     S
C51    C52     1.400   .     D
C51    H60     1.082   .     S
C52    C53     1.399   .     S
C52    N55     1.431   .     S
C53    C54     1.398   .     D
C53    H61     1.083   .     S
C54    H62     1.082   .     S
N55    C56     1.466   .     S
N55    H63     1.045   .     S
C56    C57     1.528   .     S
C56    C64     1.474   .     S
C56    H66     1.103   .     S
C57    C58     1.409   .     D
C57    C138    1.408   .     S
C58    C67     1.397   1_554 S
C58    H71     1.082   .     S
C64    N65     1.157   .     T
C67    C58     1.397   1_556 S
C67    H68     1.083   .     S
C67    C128    1.408   .     D
C72    C73     1.405   .     D
C72    C74     1.485   .     S
C72    N119    1.362   .     S
C73    H85     1.081   .     S
C73    C97     1.404   .     S
C74    C121    1.406   .     D
C74    C125    1.409   .     S
C75    C76     1.397   .     S
C75    H86     1.082   .     S
C75    C99     1.408   .     D
C76    C77     1.398   .     D
C76    H87     1.082   .     S
C77    C78     1.398   .     S
C77    N80     1.428   .     S
C78    C79     1.398   .     D
C78    H88     1.083   .     S
C79    H89     1.083   .     S
C79    C99     1.408   .     S
N80    C81     1.464   .     S
N80    H91     1.045   .     S
C81    C82     1.525   .     S
C81    C92     1.473   .     S
C81    H94     1.103   .     S
C82    C83     1.408   .     D
C83    C84     1.397   .     S
C83    H140    1.082   .     S
C84    H90     1.082   .     S
C92    N93     1.157   .     T
C95    H96     1.082   .     S
C95    C108    1.397   1_655 D
C97    C98     1.403   .     D
C97    C99     1.487   .     S
C98    H109    1.083   .     S
C98    C118    1.401   .     S
C100   C101    1.397   .     D
C100   H110    1.083   .     S
C100   C120    1.405   .     S
C101   C102    1.408   .     S
C101   H111    1.080   .     S
C102   C103    1.403   .     D
C102   N105    1.441   .     S
C103   C104    1.398   .     S
C103   H112    1.083   .     S
C104   H113    1.083   .     S
C104   C120    1.403   .     D
N105   C106    1.469   .     S
N105   H114    1.046   .     S
C106   C107    1.526   .     S
C106   C115    1.473   .     S
C106   H117    1.102   .     S
C107   C108    1.409   .     S
C108   C95     1.397   1_455 D
C108   H141    1.082   .     S
C115   N116    1.158   .     T
C118   N119    1.360   .     D
C118   C120    1.478   .     S
C121   C122    1.397   .     S
C121   H130    1.083   .     S
C122   C123    1.400   .     D
C122   H131    1.082   .     S
C123   C124    1.399   .     S
C123   N126    1.431   .     S
C124   C125    1.398   .     D
C124   H132    1.083   .     S
C125   H133    1.082   .     S
N126   C127    1.466   .     S
N126   H134    1.045   .     S
C127   C128    1.528   .     S
C127   C135    1.474   .     S
C127   H137    1.103   .     S
C128   C129    1.409   .     S
C129   C138    1.397   1_556 D
C129   H142    1.082   .     S
C135   N136    1.157   .     T
C138   C129    1.397   1_554 D
C138   H139    1.083   .     S
