data_439
_audit_creation_date              2023-09-08
_audit_creation_method            'Materials Studio'
_symmetry_space_group_name_H-M    'P1'
_symmetry_Int_Tables_number       1
_symmetry_cell_setting            triclinic
loop_
_symmetry_equiv_pos_as_xyz
  x,y,z
_cell_length_a                    36.8750
_cell_length_b                    36.8750
_cell_length_c                    4.1044
_cell_angle_alpha                 90.0000
_cell_angle_beta                  90.0000
_cell_angle_gamma                 120.0000
loop_
_atom_site_label
_atom_site_type_symbol
_atom_site_fract_x
_atom_site_fract_y
_atom_site_fract_z
_atom_site_U_iso_or_equiv
_atom_site_adp_type
_atom_site_occupancy
C1     C     0.28919   0.64733   0.49999   0.00000  Uiso   1.00
C2     C     0.30881   0.62302   0.50211   0.00000  Uiso   1.00
C3     C     0.24273   0.62690   0.47636   0.00000  Uiso   1.00
C4     C     0.35460   0.57866   0.29133   0.00000  Uiso   1.00
C5     C     0.37457   0.55519   0.25642   0.00000  Uiso   1.00
C6     C     0.41349   0.56860   0.40248   0.00000  Uiso   1.00
C7     C     0.43217   0.60534   0.58737   0.00000  Uiso   1.00
C8     C     0.41199   0.62860   0.62719   0.00000  Uiso   1.00
N9     N     0.43532   0.54633   0.34575   0.00000  Uiso   1.00
C10    C     0.42445   0.50746   0.51884   0.00000  Uiso   1.00
C11    C     0.46310   0.50280   0.56825   0.00000  Uiso   1.00
C12    C     0.46022   0.46336   0.60924   0.00000  Uiso   1.00
C13    C     0.49723   0.46103   0.59696   0.00000  Uiso   1.00
O14    O     0.42038   0.42781   0.66059   0.00000  Uiso   1.00
C15    C     0.58195   0.60997   0.77213   0.00000  Uiso   1.00
H16    H     0.28985   0.58925   0.49766   0.00000  Uiso   1.00
H17    H     0.32545   0.56842   0.16268   0.00000  Uiso   1.00
H18    H     0.36036   0.52732   0.10638   0.00000  Uiso   1.00
H19    H     0.46233   0.61587   0.70080   0.00000  Uiso   1.00
H20    H     0.42679   0.65643   0.77749   0.00000  Uiso   1.00
H21    H     0.49543   0.43092   0.60726   0.00000  Uiso   1.00
H22    H     0.57132   0.62369   0.57980   0.00000  Uiso   1.00
H23    H     0.61507   0.63300   0.82892   0.00000  Uiso   1.00
H24    H     0.56322   0.60415   0.99786   0.00000  Uiso   1.00
H25    H     0.45648   0.55611   0.15168   0.00000  Uiso   1.00
C26    C     0.39092   0.47227   0.33654   0.00000  Uiso   1.00
N27    N     0.36440   0.44457   0.19459   0.00000  Uiso   1.00
H28    H     0.41161   0.50817   0.75977   0.00000  Uiso   1.00
C29    C     0.35267   0.64186   0.49999   0.00000  Uiso   1.00
C30    C     0.37698   0.68579   0.50211   0.00000  Uiso   1.00
C31    C     0.37310   0.61583   0.47636   0.00000  Uiso   1.00
C32    C     0.42134   0.77594   0.29133   0.00000  Uiso   1.00
C33    C     0.44481   0.81938   0.25642   0.00000  Uiso   1.00
C34    C     0.43140   0.84489   0.40248   0.00000  Uiso   1.00
C35    C     0.39466   0.82683   0.58737   0.00000  Uiso   1.00
C36    C     0.37140   0.78339   0.62719   0.00000  Uiso   1.00
N37    N     0.45367   0.88899   0.34575   0.00000  Uiso   1.00
C38    C     0.49254   0.91699   0.51884   0.00000  Uiso   1.00
C39    C     0.49720   0.96030   0.56825   0.00000  Uiso   1.00
C40    C     0.53664   0.99686   0.60924   0.00000  Uiso   1.00
C41    C     0.53897   0.03620   0.59696   0.00000  Uiso   1.00
O42    O     0.57219   0.99257   0.66059   0.00000  Uiso   1.00
C43    C     0.39003   0.97198   0.77213   0.00000  Uiso   1.00
H44    H     0.41075   0.70060   0.49766   0.00000  Uiso   1.00
H45    H     0.43158   0.75703   0.16268   0.00000  Uiso   1.00
H46    H     0.47268   0.83304   0.10638   0.00000  Uiso   1.00
H47    H     0.38413   0.84646   0.70080   0.00000  Uiso   1.00
H48    H     0.34357   0.77036   0.77749   0.00000  Uiso   1.00
H49    H     0.56908   0.06451   0.60726   0.00000  Uiso   1.00
H50    H     0.37631   0.94763   0.57980   0.00000  Uiso   1.00
H51    H     0.36700   0.98207   0.82892   0.00000  Uiso   1.00
H52    H     0.39585   0.95907   0.99786   0.00000  Uiso   1.00
H53    H     0.44389   0.90037   0.15168   0.00000  Uiso   1.00
C54    C     0.52773   0.91865   0.33654   0.00000  Uiso   1.00
N55    N     0.55543   0.91983   0.19459   0.00000  Uiso   1.00
H56    H     0.49183   0.90344   0.75977   0.00000  Uiso   1.00
C57    C     0.35814   0.71081   0.49999   0.00000  Uiso   1.00
C58    C     0.31421   0.69119   0.50211   0.00000  Uiso   1.00
C59    C     0.38417   0.75727   0.47636   0.00000  Uiso   1.00
C60    C     0.22406   0.64540   0.29133   0.00000  Uiso   1.00
C61    C     0.18062   0.62543   0.25642   0.00000  Uiso   1.00
C62    C     0.15511   0.58651   0.40248   0.00000  Uiso   1.00
C63    C     0.17317   0.56783   0.58737   0.00000  Uiso   1.00
C64    C     0.21661   0.58801   0.62719   0.00000  Uiso   1.00
N65    N     0.11101   0.56468   0.34575   0.00000  Uiso   1.00
C66    C     0.08301   0.57555   0.51884   0.00000  Uiso   1.00
C67    C     0.03970   0.53690   0.56825   0.00000  Uiso   1.00
C68    C     0.00314   0.53978   0.60924   0.00000  Uiso   1.00
C69    C     0.96380   0.50277   0.59696   0.00000  Uiso   1.00
O70    O     0.00743   0.57962   0.66059   0.00000  Uiso   1.00
C71    C     0.02802   0.41805   0.77213   0.00000  Uiso   1.00
H72    H     0.29940   0.71015   0.49766   0.00000  Uiso   1.00
H73    H     0.24297   0.67455   0.16268   0.00000  Uiso   1.00
H74    H     0.16696   0.63964   0.10638   0.00000  Uiso   1.00
H75    H     0.15354   0.53767   0.70080   0.00000  Uiso   1.00
H76    H     0.22964   0.57321   0.77749   0.00000  Uiso   1.00
H77    H     0.93549   0.50457   0.60726   0.00000  Uiso   1.00
H78    H     0.05237   0.42868   0.57980   0.00000  Uiso   1.00
H79    H     0.01793   0.38493   0.82892   0.00000  Uiso   1.00
H80    H     0.04093   0.43678   0.99786   0.00000  Uiso   1.00
H81    H     0.09963   0.54352   0.15168   0.00000  Uiso   1.00
C82    C     0.08135   0.60908   0.33654   0.00000  Uiso   1.00
N83    N     0.08017   0.63560   0.19459   0.00000  Uiso   1.00
H84    H     0.09656   0.58839   0.75977   0.00000  Uiso   1.00
C85    C     0.71081   0.35267   0.49999   0.00000  Uiso   1.00
C86    C     0.69119   0.37698   0.50211   0.00000  Uiso   1.00
C87    C     0.75727   0.37310   0.47636   0.00000  Uiso   1.00
C88    C     0.64540   0.42134   0.29133   0.00000  Uiso   1.00
C89    C     0.62543   0.44481   0.25642   0.00000  Uiso   1.00
C90    C     0.58651   0.43140   0.40248   0.00000  Uiso   1.00
C91    C     0.56783   0.39466   0.58737   0.00000  Uiso   1.00
C92    C     0.58801   0.37140   0.62719   0.00000  Uiso   1.00
N93    N     0.56468   0.45367   0.34575   0.00000  Uiso   1.00
C94    C     0.57555   0.49254   0.51884   0.00000  Uiso   1.00
C95    C     0.53690   0.49720   0.56825   0.00000  Uiso   1.00
C96    C     0.53978   0.53664   0.60924   0.00000  Uiso   1.00
C97    C     0.50277   0.53897   0.59696   0.00000  Uiso   1.00
O98    O     0.57962   0.57219   0.66059   0.00000  Uiso   1.00
C99    C     0.41805   0.39003   0.77213   0.00000  Uiso   1.00
H100   H     0.71015   0.41075   0.49766   0.00000  Uiso   1.00
H101   H     0.67455   0.43158   0.16268   0.00000  Uiso   1.00
H102   H     0.63964   0.47268   0.10638   0.00000  Uiso   1.00
H103   H     0.53767   0.38413   0.70080   0.00000  Uiso   1.00
H104   H     0.57321   0.34357   0.77749   0.00000  Uiso   1.00
H105   H     0.50457   0.56908   0.60726   0.00000  Uiso   1.00
H106   H     0.42868   0.37631   0.57980   0.00000  Uiso   1.00
H107   H     0.38493   0.36700   0.82892   0.00000  Uiso   1.00
H108   H     0.43678   0.39585   0.99786   0.00000  Uiso   1.00
H109   H     0.54352   0.44389   0.15168   0.00000  Uiso   1.00
C110   C     0.60908   0.52773   0.33654   0.00000  Uiso   1.00
N111   N     0.63560   0.55543   0.19459   0.00000  Uiso   1.00
H112   H     0.58839   0.49183   0.75977   0.00000  Uiso   1.00
C113   C     0.64733   0.35814   0.49999   0.00000  Uiso   1.00
C114   C     0.62302   0.31421   0.50211   0.00000  Uiso   1.00
C115   C     0.62690   0.38417   0.47636   0.00000  Uiso   1.00
C116   C     0.57866   0.22406   0.29133   0.00000  Uiso   1.00
C117   C     0.55519   0.18062   0.25642   0.00000  Uiso   1.00
C118   C     0.56860   0.15511   0.40248   0.00000  Uiso   1.00
C119   C     0.60534   0.17317   0.58737   0.00000  Uiso   1.00
C120   C     0.62860   0.21661   0.62719   0.00000  Uiso   1.00
N121   N     0.54633   0.11101   0.34575   0.00000  Uiso   1.00
C122   C     0.50746   0.08301   0.51884   0.00000  Uiso   1.00
C123   C     0.50280   0.03970   0.56825   0.00000  Uiso   1.00
C124   C     0.46336   0.00314   0.60924   0.00000  Uiso   1.00
C125   C     0.46103   0.96380   0.59696   0.00000  Uiso   1.00
O126   O     0.42781   0.00743   0.66059   0.00000  Uiso   1.00
C127   C     0.60997   0.02802   0.77213   0.00000  Uiso   1.00
H128   H     0.58925   0.29940   0.49766   0.00000  Uiso   1.00
H129   H     0.56842   0.24297   0.16268   0.00000  Uiso   1.00
H130   H     0.52732   0.16696   0.10638   0.00000  Uiso   1.00
H131   H     0.61587   0.15354   0.70080   0.00000  Uiso   1.00
H132   H     0.65643   0.22964   0.77749   0.00000  Uiso   1.00
H133   H     0.43092   0.93549   0.60726   0.00000  Uiso   1.00
H134   H     0.62369   0.05237   0.57980   0.00000  Uiso   1.00
H135   H     0.63300   0.01793   0.82892   0.00000  Uiso   1.00
H136   H     0.60415   0.04093   0.99786   0.00000  Uiso   1.00
H137   H     0.55611   0.09963   0.15168   0.00000  Uiso   1.00
C138   C     0.47227   0.08135   0.33654   0.00000  Uiso   1.00
N139   N     0.44457   0.08017   0.19459   0.00000  Uiso   1.00
H140   H     0.50817   0.09656   0.75977   0.00000  Uiso   1.00
C141   C     0.64186   0.28919   0.49999   0.00000  Uiso   1.00
C142   C     0.68579   0.30881   0.50211   0.00000  Uiso   1.00
C143   C     0.61583   0.24273   0.47636   0.00000  Uiso   1.00
C144   C     0.77594   0.35460   0.29133   0.00000  Uiso   1.00
C145   C     0.81938   0.37457   0.25642   0.00000  Uiso   1.00
C146   C     0.84489   0.41349   0.40248   0.00000  Uiso   1.00
C147   C     0.82683   0.43217   0.58737   0.00000  Uiso   1.00
C148   C     0.78339   0.41199   0.62719   0.00000  Uiso   1.00
N149   N     0.88899   0.43532   0.34575   0.00000  Uiso   1.00
C150   C     0.91699   0.42445   0.51884   0.00000  Uiso   1.00
C151   C     0.96030   0.46310   0.56825   0.00000  Uiso   1.00
C152   C     0.99686   0.46022   0.60924   0.00000  Uiso   1.00
C153   C     0.03620   0.49723   0.59696   0.00000  Uiso   1.00
O154   O     0.99257   0.42038   0.66059   0.00000  Uiso   1.00
C155   C     0.97198   0.58195   0.77213   0.00000  Uiso   1.00
H156   H     0.70060   0.28985   0.49766   0.00000  Uiso   1.00
H157   H     0.75703   0.32545   0.16268   0.00000  Uiso   1.00
H158   H     0.83304   0.36036   0.10638   0.00000  Uiso   1.00
H159   H     0.84646   0.46233   0.70080   0.00000  Uiso   1.00
H160   H     0.77036   0.42679   0.77749   0.00000  Uiso   1.00
H161   H     0.06451   0.49543   0.60726   0.00000  Uiso   1.00
H162   H     0.94763   0.57132   0.57980   0.00000  Uiso   1.00
H163   H     0.98207   0.61507   0.82892   0.00000  Uiso   1.00
H164   H     0.95907   0.56322   0.99786   0.00000  Uiso   1.00
H165   H     0.90037   0.45648   0.15168   0.00000  Uiso   1.00
C166   C     0.91865   0.39092   0.33654   0.00000  Uiso   1.00
N167   N     0.91983   0.36440   0.19459   0.00000  Uiso   1.00
H168   H     0.90344   0.41161   0.75977   0.00000  Uiso   1.00
loop_
_geom_bond_atom_site_label_1
_geom_bond_atom_site_label_2
_geom_bond_distance
_geom_bond_site_symmetry_2
_ccdc_geom_bond_type
C1     C2      1.406   .     D
C1     C3      1.490   .     S
C1     C58     1.405   .     S
C2     H16     1.081   .     S
C2     C29     1.405   .     S
C3     C60     1.409   .     D
C3     C64     1.409   .     S
C4     C5      1.396   .     D
C4     H17     1.082   .     S
C4     C31     1.409   .     S
C5     C6      1.398   .     S
C5     H18     1.082   .     S
C6     C7      1.397   .     D
C6     N9      1.427   .     S
C7     C8      1.398   .     S
C7     H19     1.083   .     S
C8     H20     1.082   .     S
C8     C31     1.409   .     D
N9     C10     1.465   .     S
N9     H25     1.045   .     S
C10    C11     1.532   .     S
C10    C26     1.472   .     S
C10    H28     1.102   .     S
C11    C12     1.414   .     S
C11    C97     1.408   .     D
C12    C13     1.411   .     D
C12    O14     1.413   .     S
C13    H21     1.079   .     S
C13    C95     1.408   .     S
O14    C99     1.428   .     S
C15    H22     1.110   .     S
C15    H23     1.109   .     S
C15    H24     1.111   .     S
C15    O98     1.428   .     S
C26    N27     1.158   .     T
C29    C30     1.406   .     D
C29    C31     1.490   .     S
C30    H44     1.081   .     S
C30    C57     1.405   .     S
C32    C33     1.396   .     D
C32    H45     1.082   .     S
C32    C59     1.409   .     S
C33    C34     1.398   .     S
C33    H46     1.082   .     S
C34    C35     1.397   .     D
C34    N37     1.427   .     S
C35    C36     1.398   .     S
C35    H47     1.083   .     S
C36    H48     1.082   .     S
C36    C59     1.409   .     D
N37    C38     1.465   .     S
N37    H53     1.045   .     S
C38    C39     1.532   .     S
C38    C54     1.472   .     S
C38    H56     1.102   .     S
C39    C40     1.414   .     S
C39    C125    1.408   .     D
C40    C41     1.411   1_565 D
C40    O42     1.413   .     S
C41    C40     1.411   1_545 D
C41    H49     1.079   .     S
C41    C123    1.408   .     S
O42    C127    1.428   1_565 S
C43    H50     1.110   .     S
C43    H51     1.109   .     S
C43    H52     1.111   .     S
C43    O126    1.428   1_565 S
C54    N55     1.158   .     T
C57    C58     1.406   .     D
C57    C59     1.490   .     S
C58    H72     1.081   .     S
C60    C61     1.396   .     S
C60    H73     1.082   .     S
C61    C62     1.398   .     D
C61    H74     1.082   .     S
C62    C63     1.397   .     S
C62    N65     1.427   .     S
C63    C64     1.398   .     D
C63    H75     1.083   .     S
C64    H76     1.082   .     S
N65    C66     1.465   .     S
N65    H81     1.045   .     S
C66    C67     1.532   .     S
C66    C82     1.472   .     S
C66    H84     1.102   .     S
C67    C68     1.414   .     S
C67    C153    1.408   .     D
C68    C69     1.411   1_455 D
C68    O70     1.413   .     S
C69    C68     1.411   1_655 D
C69    H77     1.079   .     S
C69    C151    1.408   .     S
O70    C155    1.428   1_455 S
C71    H78     1.110   .     S
C71    H79     1.109   .     S
C71    H80     1.111   .     S
C71    O154    1.428   1_455 S
C82    N83     1.158   .     T
C85    C86     1.406   .     D
C85    C87     1.490   .     S
C85    C142    1.405   .     S
C86    H100    1.081   .     S
C86    C113    1.405   .     S
C87    C144    1.409   .     D
C87    C148    1.409   .     S
C88    C89     1.396   .     D
C88    H101    1.082   .     S
C88    C115    1.409   .     S
C89    C90     1.398   .     S
C89    H102    1.082   .     S
C90    C91     1.397   .     D
C90    N93     1.427   .     S
C91    C92     1.398   .     S
C91    H103    1.083   .     S
C92    H104    1.082   .     S
C92    C115    1.409   .     D
N93    C94     1.465   .     S
N93    H109    1.045   .     S
C94    C95     1.532   .     S
C94    C110    1.472   .     S
C94    H112    1.102   .     S
C95    C96     1.414   .     D
C96    C97     1.411   .     S
C96    O98     1.413   .     S
C97    H105    1.079   .     S
C99    H106    1.110   .     S
C99    H107    1.109   .     S
C99    H108    1.111   .     S
C110   N111    1.158   .     T
C113   C114    1.406   .     D
C113   C115    1.490   .     S
C114   H128    1.081   .     S
C114   C141    1.405   .     S
C116   C117    1.396   .     D
C116   H129    1.082   .     S
C116   C143    1.409   .     S
C117   C118    1.398   .     S
C117   H130    1.082   .     S
C118   C119    1.397   .     D
C118   N121    1.427   .     S
C119   C120    1.398   .     S
C119   H131    1.083   .     S
C120   H132    1.082   .     S
C120   C143    1.409   .     D
N121   C122    1.465   .     S
N121   H137    1.045   .     S
C122   C123    1.532   .     S
C122   C138    1.472   .     S
C122   H140    1.102   .     S
C123   C124    1.414   .     D
C124   C125    1.411   1_545 S
C124   O126    1.413   .     S
C125   C124    1.411   1_565 S
C125   H133    1.079   .     S
O126   C43     1.428   1_545 S
C127   O42     1.428   1_545 S
C127   H134    1.110   .     S
C127   H135    1.109   .     S
C127   H136    1.111   .     S
C138   N139    1.158   .     T
C141   C142    1.406   .     D
C141   C143    1.490   .     S
C142   H156    1.081   .     S
C144   C145    1.396   .     S
C144   H157    1.082   .     S
C145   C146    1.398   .     D
C145   H158    1.082   .     S
C146   C147    1.397   .     S
C146   N149    1.427   .     S
C147   C148    1.398   .     D
C147   H159    1.083   .     S
C148   H160    1.082   .     S
N149   C150    1.465   .     S
N149   H165    1.045   .     S
C150   C151    1.532   .     S
C150   C166    1.472   .     S
C150   H168    1.102   .     S
C151   C152    1.414   .     D
C152   C153    1.411   1_655 S
C152   O154    1.413   .     S
C153   C152    1.411   1_455 S
C153   H161    1.079   .     S
O154   C71     1.428   1_655 S
C155   O70     1.428   1_655 S
C155   H162    1.110   .     S
C155   H163    1.109   .     S
C155   H164    1.111   .     S
C166   N167    1.158   .     T
