data_44
_audit_creation_date              2023-09-08
_audit_creation_method            'Materials Studio'
_symmetry_space_group_name_H-M    'P1'
_symmetry_Int_Tables_number       1
_symmetry_cell_setting            triclinic
loop_
_symmetry_equiv_pos_as_xyz
  x,y,z
_cell_length_a                    36.1071
_cell_length_b                    42.1182
_cell_length_c                    4.0795
_cell_angle_alpha                 90.0000
_cell_angle_beta                  90.0000
_cell_angle_gamma                 90.0000
loop_
_atom_site_label
_atom_site_type_symbol
_atom_site_fract_x
_atom_site_fract_y
_atom_site_fract_z
_atom_site_U_iso_or_equiv
_atom_site_adp_type
_atom_site_occupancy
C1     C     0.52758   0.96279   0.59985   0.00000  Uiso   1.00
C2     C     0.48245   0.93132   0.43788   0.00000  Uiso   1.00
C3     C     0.43760   0.97003   0.27364   0.00000  Uiso   1.00
C4     C     0.41267   0.94535   0.20421   0.00000  Uiso   1.00
C5     C     0.42264   0.91332   0.25796   0.00000  Uiso   1.00
C6     C     0.45864   0.90611   0.36801   0.00000  Uiso   1.00
C7     C     0.39430   0.88808   0.23295   0.00000  Uiso   1.00
C8     C     0.35981   0.89240   0.38518   0.00000  Uiso   1.00
C9     C     0.33342   0.86825   0.38192   0.00000  Uiso   1.00
C10    C     0.34076   0.83940   0.22343   0.00000  Uiso   1.00
C11    C     0.37502   0.83512   0.06570   0.00000  Uiso   1.00
C12    C     0.40178   0.85923   0.07302   0.00000  Uiso   1.00
C13    C     0.31251   0.81414   0.23543   0.00000  Uiso   1.00
N14    N     0.31511   0.78863   0.05684   0.00000  Uiso   1.00
C15    C     0.28873   0.76299   0.05254   0.00000  Uiso   1.00
C16    C     0.25312   0.76569   0.19076   0.00000  Uiso   1.00
C17    C     0.22910   0.73973   0.19183   0.00000  Uiso   1.00
C18    C     0.23957   0.71083   0.05236   0.00000  Uiso   1.00
C19    C     0.27465   0.70824  -0.09582   0.00000  Uiso   1.00
C20    C     0.29889   0.73429  -0.09577   0.00000  Uiso   1.00
N21    N     0.21380   0.68501   0.07631   0.00000  Uiso   1.00
C22    C     0.21697   0.65635  -0.03837   0.00000  Uiso   1.00
C23    C     0.81273   0.36704   0.02422   0.00000  Uiso   1.00
C24    C     0.84484   0.35821   0.19623   0.00000  Uiso   1.00
C25    C     0.87272   0.38033   0.25782   0.00000  Uiso   1.00
C26    C     0.86910   0.41182   0.15027   0.00000  Uiso   1.00
C27    C     0.83689   0.42083  -0.01925   0.00000  Uiso   1.00
C28    C     0.80900   0.39854  -0.08360   0.00000  Uiso   1.00
C29    C     0.89892   0.43500   0.22044   0.00000  Uiso   1.00
C30    C     0.93640   0.42614   0.17865   0.00000  Uiso   1.00
C31    C     0.96516   0.44686   0.26671   0.00000  Uiso   1.00
C32    C     0.95663   0.47653   0.39650   0.00000  Uiso   1.00
C33    C     0.91991   0.48514   0.43305   0.00000  Uiso   1.00
C34    C     0.89051   0.46532   0.34624   0.00000  Uiso   1.00
H35    H     0.42879   0.99399   0.24442   0.00000  Uiso   1.00
H36    H     0.38520   0.95123   0.11644   0.00000  Uiso   1.00
H37    H     0.46697   0.88186   0.41538   0.00000  Uiso   1.00
H38    H     0.35378   0.91413   0.51666   0.00000  Uiso   1.00
H39    H     0.30735   0.87195   0.50771   0.00000  Uiso   1.00
H40    H     0.38107   0.81306  -0.05968   0.00000  Uiso   1.00
H41    H     0.42813   0.85555  -0.04778   0.00000  Uiso   1.00
H42    H     0.28974   0.81744   0.40379   0.00000  Uiso   1.00
H43    H     0.24338   0.78755   0.29812   0.00000  Uiso   1.00
H44    H     0.20211   0.74189   0.30521   0.00000  Uiso   1.00
H45    H     0.28363   0.68641  -0.20935   0.00000  Uiso   1.00
H46    H     0.32591   0.73215  -0.20849   0.00000  Uiso   1.00
H47    H     0.24110   0.64908  -0.17595   0.00000  Uiso   1.00
H48    H     0.84821   0.33419   0.28603   0.00000  Uiso   1.00
H49    H     0.89683   0.37290   0.39635   0.00000  Uiso   1.00
H50    H     0.83361   0.44490  -0.10587   0.00000  Uiso   1.00
H51    H     0.78458   0.40585  -0.21789   0.00000  Uiso   1.00
H52    H     0.94337   0.40303   0.07996   0.00000  Uiso   1.00
H53    H     0.99313   0.43911   0.24500   0.00000  Uiso   1.00
H54    H     0.86216   0.47274   0.38455   0.00000  Uiso   1.00
C55    C     0.47242   0.03721   0.59985   0.00000  Uiso   1.00
C56    C     0.51755   0.06868   0.43788   0.00000  Uiso   1.00
C57    C     0.56240   0.02997   0.27364   0.00000  Uiso   1.00
C58    C     0.58733   0.05465   0.20421   0.00000  Uiso   1.00
C59    C     0.57736   0.08668   0.25796   0.00000  Uiso   1.00
C60    C     0.54136   0.09389   0.36801   0.00000  Uiso   1.00
C61    C     0.60570   0.11192   0.23295   0.00000  Uiso   1.00
C62    C     0.64019   0.10760   0.38518   0.00000  Uiso   1.00
C63    C     0.66658   0.13175   0.38192   0.00000  Uiso   1.00
C64    C     0.65924   0.16060   0.22343   0.00000  Uiso   1.00
C65    C     0.62498   0.16488   0.06570   0.00000  Uiso   1.00
C66    C     0.59822   0.14077   0.07302   0.00000  Uiso   1.00
C67    C     0.68749   0.18586   0.23543   0.00000  Uiso   1.00
N68    N     0.68489   0.21137   0.05684   0.00000  Uiso   1.00
C69    C     0.71127   0.23701   0.05254   0.00000  Uiso   1.00
C70    C     0.74688   0.23431   0.19076   0.00000  Uiso   1.00
C71    C     0.77090   0.26027   0.19183   0.00000  Uiso   1.00
C72    C     0.76043   0.28917   0.05236   0.00000  Uiso   1.00
C73    C     0.72535   0.29176  -0.09582   0.00000  Uiso   1.00
C74    C     0.70111   0.26571  -0.09577   0.00000  Uiso   1.00
N75    N     0.78620   0.31499   0.07631   0.00000  Uiso   1.00
C76    C     0.78303   0.34365  -0.03837   0.00000  Uiso   1.00
C77    C     0.18727   0.63296   0.02422   0.00000  Uiso   1.00
C78    C     0.15516   0.64179   0.19623   0.00000  Uiso   1.00
C79    C     0.12728   0.61967   0.25782   0.00000  Uiso   1.00
C80    C     0.13090   0.58818   0.15027   0.00000  Uiso   1.00
C81    C     0.16311   0.57917  -0.01925   0.00000  Uiso   1.00
C82    C     0.19100   0.60146  -0.08360   0.00000  Uiso   1.00
C83    C     0.10108   0.56500   0.22044   0.00000  Uiso   1.00
C84    C     0.06360   0.57386   0.17865   0.00000  Uiso   1.00
C85    C     0.03484   0.55314   0.26671   0.00000  Uiso   1.00
C86    C     0.04337   0.52347   0.39650   0.00000  Uiso   1.00
C87    C     0.08009   0.51486   0.43305   0.00000  Uiso   1.00
C88    C     0.10949   0.53468   0.34624   0.00000  Uiso   1.00
H89    H     0.57121   0.00601   0.24442   0.00000  Uiso   1.00
H90    H     0.61480   0.04877   0.11644   0.00000  Uiso   1.00
H91    H     0.53303   0.11814   0.41538   0.00000  Uiso   1.00
H92    H     0.64622   0.08587   0.51666   0.00000  Uiso   1.00
H93    H     0.69265   0.12805   0.50771   0.00000  Uiso   1.00
H94    H     0.61893   0.18694  -0.05968   0.00000  Uiso   1.00
H95    H     0.57187   0.14445  -0.04778   0.00000  Uiso   1.00
H96    H     0.71026   0.18256   0.40379   0.00000  Uiso   1.00
H97    H     0.75662   0.21245   0.29812   0.00000  Uiso   1.00
H98    H     0.79789   0.25811   0.30521   0.00000  Uiso   1.00
H99    H     0.71637   0.31359  -0.20935   0.00000  Uiso   1.00
H100   H     0.67409   0.26785  -0.20849   0.00000  Uiso   1.00
H101   H     0.75890   0.35092  -0.17595   0.00000  Uiso   1.00
H102   H     0.15179   0.66581   0.28603   0.00000  Uiso   1.00
H103   H     0.10317   0.62710   0.39635   0.00000  Uiso   1.00
H104   H     0.16639   0.55510  -0.10587   0.00000  Uiso   1.00
H105   H     0.21542   0.59415  -0.21789   0.00000  Uiso   1.00
H106   H     0.05663   0.59697   0.07996   0.00000  Uiso   1.00
H107   H     0.00687   0.56089   0.24500   0.00000  Uiso   1.00
H108   H     0.13784   0.52726   0.38455   0.00000  Uiso   1.00
C109   C     0.47242   0.96279   0.40015   0.00000  Uiso   1.00
C110   C     0.51755   0.93132   0.56212   0.00000  Uiso   1.00
C111   C     0.56240   0.97003   0.72636   0.00000  Uiso   1.00
C112   C     0.58733   0.94535   0.79579   0.00000  Uiso   1.00
C113   C     0.57736   0.91332   0.74204   0.00000  Uiso   1.00
C114   C     0.54136   0.90611   0.63199   0.00000  Uiso   1.00
C115   C     0.60570   0.88808   0.76705   0.00000  Uiso   1.00
C116   C     0.64019   0.89240   0.61482   0.00000  Uiso   1.00
C117   C     0.66658   0.86825   0.61808   0.00000  Uiso   1.00
C118   C     0.65924   0.83940   0.77657   0.00000  Uiso   1.00
C119   C     0.62498   0.83512   0.93430   0.00000  Uiso   1.00
C120   C     0.59822   0.85923   0.92698   0.00000  Uiso   1.00
C121   C     0.68749   0.81414   0.76457   0.00000  Uiso   1.00
N122   N     0.68489   0.78863   0.94316   0.00000  Uiso   1.00
C123   C     0.71127   0.76299   0.94746   0.00000  Uiso   1.00
C124   C     0.74688   0.76569   0.80924   0.00000  Uiso   1.00
C125   C     0.77090   0.73973   0.80817   0.00000  Uiso   1.00
C126   C     0.76043   0.71083   0.94764   0.00000  Uiso   1.00
C127   C     0.72535   0.70824   1.09582   0.00000  Uiso   1.00
C128   C     0.70111   0.73429   1.09577   0.00000  Uiso   1.00
N129   N     0.78620   0.68501   0.92369   0.00000  Uiso   1.00
C130   C     0.78303   0.65635   1.03837   0.00000  Uiso   1.00
C131   C     0.18727   0.36704   0.97578   0.00000  Uiso   1.00
C132   C     0.15516   0.35821   0.80377   0.00000  Uiso   1.00
C133   C     0.12728   0.38033   0.74218   0.00000  Uiso   1.00
C134   C     0.13090   0.41182   0.84973   0.00000  Uiso   1.00
C135   C     0.16311   0.42083   1.01925   0.00000  Uiso   1.00
C136   C     0.19100   0.39854   1.08360   0.00000  Uiso   1.00
C137   C     0.10108   0.43500   0.77956   0.00000  Uiso   1.00
C138   C     0.06360   0.42614   0.82135   0.00000  Uiso   1.00
C139   C     0.03484   0.44686   0.73329   0.00000  Uiso   1.00
C140   C     0.04337   0.47653   0.60350   0.00000  Uiso   1.00
C141   C     0.08009   0.48514   0.56695   0.00000  Uiso   1.00
C142   C     0.10949   0.46532   0.65376   0.00000  Uiso   1.00
H143   H     0.57121   0.99399   0.75558   0.00000  Uiso   1.00
H144   H     0.61480   0.95123   0.88356   0.00000  Uiso   1.00
H145   H     0.53303   0.88186   0.58462   0.00000  Uiso   1.00
H146   H     0.64622   0.91413   0.48334   0.00000  Uiso   1.00
H147   H     0.69265   0.87195   0.49229   0.00000  Uiso   1.00
H148   H     0.61893   0.81306   1.05968   0.00000  Uiso   1.00
H149   H     0.57187   0.85555   1.04778   0.00000  Uiso   1.00
H150   H     0.71026   0.81744   0.59621   0.00000  Uiso   1.00
H151   H     0.75662   0.78755   0.70188   0.00000  Uiso   1.00
H152   H     0.79789   0.74189   0.69479   0.00000  Uiso   1.00
H153   H     0.71637   0.68641   1.20935   0.00000  Uiso   1.00
H154   H     0.67409   0.73215   1.20849   0.00000  Uiso   1.00
H155   H     0.75890   0.64908   1.17595   0.00000  Uiso   1.00
H156   H     0.15179   0.33419   0.71397   0.00000  Uiso   1.00
H157   H     0.10317   0.37290   0.60365   0.00000  Uiso   1.00
H158   H     0.16639   0.44490   1.10587   0.00000  Uiso   1.00
H159   H     0.21542   0.40585   1.21789   0.00000  Uiso   1.00
H160   H     0.05663   0.40303   0.92004   0.00000  Uiso   1.00
H161   H     0.00687   0.43911   0.75500   0.00000  Uiso   1.00
H162   H     0.13784   0.47274   0.61545   0.00000  Uiso   1.00
C163   C     0.52758   0.03721   0.40015   0.00000  Uiso   1.00
C164   C     0.48245   0.06868   0.56212   0.00000  Uiso   1.00
C165   C     0.43760   0.02997   0.72636   0.00000  Uiso   1.00
C166   C     0.41267   0.05465   0.79579   0.00000  Uiso   1.00
C167   C     0.42264   0.08668   0.74204   0.00000  Uiso   1.00
C168   C     0.45864   0.09389   0.63199   0.00000  Uiso   1.00
C169   C     0.39430   0.11192   0.76705   0.00000  Uiso   1.00
C170   C     0.35981   0.10760   0.61482   0.00000  Uiso   1.00
C171   C     0.33342   0.13175   0.61808   0.00000  Uiso   1.00
C172   C     0.34076   0.16060   0.77657   0.00000  Uiso   1.00
C173   C     0.37502   0.16488   0.93430   0.00000  Uiso   1.00
C174   C     0.40178   0.14077   0.92698   0.00000  Uiso   1.00
C175   C     0.31251   0.18586   0.76457   0.00000  Uiso   1.00
N176   N     0.31511   0.21137   0.94316   0.00000  Uiso   1.00
C177   C     0.28873   0.23701   0.94746   0.00000  Uiso   1.00
C178   C     0.25312   0.23431   0.80924   0.00000  Uiso   1.00
C179   C     0.22910   0.26027   0.80817   0.00000  Uiso   1.00
C180   C     0.23957   0.28917   0.94764   0.00000  Uiso   1.00
C181   C     0.27465   0.29176   1.09582   0.00000  Uiso   1.00
C182   C     0.29889   0.26571   1.09577   0.00000  Uiso   1.00
N183   N     0.21380   0.31499   0.92369   0.00000  Uiso   1.00
C184   C     0.21697   0.34365   1.03837   0.00000  Uiso   1.00
C185   C     0.81273   0.63296   0.97578   0.00000  Uiso   1.00
C186   C     0.84484   0.64179   0.80377   0.00000  Uiso   1.00
C187   C     0.87272   0.61967   0.74218   0.00000  Uiso   1.00
C188   C     0.86910   0.58818   0.84973   0.00000  Uiso   1.00
C189   C     0.83689   0.57917   1.01925   0.00000  Uiso   1.00
C190   C     0.80900   0.60146   1.08360   0.00000  Uiso   1.00
C191   C     0.89892   0.56500   0.77956   0.00000  Uiso   1.00
C192   C     0.93640   0.57386   0.82135   0.00000  Uiso   1.00
C193   C     0.96516   0.55314   0.73329   0.00000  Uiso   1.00
C194   C     0.95663   0.52347   0.60350   0.00000  Uiso   1.00
C195   C     0.91991   0.51486   0.56695   0.00000  Uiso   1.00
C196   C     0.89051   0.53468   0.65376   0.00000  Uiso   1.00
H197   H     0.42879   0.00601   0.75558   0.00000  Uiso   1.00
H198   H     0.38520   0.04877   0.88356   0.00000  Uiso   1.00
H199   H     0.46697   0.11814   0.58462   0.00000  Uiso   1.00
H200   H     0.35378   0.08587   0.48334   0.00000  Uiso   1.00
H201   H     0.30735   0.12805   0.49229   0.00000  Uiso   1.00
H202   H     0.38107   0.18694   1.05968   0.00000  Uiso   1.00
H203   H     0.42813   0.14445   1.04778   0.00000  Uiso   1.00
H204   H     0.28974   0.18256   0.59621   0.00000  Uiso   1.00
H205   H     0.24338   0.21245   0.70188   0.00000  Uiso   1.00
H206   H     0.20211   0.25811   0.69479   0.00000  Uiso   1.00
H207   H     0.28363   0.31359   1.20935   0.00000  Uiso   1.00
H208   H     0.32591   0.26785   1.20849   0.00000  Uiso   1.00
H209   H     0.24110   0.35092   1.17595   0.00000  Uiso   1.00
H210   H     0.84821   0.66581   0.71397   0.00000  Uiso   1.00
H211   H     0.89683   0.62710   0.60365   0.00000  Uiso   1.00
H212   H     0.83361   0.55510   1.10587   0.00000  Uiso   1.00
H213   H     0.78458   0.59415   1.21789   0.00000  Uiso   1.00
H214   H     0.94337   0.59697   0.92004   0.00000  Uiso   1.00
H215   H     0.99313   0.56089   0.75500   0.00000  Uiso   1.00
H216   H     0.86216   0.52726   0.61545   0.00000  Uiso   1.00
N217   N     0.50000   0.98295   0.50000   0.00000  Uiso   1.00
N218   N     0.50000   0.01705   0.50000   0.00000  Uiso   1.00
N219   N     0.98012   0.50000   0.50000   0.00000  Uiso   1.00
N220   N     0.01988   0.50000   0.50000   0.00000  Uiso   1.00
loop_
_geom_bond_atom_site_label_1
_geom_bond_atom_site_label_2
_geom_bond_distance
_geom_bond_site_symmetry_2
_ccdc_geom_bond_type
C1     C110    1.383   .     D
C1     C111    1.393   .     S
C1     N217    1.371   .     S
C2     C6      1.396   .     D
C2     C109    1.383   .     S
C2     C110    1.365   .     S
C3     C4      1.404   .     S
C3     H35     1.065   .     S
C3     C109    1.393   .     D
C4     C5      1.413   .     D
C4     H36     1.083   .     S
C5     C6      1.408   .     S
C5     C7      1.479   .     S
C6     H37     1.082   .     S
C7     C8      1.403   .     D
C7     C12     1.405   .     S
C8     C9      1.394   .     S
C8     H38     1.083   .     S
C9     C10     1.402   .     D
C9     H39     1.083   .     S
C10    C11     1.406   .     S
C10    C13     1.475   .     S
C11    C12     1.402   .     D
C11    H40     1.083   .     S
C12    H41     1.083   .     S
C13    N14     1.302   .     D
C13    H42     1.080   .     S
N14    C15     1.440   .     S
C15    C16     1.409   .     D
C15    C20     1.401   .     S
C16    C17     1.396   .     S
C16    H43     1.079   .     S
C17    C18     1.396   .     D
C17    H44     1.083   .     S
C18    C19     1.408   .     S
C18    N21     1.435   .     S
C19    C20     1.404   .     D
C19    H45     1.079   .     S
C20    H46     1.082   .     S
N21    C22     1.300   .     D
C22    H47     1.081   .     S
C22    C77     1.478   .     S
C23    C24     1.405   .     D
C23    C28     1.404   .     S
C23    C76     1.478   .     S
C24    C25     1.394   .     S
C24    H48     1.083   .     S
C25    C26     1.403   .     D
C25    H49     1.084   .     S
C26    C27     1.405   .     S
C26    C29     1.481   .     S
C27    C28     1.402   .     D
C27    H50     1.080   .     S
C28    H51     1.083   .     S
C29    C30     1.414   .     S
C29    C34     1.409   .     D
C30    C31     1.403   .     D
C30    H52     1.083   .     S
C31    C32     1.392   .     S
C31    H53     1.065   .     S
C32    C33     1.383   .     D
C32    N219    1.369   .     S
C33    C34     1.396   .     S
C33    C195    1.366   .     S
C34    H54     1.082   .     S
C55    C164    1.383   .     D
C55    C165    1.393   .     S
C55    N218    1.371   .     S
C56    C60     1.396   .     D
C56    C163    1.383   .     S
C56    C164    1.365   .     S
C57    C58     1.404   .     S
C57    H89     1.065   .     S
C57    C163    1.393   .     D
C58    C59     1.413   .     D
C58    H90     1.083   .     S
C59    C60     1.408   .     S
C59    C61     1.479   .     S
C60    H91     1.082   .     S
C61    C62     1.403   .     D
C61    C66     1.405   .     S
C62    C63     1.394   .     S
C62    H92     1.083   .     S
C63    C64     1.402   .     D
C63    H93     1.083   .     S
C64    C65     1.406   .     S
C64    C67     1.475   .     S
C65    C66     1.402   .     D
C65    H94     1.083   .     S
C66    H95     1.083   .     S
C67    N68     1.302   .     D
C67    H96     1.080   .     S
N68    C69     1.440   .     S
C69    C70     1.409   .     D
C69    C74     1.401   .     S
C70    C71     1.396   .     S
C70    H97     1.079   .     S
C71    C72     1.396   .     D
C71    H98     1.083   .     S
C72    C73     1.408   .     S
C72    N75     1.435   .     S
C73    C74     1.404   .     D
C73    H99     1.079   .     S
C74    H100    1.082   .     S
N75    C76     1.300   .     D
C76    H101    1.081   .     S
C77    C78     1.405   .     D
C77    C82     1.404   .     S
C78    C79     1.394   .     S
C78    H102    1.083   .     S
C79    C80     1.403   .     D
C79    H103    1.084   .     S
C80    C81     1.405   .     S
C80    C83     1.481   .     S
C81    C82     1.402   .     D
C81    H104    1.080   .     S
C82    H105    1.083   .     S
C83    C84     1.414   .     D
C83    C88     1.409   .     S
C84    C85     1.403   .     S
C84    H106    1.083   .     S
C85    C86     1.392   .     D
C85    H107    1.065   .     S
C86    C87     1.383   .     S
C86    N220    1.369   .     S
C87    C88     1.396   .     D
C87    C141    1.366   .     S
C88    H108    1.082   .     S
C109   N217    1.371   .     S
C110   C114    1.396   .     S
C111   C112    1.404   .     D
C111   H143    1.065   .     S
C112   C113    1.413   .     S
C112   H144    1.083   .     S
C113   C114    1.408   .     D
C113   C115    1.479   .     S
C114   H145    1.082   .     S
C115   C116    1.403   .     S
C115   C120    1.405   .     D
C116   C117    1.394   .     D
C116   H146    1.083   .     S
C117   C118    1.402   .     S
C117   H147    1.083   .     S
C118   C119    1.406   .     D
C118   C121    1.475   .     S
C119   C120    1.402   .     S
C119   H148    1.083   .     S
C120   H149    1.083   .     S
C121   N122    1.302   .     D
C121   H150    1.080   .     S
N122   C123    1.440   .     S
C123   C124    1.409   .     S
C123   C128    1.401   .     D
C124   C125    1.396   .     D
C124   H151    1.079   .     S
C125   C126    1.396   .     S
C125   H152    1.083   .     S
C126   C127    1.408   .     D
C126   N129    1.435   .     S
C127   C128    1.404   .     S
C127   H153    1.079   .     S
C128   H154    1.082   .     S
N129   C130    1.300   .     D
C130   H155    1.081   .     S
C130   C185    1.478   .     S
C131   C132    1.405   .     D
C131   C136    1.404   .     S
C131   C184    1.478   .     S
C132   C133    1.394   .     S
C132   H156    1.083   .     S
C133   C134    1.403   .     D
C133   H157    1.084   .     S
C134   C135    1.405   .     S
C134   C137    1.481   .     S
C135   C136    1.402   .     D
C135   H158    1.080   .     S
C136   H159    1.083   .     S
C137   C138    1.414   .     S
C137   C142    1.409   .     D
C138   C139    1.403   .     D
C138   H160    1.083   .     S
C139   C140    1.392   .     S
C139   H161    1.065   .     S
C140   C141    1.383   .     D
C140   N220    1.369   .     S
C141   C142    1.396   .     S
C142   H162    1.082   .     S
C163   N218    1.371   .     S
C164   C168    1.396   .     S
C165   C166    1.404   .     D
C165   H197    1.065   .     S
C166   C167    1.413   .     S
C166   H198    1.083   .     S
C167   C168    1.408   .     D
C167   C169    1.479   .     S
C168   H199    1.082   .     S
C169   C170    1.403   .     D
C169   C174    1.405   .     S
C170   C171    1.394   .     S
C170   H200    1.083   .     S
C171   C172    1.402   .     D
C171   H201    1.083   .     S
C172   C173    1.406   .     S
C172   C175    1.475   .     S
C173   C174    1.402   .     D
C173   H202    1.083   .     S
C174   H203    1.083   .     S
C175   N176    1.302   .     D
C175   H204    1.080   .     S
N176   C177    1.440   .     S
C177   C178    1.409   .     D
C177   C182    1.401   .     S
C178   C179    1.396   .     S
C178   H205    1.079   .     S
C179   C180    1.396   .     D
C179   H206    1.083   .     S
C180   C181    1.408   .     S
C180   N183    1.435   .     S
C181   C182    1.404   .     D
C181   H207    1.079   .     S
C182   H208    1.082   .     S
N183   C184    1.300   .     D
C184   H209    1.081   .     S
C185   C186    1.405   .     D
C185   C190    1.404   .     S
C186   C187    1.394   .     S
C186   H210    1.083   .     S
C187   C188    1.403   .     D
C187   H211    1.084   .     S
C188   C189    1.405   .     S
C188   C191    1.481   .     S
C189   C190    1.402   .     D
C189   H212    1.080   .     S
C190   H213    1.083   .     S
C191   C192    1.414   .     D
C191   C196    1.409   .     S
C192   C193    1.403   .     S
C192   H214    1.083   .     S
C193   C194    1.392   .     D
C193   H215    1.065   .     S
C194   C195    1.383   .     S
C194   N219    1.369   .     S
C195   C196    1.396   .     D
C196   H216    1.082   .     S
N217   N218    1.436   1_565 S
N218   N217    1.436   1_545 S
N219   N220    1.436   1_655 S
N220   N219    1.436   1_455 S
