data_440
_audit_creation_date              2023-09-08
_audit_creation_method            'Materials Studio'
_symmetry_space_group_name_H-M    'P1'
_symmetry_Int_Tables_number       1
_symmetry_cell_setting            triclinic
loop_
_symmetry_equiv_pos_as_xyz
  x,y,z
_cell_length_a                    37.2145
_cell_length_b                    37.2145
_cell_length_c                    4.0878
_cell_angle_alpha                 90.0000
_cell_angle_beta                  90.0000
_cell_angle_gamma                 120.0000
loop_
_atom_site_label
_atom_site_type_symbol
_atom_site_fract_x
_atom_site_fract_y
_atom_site_fract_z
_atom_site_U_iso_or_equiv
_atom_site_adp_type
_atom_site_occupancy
C1     C     0.28952   0.64628   0.49646   0.00000  Uiso   1.00
C2     C     0.31018   0.62336   0.49826   0.00000  Uiso   1.00
C3     C     0.24339   0.62475   0.47616   0.00000  Uiso   1.00
C4     C     0.35813   0.58181   0.29092   0.00000  Uiso   1.00
C5     C     0.37902   0.55950   0.26176   0.00000  Uiso   1.00
C6     C     0.41738   0.57371   0.41403   0.00000  Uiso   1.00
C7     C     0.43475   0.61017   0.59791   0.00000  Uiso   1.00
C8     C     0.41372   0.63234   0.63213   0.00000  Uiso   1.00
N9     N     0.44002   0.55247   0.36596   0.00000  Uiso   1.00
C10    C     0.42843   0.51317   0.53387   0.00000  Uiso   1.00
C11    C     0.46535   0.50618   0.56207   0.00000  Uiso   1.00
C12    C     0.45984   0.46594   0.58161   0.00000  Uiso   1.00
C13    C     0.49400   0.45989   0.58186   0.00000  Uiso   1.00
H14    H     0.29228   0.58985   0.49429   0.00000  Uiso   1.00
H15    H     0.32942   0.57103   0.15751   0.00000  Uiso   1.00
H16    H     0.36607   0.53188   0.11158   0.00000  Uiso   1.00
H17    H     0.46443   0.62109   0.71618   0.00000  Uiso   1.00
H18    H     0.42733   0.65986   0.78389   0.00000  Uiso   1.00
H19    H     0.48856   0.42848   0.59137   0.00000  Uiso   1.00
H20    H     0.46127   0.56254   0.17239   0.00000  Uiso   1.00
C21    C     0.39322   0.47869   0.36213   0.00000  Uiso   1.00
N22    N     0.36566   0.45166   0.22642   0.00000  Uiso   1.00
H23    H     0.41752   0.51400   0.78342   0.00000  Uiso   1.00
H24    H     0.42902   0.43896   0.59053   0.00000  Uiso   1.00
C25    C     0.35372   0.64324   0.49646   0.00000  Uiso   1.00
C26    C     0.37664   0.68682   0.49826   0.00000  Uiso   1.00
C27    C     0.37525   0.61864   0.47616   0.00000  Uiso   1.00
C28    C     0.41819   0.77632   0.29092   0.00000  Uiso   1.00
C29    C     0.44050   0.81952   0.26176   0.00000  Uiso   1.00
C30    C     0.42629   0.84367   0.41403   0.00000  Uiso   1.00
C31    C     0.38983   0.82458   0.59791   0.00000  Uiso   1.00
C32    C     0.36766   0.78138   0.63213   0.00000  Uiso   1.00
N33    N     0.44753   0.88755   0.36596   0.00000  Uiso   1.00
C34    C     0.48683   0.91526   0.53387   0.00000  Uiso   1.00
C35    C     0.49382   0.95917   0.56207   0.00000  Uiso   1.00
C36    C     0.53406   0.99390   0.58161   0.00000  Uiso   1.00
C37    C     0.54011   0.03411   0.58186   0.00000  Uiso   1.00
H38    H     0.41015   0.70243   0.49429   0.00000  Uiso   1.00
H39    H     0.42897   0.75839   0.15751   0.00000  Uiso   1.00
H40    H     0.46812   0.83419   0.11158   0.00000  Uiso   1.00
H41    H     0.37891   0.84334   0.71618   0.00000  Uiso   1.00
H42    H     0.34014   0.76747   0.78389   0.00000  Uiso   1.00
H43    H     0.57152   0.06008   0.59137   0.00000  Uiso   1.00
H44    H     0.43746   0.89873   0.17239   0.00000  Uiso   1.00
C45    C     0.52131   0.91453   0.36213   0.00000  Uiso   1.00
N46    N     0.54834   0.91400   0.22642   0.00000  Uiso   1.00
H47    H     0.48600   0.90352   0.78342   0.00000  Uiso   1.00
H48    H     0.56104   0.99006   0.59053   0.00000  Uiso   1.00
C49    C     0.35676   0.71048   0.49646   0.00000  Uiso   1.00
C50    C     0.31318   0.68982   0.49826   0.00000  Uiso   1.00
C51    C     0.38136   0.75661   0.47616   0.00000  Uiso   1.00
C52    C     0.22368   0.64187   0.29092   0.00000  Uiso   1.00
C53    C     0.18048   0.62098   0.26176   0.00000  Uiso   1.00
C54    C     0.15633   0.58262   0.41403   0.00000  Uiso   1.00
C55    C     0.17542   0.56525   0.59791   0.00000  Uiso   1.00
C56    C     0.21862   0.58628   0.63213   0.00000  Uiso   1.00
N57    N     0.11245   0.55998   0.36596   0.00000  Uiso   1.00
C58    C     0.08474   0.57157   0.53387   0.00000  Uiso   1.00
C59    C     0.04083   0.53465   0.56207   0.00000  Uiso   1.00
C60    C     0.00610   0.54016   0.58161   0.00000  Uiso   1.00
C61    C     0.96589   0.50600   0.58186   0.00000  Uiso   1.00
H62    H     0.29757   0.70772   0.49429   0.00000  Uiso   1.00
H63    H     0.24161   0.67058   0.15751   0.00000  Uiso   1.00
H64    H     0.16581   0.63393   0.11158   0.00000  Uiso   1.00
H65    H     0.15666   0.53557   0.71618   0.00000  Uiso   1.00
H66    H     0.23253   0.57267   0.78389   0.00000  Uiso   1.00
H67    H     0.93992   0.51144   0.59137   0.00000  Uiso   1.00
H68    H     0.10127   0.53873   0.17239   0.00000  Uiso   1.00
C69    C     0.08547   0.60678   0.36213   0.00000  Uiso   1.00
N70    N     0.08600   0.63434   0.22642   0.00000  Uiso   1.00
H71    H     0.09648   0.58248   0.78342   0.00000  Uiso   1.00
H72    H     0.00994   0.57098   0.59053   0.00000  Uiso   1.00
C73    C     0.71048   0.35372   0.49646   0.00000  Uiso   1.00
C74    C     0.68982   0.37664   0.49826   0.00000  Uiso   1.00
C75    C     0.75661   0.37525   0.47616   0.00000  Uiso   1.00
C76    C     0.64187   0.41819   0.29092   0.00000  Uiso   1.00
C77    C     0.62098   0.44050   0.26176   0.00000  Uiso   1.00
C78    C     0.58262   0.42629   0.41403   0.00000  Uiso   1.00
C79    C     0.56525   0.38983   0.59791   0.00000  Uiso   1.00
C80    C     0.58628   0.36766   0.63213   0.00000  Uiso   1.00
N81    N     0.55998   0.44753   0.36596   0.00000  Uiso   1.00
C82    C     0.57157   0.48683   0.53387   0.00000  Uiso   1.00
C83    C     0.53465   0.49382   0.56207   0.00000  Uiso   1.00
C84    C     0.54016   0.53406   0.58161   0.00000  Uiso   1.00
C85    C     0.50600   0.54011   0.58186   0.00000  Uiso   1.00
H86    H     0.70772   0.41015   0.49429   0.00000  Uiso   1.00
H87    H     0.67058   0.42897   0.15751   0.00000  Uiso   1.00
H88    H     0.63393   0.46812   0.11158   0.00000  Uiso   1.00
H89    H     0.53557   0.37891   0.71618   0.00000  Uiso   1.00
H90    H     0.57267   0.34014   0.78389   0.00000  Uiso   1.00
H91    H     0.51144   0.57152   0.59137   0.00000  Uiso   1.00
H92    H     0.53873   0.43746   0.17239   0.00000  Uiso   1.00
C93    C     0.60678   0.52131   0.36213   0.00000  Uiso   1.00
N94    N     0.63434   0.54834   0.22642   0.00000  Uiso   1.00
H95    H     0.58248   0.48600   0.78342   0.00000  Uiso   1.00
H96    H     0.57098   0.56104   0.59053   0.00000  Uiso   1.00
C97    C     0.64628   0.35676   0.49646   0.00000  Uiso   1.00
C98    C     0.62336   0.31318   0.49826   0.00000  Uiso   1.00
C99    C     0.62475   0.38136   0.47616   0.00000  Uiso   1.00
C100   C     0.58181   0.22368   0.29092   0.00000  Uiso   1.00
C101   C     0.55950   0.18048   0.26176   0.00000  Uiso   1.00
C102   C     0.57371   0.15633   0.41403   0.00000  Uiso   1.00
C103   C     0.61017   0.17542   0.59791   0.00000  Uiso   1.00
C104   C     0.63234   0.21862   0.63213   0.00000  Uiso   1.00
N105   N     0.55247   0.11245   0.36596   0.00000  Uiso   1.00
C106   C     0.51317   0.08474   0.53387   0.00000  Uiso   1.00
C107   C     0.50618   0.04083   0.56207   0.00000  Uiso   1.00
C108   C     0.46594   0.00610   0.58161   0.00000  Uiso   1.00
C109   C     0.45989   0.96589   0.58186   0.00000  Uiso   1.00
H110   H     0.58985   0.29757   0.49429   0.00000  Uiso   1.00
H111   H     0.57103   0.24161   0.15751   0.00000  Uiso   1.00
H112   H     0.53188   0.16581   0.11158   0.00000  Uiso   1.00
H113   H     0.62109   0.15666   0.71618   0.00000  Uiso   1.00
H114   H     0.65986   0.23253   0.78389   0.00000  Uiso   1.00
H115   H     0.42848   0.93992   0.59137   0.00000  Uiso   1.00
H116   H     0.56254   0.10127   0.17239   0.00000  Uiso   1.00
C117   C     0.47869   0.08547   0.36213   0.00000  Uiso   1.00
N118   N     0.45166   0.08600   0.22642   0.00000  Uiso   1.00
H119   H     0.51400   0.09648   0.78342   0.00000  Uiso   1.00
H120   H     0.43896   0.00994   0.59053   0.00000  Uiso   1.00
C121   C     0.64324   0.28952   0.49646   0.00000  Uiso   1.00
C122   C     0.68682   0.31018   0.49826   0.00000  Uiso   1.00
C123   C     0.61864   0.24339   0.47616   0.00000  Uiso   1.00
C124   C     0.77632   0.35813   0.29092   0.00000  Uiso   1.00
C125   C     0.81952   0.37902   0.26176   0.00000  Uiso   1.00
C126   C     0.84367   0.41738   0.41403   0.00000  Uiso   1.00
C127   C     0.82458   0.43475   0.59791   0.00000  Uiso   1.00
C128   C     0.78138   0.41372   0.63213   0.00000  Uiso   1.00
N129   N     0.88755   0.44002   0.36596   0.00000  Uiso   1.00
C130   C     0.91526   0.42843   0.53387   0.00000  Uiso   1.00
C131   C     0.95917   0.46535   0.56207   0.00000  Uiso   1.00
C132   C     0.99390   0.45984   0.58161   0.00000  Uiso   1.00
C133   C     0.03411   0.49400   0.58186   0.00000  Uiso   1.00
H134   H     0.70243   0.29228   0.49429   0.00000  Uiso   1.00
H135   H     0.75839   0.32942   0.15751   0.00000  Uiso   1.00
H136   H     0.83419   0.36607   0.11158   0.00000  Uiso   1.00
H137   H     0.84334   0.46443   0.71618   0.00000  Uiso   1.00
H138   H     0.76747   0.42733   0.78389   0.00000  Uiso   1.00
H139   H     0.06008   0.48856   0.59137   0.00000  Uiso   1.00
H140   H     0.89873   0.46127   0.17239   0.00000  Uiso   1.00
C141   C     0.91453   0.39322   0.36213   0.00000  Uiso   1.00
N142   N     0.91400   0.36566   0.22642   0.00000  Uiso   1.00
H143   H     0.90352   0.41752   0.78342   0.00000  Uiso   1.00
H144   H     0.99006   0.42902   0.59053   0.00000  Uiso   1.00
loop_
_geom_bond_atom_site_label_1
_geom_bond_atom_site_label_2
_geom_bond_distance
_geom_bond_site_symmetry_2
_ccdc_geom_bond_type
C1     C2      1.405   .     D
C1     C3      1.490   .     S
C1     C50     1.405   .     S
C2     H14     1.081   .     S
C2     C25     1.405   .     S
C3     C52     1.409   .     D
C3     C56     1.409   .     S
C4     C5      1.398   .     D
C4     H15     1.082   .     S
C4     C27     1.409   .     S
C5     C6      1.396   .     S
C5     H16     1.082   .     S
C6     C7      1.395   .     D
C6     N9      1.428   .     S
C7     C8      1.399   .     S
C7     H17     1.082   .     S
C8     H18     1.082   .     S
C8     C27     1.409   .     D
N9     C10     1.472   .     S
N9     H20     1.047   .     S
C10    C11     1.525   .     S
C10    C21     1.475   .     S
C10    H23     1.104   .     S
C11    C12     1.409   .     D
C11    C85     1.407   .     S
C12    C13     1.397   .     S
C12    H24     1.083   .     S
C13    H19     1.083   .     S
C13    C83     1.407   .     D
C21    N22     1.158   .     T
C25    C26     1.405   .     D
C25    C27     1.490   .     S
C26    H38     1.081   .     S
C26    C49     1.405   .     S
C28    C29     1.398   .     D
C28    H39     1.082   .     S
C28    C51     1.409   .     S
C29    C30     1.396   .     S
C29    H40     1.082   .     S
C30    C31     1.395   .     D
C30    N33     1.428   .     S
C31    C32     1.399   .     S
C31    H41     1.082   .     S
C32    H42     1.082   .     S
C32    C51     1.409   .     D
N33    C34     1.472   .     S
N33    H44     1.047   .     S
C34    C35     1.525   .     S
C34    C45     1.475   .     S
C34    H47     1.104   .     S
C35    C36     1.409   .     D
C35    C109    1.407   .     S
C36    C37     1.397   1_565 S
C36    H48     1.083   .     S
C37    C36     1.397   1_545 S
C37    H43     1.083   .     S
C37    C107    1.407   .     D
C45    N46     1.158   .     T
C49    C50     1.405   .     D
C49    C51     1.490   .     S
C50    H62     1.081   .     S
C52    C53     1.398   .     S
C52    H63     1.082   .     S
C53    C54     1.396   .     D
C53    H64     1.082   .     S
C54    C55     1.395   .     S
C54    N57     1.428   .     S
C55    C56     1.399   .     D
C55    H65     1.082   .     S
C56    H66     1.082   .     S
N57    C58     1.472   .     S
N57    H68     1.047   .     S
C58    C59     1.525   .     S
C58    C69     1.475   .     S
C58    H71     1.104   .     S
C59    C60     1.409   .     S
C59    C133    1.407   .     D
C60    C61     1.397   1_455 D
C60    H72     1.083   .     S
C61    C60     1.397   1_655 D
C61    H67     1.083   .     S
C61    C131    1.407   .     S
C69    N70     1.158   .     T
C73    C74     1.405   .     D
C73    C75     1.490   .     S
C73    C122    1.405   .     S
C74    H86     1.081   .     S
C74    C97     1.405   .     S
C75    C124    1.409   .     D
C75    C128    1.409   .     S
C76    C77     1.398   .     D
C76    H87     1.082   .     S
C76    C99     1.409   .     S
C77    C78     1.396   .     S
C77    H88     1.082   .     S
C78    C79     1.395   .     D
C78    N81     1.428   .     S
C79    C80     1.399   .     S
C79    H89     1.082   .     S
C80    H90     1.082   .     S
C80    C99     1.409   .     D
N81    C82     1.472   .     S
N81    H92     1.047   .     S
C82    C83     1.525   .     S
C82    C93     1.475   .     S
C82    H95     1.104   .     S
C83    C84     1.409   .     S
C84    C85     1.397   .     D
C84    H96     1.083   .     S
C85    H91     1.083   .     S
C93    N94     1.158   .     T
C97    C98     1.405   .     D
C97    C99     1.490   .     S
C98    H110    1.081   .     S
C98    C121    1.405   .     S
C100   C101    1.398   .     D
C100   H111    1.082   .     S
C100   C123    1.409   .     S
C101   C102    1.396   .     S
C101   H112    1.082   .     S
C102   C103    1.395   .     D
C102   N105    1.428   .     S
C103   C104    1.399   .     S
C103   H113    1.082   .     S
C104   H114    1.082   .     S
C104   C123    1.409   .     D
N105   C106    1.472   .     S
N105   H116    1.047   .     S
C106   C107    1.525   .     S
C106   C117    1.475   .     S
C106   H119    1.104   .     S
C107   C108    1.409   .     S
C108   C109    1.397   1_545 D
C108   H120    1.083   .     S
C109   C108    1.397   1_565 D
C109   H115    1.083   .     S
C117   N118    1.158   .     T
C121   C122    1.405   .     D
C121   C123    1.490   .     S
C122   H134    1.081   .     S
C124   C125    1.398   .     S
C124   H135    1.082   .     S
C125   C126    1.396   .     D
C125   H136    1.082   .     S
C126   C127    1.395   .     S
C126   N129    1.428   .     S
C127   C128    1.399   .     D
C127   H137    1.082   .     S
C128   H138    1.082   .     S
N129   C130    1.472   .     S
N129   H140    1.047   .     S
C130   C131    1.525   .     S
C130   C141    1.475   .     S
C130   H143    1.104   .     S
C131   C132    1.409   .     D
C132   C133    1.397   1_655 S
C132   H144    1.083   .     S
C133   C132    1.397   1_455 S
C133   H139    1.083   .     S
C141   N142    1.158   .     T
