data_441
_audit_creation_date              2023-09-08
_audit_creation_method            'Materials Studio'
_symmetry_space_group_name_H-M    'P1'
_symmetry_Int_Tables_number       1
_symmetry_cell_setting            triclinic
loop_
_symmetry_equiv_pos_as_xyz
  x,y,z
_cell_length_a                    36.9611
_cell_length_b                    36.9611
_cell_length_c                    4.0507
_cell_angle_alpha                 90.0000
_cell_angle_beta                  90.0000
_cell_angle_gamma                 120.0000
loop_
_atom_site_label
_atom_site_type_symbol
_atom_site_fract_x
_atom_site_fract_y
_atom_site_fract_z
_atom_site_U_iso_or_equiv
_atom_site_adp_type
_atom_site_occupancy
C1     C     0.29089   0.64616   0.49992   0.00000  Uiso   1.00
N2     N     0.31152   0.62444   0.49915   0.00000  Uiso   1.00
C3     C     0.24477   0.62394   0.47936   0.00000  Uiso   1.00
C4     C     0.35736   0.57962   0.59751   0.00000  Uiso   1.00
C5     C     0.37752   0.55633   0.56183   0.00000  Uiso   1.00
C6     C     0.41650   0.57370   0.40339   0.00000  Uiso   1.00
C7     C     0.43522   0.61487   0.28769   0.00000  Uiso   1.00
C8     C     0.41547   0.63844   0.32787   0.00000  Uiso   1.00
N9     N     0.43685   0.54982   0.34291   0.00000  Uiso   1.00
C10    C     0.42589   0.51011   0.50916   0.00000  Uiso   1.00
C11    C     0.46390   0.50413   0.53822   0.00000  Uiso   1.00
C12    C     0.45988   0.46423   0.57598   0.00000  Uiso   1.00
C13    C     0.49590   0.46051   0.56534   0.00000  Uiso   1.00
O14    O     0.41976   0.42916   0.61794   0.00000  Uiso   1.00
C15    C     0.58404   0.60600   0.79599   0.00000  Uiso   1.00
H16    H     0.32709   0.56555   0.71700   0.00000  Uiso   1.00
H17    H     0.36208   0.52457   0.65141   0.00000  Uiso   1.00
H18    H     0.46499   0.62847   0.16192   0.00000  Uiso   1.00
H19    H     0.43021   0.66994   0.23039   0.00000  Uiso   1.00
H20    H     0.49268   0.42990   0.57583   0.00000  Uiso   1.00
H21    H     0.57343   0.62392   0.64396   0.00000  Uiso   1.00
H22    H     0.61750   0.62711   0.85714   0.00000  Uiso   1.00
H23    H     0.56659   0.59608   1.03287   0.00000  Uiso   1.00
H24    H     0.45895   0.56018   0.15228   0.00000  Uiso   1.00
C25    C     0.39029   0.47548   0.33449   0.00000  Uiso   1.00
N26    N     0.36209   0.44877   0.19707   0.00000  Uiso   1.00
H27    H     0.41518   0.51041   0.76215   0.00000  Uiso   1.00
C28    C     0.35384   0.64473   0.49992   0.00000  Uiso   1.00
N29    N     0.37556   0.68708   0.49915   0.00000  Uiso   1.00
C30    C     0.37606   0.62083   0.47936   0.00000  Uiso   1.00
C31    C     0.42038   0.77774   0.59751   0.00000  Uiso   1.00
C32    C     0.44367   0.82119   0.56183   0.00000  Uiso   1.00
C33    C     0.42630   0.84280   0.40339   0.00000  Uiso   1.00
C34    C     0.38513   0.82035   0.28769   0.00000  Uiso   1.00
C35    C     0.36156   0.77703   0.32787   0.00000  Uiso   1.00
N36    N     0.45018   0.88703   0.34291   0.00000  Uiso   1.00
C37    C     0.48989   0.91578   0.50916   0.00000  Uiso   1.00
C38    C     0.49587   0.95977   0.53822   0.00000  Uiso   1.00
C39    C     0.53577   0.99565   0.57598   0.00000  Uiso   1.00
C40    C     0.53949   0.03539   0.56534   0.00000  Uiso   1.00
O41    O     0.57084   0.99060   0.61794   0.00000  Uiso   1.00
C42    C     0.39400   0.97804   0.79599   0.00000  Uiso   1.00
H43    H     0.43445   0.76154   0.71700   0.00000  Uiso   1.00
H44    H     0.47543   0.83751   0.65141   0.00000  Uiso   1.00
H45    H     0.37153   0.83652   0.16192   0.00000  Uiso   1.00
H46    H     0.33006   0.76027   0.23039   0.00000  Uiso   1.00
H47    H     0.57010   0.06278   0.57583   0.00000  Uiso   1.00
H48    H     0.37608   0.94951   0.64396   0.00000  Uiso   1.00
H49    H     0.37289   0.99039   0.85714   0.00000  Uiso   1.00
H50    H     0.40392   0.97051   1.03287   0.00000  Uiso   1.00
H51    H     0.43982   0.89877   0.15228   0.00000  Uiso   1.00
C52    C     0.52452   0.91481   0.33449   0.00000  Uiso   1.00
N53    N     0.55123   0.91332   0.19707   0.00000  Uiso   1.00
H54    H     0.48959   0.90477   0.76215   0.00000  Uiso   1.00
C55    C     0.35527   0.70911   0.49992   0.00000  Uiso   1.00
N56    N     0.31292   0.68848   0.49915   0.00000  Uiso   1.00
C57    C     0.37917   0.75523   0.47936   0.00000  Uiso   1.00
C58    C     0.22226   0.64264   0.59751   0.00000  Uiso   1.00
C59    C     0.17881   0.62248   0.56183   0.00000  Uiso   1.00
C60    C     0.15720   0.58350   0.40339   0.00000  Uiso   1.00
C61    C     0.17965   0.56478   0.28769   0.00000  Uiso   1.00
C62    C     0.22297   0.58453   0.32787   0.00000  Uiso   1.00
N63    N     0.11297   0.56315   0.34291   0.00000  Uiso   1.00
C64    C     0.08422   0.57411   0.50916   0.00000  Uiso   1.00
C65    C     0.04023   0.53610   0.53822   0.00000  Uiso   1.00
C66    C     0.00435   0.54012   0.57598   0.00000  Uiso   1.00
C67    C     0.96461   0.50410   0.56534   0.00000  Uiso   1.00
O68    O     0.00940   0.58024   0.61794   0.00000  Uiso   1.00
C69    C     0.02196   0.41596   0.79599   0.00000  Uiso   1.00
H70    H     0.23846   0.67291   0.71700   0.00000  Uiso   1.00
H71    H     0.16249   0.63792   0.65141   0.00000  Uiso   1.00
H72    H     0.16348   0.53501   0.16192   0.00000  Uiso   1.00
H73    H     0.23973   0.56979   0.23039   0.00000  Uiso   1.00
H74    H     0.93722   0.50732   0.57583   0.00000  Uiso   1.00
H75    H     0.05049   0.42657   0.64396   0.00000  Uiso   1.00
H76    H     0.00961   0.38250   0.85714   0.00000  Uiso   1.00
H77    H     0.02949   0.43341   1.03287   0.00000  Uiso   1.00
H78    H     0.10123   0.54105   0.15228   0.00000  Uiso   1.00
C79    C     0.08519   0.60971   0.33449   0.00000  Uiso   1.00
N80    N     0.08668   0.63791   0.19707   0.00000  Uiso   1.00
H81    H     0.09523   0.58482   0.76215   0.00000  Uiso   1.00
C82    C     0.70911   0.35384   0.49992   0.00000  Uiso   1.00
N83    N     0.68848   0.37556   0.49915   0.00000  Uiso   1.00
C84    C     0.75523   0.37606   0.47936   0.00000  Uiso   1.00
C85    C     0.64264   0.42038   0.59751   0.00000  Uiso   1.00
C86    C     0.62248   0.44367   0.56183   0.00000  Uiso   1.00
C87    C     0.58350   0.42630   0.40339   0.00000  Uiso   1.00
C88    C     0.56478   0.38513   0.28769   0.00000  Uiso   1.00
C89    C     0.58453   0.36156   0.32787   0.00000  Uiso   1.00
N90    N     0.56315   0.45018   0.34291   0.00000  Uiso   1.00
C91    C     0.57411   0.48989   0.50916   0.00000  Uiso   1.00
C92    C     0.53610   0.49587   0.53822   0.00000  Uiso   1.00
C93    C     0.54012   0.53577   0.57598   0.00000  Uiso   1.00
C94    C     0.50410   0.53949   0.56534   0.00000  Uiso   1.00
O95    O     0.58024   0.57084   0.61794   0.00000  Uiso   1.00
C96    C     0.41596   0.39400   0.79599   0.00000  Uiso   1.00
H97    H     0.67291   0.43445   0.71700   0.00000  Uiso   1.00
H98    H     0.63792   0.47543   0.65141   0.00000  Uiso   1.00
H99    H     0.53501   0.37153   0.16192   0.00000  Uiso   1.00
H100   H     0.56979   0.33006   0.23039   0.00000  Uiso   1.00
H101   H     0.50732   0.57010   0.57583   0.00000  Uiso   1.00
H102   H     0.42657   0.37608   0.64396   0.00000  Uiso   1.00
H103   H     0.38250   0.37289   0.85714   0.00000  Uiso   1.00
H104   H     0.43341   0.40392   1.03287   0.00000  Uiso   1.00
H105   H     0.54105   0.43982   0.15228   0.00000  Uiso   1.00
C106   C     0.60971   0.52452   0.33449   0.00000  Uiso   1.00
N107   N     0.63791   0.55123   0.19707   0.00000  Uiso   1.00
H108   H     0.58482   0.48959   0.76215   0.00000  Uiso   1.00
C109   C     0.64616   0.35527   0.49992   0.00000  Uiso   1.00
N110   N     0.62444   0.31292   0.49915   0.00000  Uiso   1.00
C111   C     0.62394   0.37917   0.47936   0.00000  Uiso   1.00
C112   C     0.57962   0.22226   0.59751   0.00000  Uiso   1.00
C113   C     0.55633   0.17881   0.56183   0.00000  Uiso   1.00
C114   C     0.57370   0.15720   0.40339   0.00000  Uiso   1.00
C115   C     0.61487   0.17965   0.28769   0.00000  Uiso   1.00
C116   C     0.63844   0.22297   0.32787   0.00000  Uiso   1.00
N117   N     0.54982   0.11297   0.34291   0.00000  Uiso   1.00
C118   C     0.51011   0.08422   0.50916   0.00000  Uiso   1.00
C119   C     0.50413   0.04023   0.53822   0.00000  Uiso   1.00
C120   C     0.46423   0.00435   0.57598   0.00000  Uiso   1.00
C121   C     0.46051   0.96461   0.56534   0.00000  Uiso   1.00
O122   O     0.42916   0.00940   0.61794   0.00000  Uiso   1.00
C123   C     0.60600   0.02196   0.79599   0.00000  Uiso   1.00
H124   H     0.56555   0.23846   0.71700   0.00000  Uiso   1.00
H125   H     0.52457   0.16249   0.65141   0.00000  Uiso   1.00
H126   H     0.62847   0.16348   0.16192   0.00000  Uiso   1.00
H127   H     0.66994   0.23973   0.23039   0.00000  Uiso   1.00
H128   H     0.42990   0.93722   0.57583   0.00000  Uiso   1.00
H129   H     0.62392   0.05049   0.64396   0.00000  Uiso   1.00
H130   H     0.62711   0.00961   0.85714   0.00000  Uiso   1.00
H131   H     0.59608   0.02949   1.03287   0.00000  Uiso   1.00
H132   H     0.56018   0.10123   0.15228   0.00000  Uiso   1.00
C133   C     0.47548   0.08519   0.33449   0.00000  Uiso   1.00
N134   N     0.44877   0.08668   0.19707   0.00000  Uiso   1.00
H135   H     0.51041   0.09523   0.76215   0.00000  Uiso   1.00
C136   C     0.64473   0.29089   0.49992   0.00000  Uiso   1.00
N137   N     0.68708   0.31152   0.49915   0.00000  Uiso   1.00
C138   C     0.62083   0.24477   0.47936   0.00000  Uiso   1.00
C139   C     0.77774   0.35736   0.59751   0.00000  Uiso   1.00
C140   C     0.82119   0.37752   0.56183   0.00000  Uiso   1.00
C141   C     0.84280   0.41650   0.40339   0.00000  Uiso   1.00
C142   C     0.82035   0.43522   0.28769   0.00000  Uiso   1.00
C143   C     0.77703   0.41547   0.32787   0.00000  Uiso   1.00
N144   N     0.88703   0.43685   0.34291   0.00000  Uiso   1.00
C145   C     0.91578   0.42589   0.50916   0.00000  Uiso   1.00
C146   C     0.95977   0.46390   0.53822   0.00000  Uiso   1.00
C147   C     0.99565   0.45988   0.57598   0.00000  Uiso   1.00
C148   C     0.03539   0.49590   0.56534   0.00000  Uiso   1.00
O149   O     0.99060   0.41976   0.61794   0.00000  Uiso   1.00
C150   C     0.97804   0.58404   0.79599   0.00000  Uiso   1.00
H151   H     0.76154   0.32709   0.71700   0.00000  Uiso   1.00
H152   H     0.83751   0.36208   0.65141   0.00000  Uiso   1.00
H153   H     0.83652   0.46499   0.16192   0.00000  Uiso   1.00
H154   H     0.76027   0.43021   0.23039   0.00000  Uiso   1.00
H155   H     0.06278   0.49268   0.57583   0.00000  Uiso   1.00
H156   H     0.94951   0.57343   0.64396   0.00000  Uiso   1.00
H157   H     0.99039   0.61750   0.85714   0.00000  Uiso   1.00
H158   H     0.97051   0.56659   1.03287   0.00000  Uiso   1.00
H159   H     0.89877   0.45895   0.15228   0.00000  Uiso   1.00
C160   C     0.91481   0.39029   0.33449   0.00000  Uiso   1.00
N161   N     0.91332   0.36209   0.19707   0.00000  Uiso   1.00
H162   H     0.90477   0.41518   0.76215   0.00000  Uiso   1.00
loop_
_geom_bond_atom_site_label_1
_geom_bond_atom_site_label_2
_geom_bond_distance
_geom_bond_site_symmetry_2
_ccdc_geom_bond_type
C1     N2      1.356   .     D
C1     C3      1.479   .     S
C1     N56     1.355   .     S
N2     C28     1.355   .     S
C3     C58     1.405   .     D
C3     C62     1.405   .     S
C4     C5      1.399   .     S
C4     H16     1.084   .     S
C4     C30     1.405   .     D
C5     C6      1.405   .     D
C5     H17     1.080   .     S
C6     C7      1.400   .     S
C6     N9      1.438   .     S
C7     C8      1.398   .     D
C7     H18     1.082   .     S
C8     H19     1.083   .     S
C8     C30     1.405   .     S
N9     C10     1.476   .     S
N9     H24     1.048   .     S
C10    C11     1.532   .     S
C10    C25     1.479   .     S
C10    H27     1.101   .     S
C11    C12     1.415   .     S
C11    C94     1.409   .     D
C12    C13     1.406   .     D
C12    O14     1.409   .     S
C13    H20     1.078   .     S
C13    C92     1.409   .     S
O14    C96     1.430   .     S
C15    H21     1.110   .     S
C15    H22     1.111   .     S
C15    H23     1.111   .     S
C15    O95     1.430   .     S
C25    N26     1.158   .     T
C28    N29     1.356   .     D
C28    C30     1.479   .     S
N29    C55     1.355   .     S
C31    C32     1.399   .     S
C31    H43     1.084   .     S
C31    C57     1.405   .     D
C32    C33     1.405   .     D
C32    H44     1.080   .     S
C33    C34     1.400   .     S
C33    N36     1.438   .     S
C34    C35     1.398   .     D
C34    H45     1.082   .     S
C35    H46     1.083   .     S
C35    C57     1.405   .     S
N36    C37     1.476   .     S
N36    H51     1.048   .     S
C37    C38     1.532   .     S
C37    C52     1.479   .     S
C37    H54     1.101   .     S
C38    C39     1.415   .     S
C38    C121    1.409   .     D
C39    C40     1.406   1_565 D
C39    O41     1.409   .     S
C40    C39     1.406   1_545 D
C40    H47     1.078   .     S
C40    C119    1.409   .     S
O41    C123    1.430   1_565 S
C42    H48     1.110   .     S
C42    H49     1.111   .     S
C42    H50     1.111   .     S
C42    O122    1.430   1_565 S
C52    N53     1.158   .     T
C55    N56     1.356   .     D
C55    C57     1.479   .     S
C58    C59     1.399   .     S
C58    H70     1.084   .     S
C59    C60     1.405   .     D
C59    H71     1.080   .     S
C60    C61     1.400   .     S
C60    N63     1.438   .     S
C61    C62     1.398   .     D
C61    H72     1.082   .     S
C62    H73     1.083   .     S
N63    C64     1.476   .     S
N63    H78     1.048   .     S
C64    C65     1.532   .     S
C64    C79     1.479   .     S
C64    H81     1.101   .     S
C65    C66     1.415   .     S
C65    C148    1.409   .     D
C66    C67     1.406   1_455 D
C66    O68     1.409   .     S
C67    C66     1.406   1_655 D
C67    H74     1.078   .     S
C67    C146    1.409   .     S
O68    C150    1.430   1_455 S
C69    H75     1.110   .     S
C69    H76     1.111   .     S
C69    H77     1.111   .     S
C69    O149    1.430   1_455 S
C79    N80     1.158   .     T
C82    N83     1.356   .     D
C82    C84     1.479   .     S
C82    N137    1.355   .     S
N83    C109    1.355   .     S
C84    C139    1.405   .     D
C84    C143    1.405   .     S
C85    C86     1.399   .     S
C85    H97     1.084   .     S
C85    C111    1.405   .     D
C86    C87     1.405   .     D
C86    H98     1.080   .     S
C87    C88     1.400   .     S
C87    N90     1.438   .     S
C88    C89     1.398   .     D
C88    H99     1.082   .     S
C89    H100    1.083   .     S
C89    C111    1.405   .     S
N90    C91     1.476   .     S
N90    H105    1.048   .     S
C91    C92     1.532   .     S
C91    C106    1.479   .     S
C91    H108    1.101   .     S
C92    C93     1.415   .     D
C93    C94     1.406   .     S
C93    O95     1.409   .     S
C94    H101    1.078   .     S
C96    H102    1.110   .     S
C96    H103    1.111   .     S
C96    H104    1.111   .     S
C106   N107    1.158   .     T
C109   N110    1.356   .     D
C109   C111    1.479   .     S
N110   C136    1.355   .     S
C112   C113    1.399   .     S
C112   H124    1.084   .     S
C112   C138    1.405   .     D
C113   C114    1.405   .     D
C113   H125    1.080   .     S
C114   C115    1.400   .     S
C114   N117    1.438   .     S
C115   C116    1.398   .     D
C115   H126    1.082   .     S
C116   H127    1.083   .     S
C116   C138    1.405   .     S
N117   C118    1.476   .     S
N117   H132    1.048   .     S
C118   C119    1.532   .     S
C118   C133    1.479   .     S
C118   H135    1.101   .     S
C119   C120    1.415   .     D
C120   C121    1.406   1_545 S
C120   O122    1.409   .     S
C121   C120    1.406   1_565 S
C121   H128    1.078   .     S
O122   C42     1.430   1_545 S
C123   O41     1.430   1_545 S
C123   H129    1.110   .     S
C123   H130    1.111   .     S
C123   H131    1.111   .     S
C133   N134    1.158   .     T
C136   N137    1.356   .     D
C136   C138    1.479   .     S
C139   C140    1.399   .     S
C139   H151    1.084   .     S
C140   C141    1.405   .     D
C140   H152    1.080   .     S
C141   C142    1.400   .     S
C141   N144    1.438   .     S
C142   C143    1.398   .     D
C142   H153    1.082   .     S
C143   H154    1.083   .     S
N144   C145    1.476   .     S
N144   H159    1.048   .     S
C145   C146    1.532   .     S
C145   C160    1.479   .     S
C145   H162    1.101   .     S
C146   C147    1.415   .     D
C147   C148    1.406   1_655 S
C147   O149    1.409   .     S
C148   C147    1.406   1_455 S
C148   H155    1.078   .     S
O149   C69     1.430   1_655 S
C150   O68     1.430   1_655 S
C150   H156    1.110   .     S
C150   H157    1.111   .     S
C150   H158    1.111   .     S
C160   N161    1.158   .     T
