data_442
_audit_creation_date              2023-09-08
_audit_creation_method            'Materials Studio'
_symmetry_space_group_name_H-M    'P1'
_symmetry_Int_Tables_number       1
_symmetry_cell_setting            triclinic
loop_
_symmetry_equiv_pos_as_xyz
  x,y,z
_cell_length_a                    30.9480
_cell_length_b                    30.9480
_cell_length_c                    6.7963
_cell_angle_alpha                 90.0000
_cell_angle_beta                  90.0000
_cell_angle_gamma                 120.0000
loop_
_atom_site_label
_atom_site_type_symbol
_atom_site_fract_x
_atom_site_fract_y
_atom_site_fract_z
_atom_site_U_iso_or_equiv
_atom_site_adp_type
_atom_site_occupancy
N1     N     0.46701   0.25118   0.25302   0.00000  Uiso   1.00
C2     C     0.43517   0.20838   0.29028   0.00000  Uiso   1.00
C3     C     0.38365   0.18788   0.26886   0.00000  Uiso   1.00
C4     C     0.36515   0.21390   0.20455   0.00000  Uiso   1.00
C5     C     0.35136   0.14123   0.31292   0.00000  Uiso   1.00
O6     O     0.39410   0.25878   0.16031   0.00000  Uiso   1.00
H7     H     0.44587   0.18578   0.34135   0.00000  Uiso   1.00
H8     H     0.36514   0.12117   0.36200   0.00000  Uiso   1.00
H9     H     0.42798   0.26823   0.18181   0.00000  Uiso   1.00
C10    C     0.51687   0.26978   0.26992   0.00000  Uiso   1.00
C11    C     0.53831   0.24037   0.27720   0.00000  Uiso   1.00
C12    C     0.58801   0.26183   0.29405   0.00000  Uiso   1.00
C13    C     0.61675   0.31216   0.30418   0.00000  Uiso   1.00
C14    C     0.59571   0.34137   0.29318   0.00000  Uiso   1.00
C15    C     0.54615   0.32058   0.27541   0.00000  Uiso   1.00
O16    O     0.62386   0.39147   0.30067   0.00000  Uiso   1.00
H17    H     0.51714   0.20133   0.26670   0.00000  Uiso   1.00
H18    H     0.52995   0.34338   0.26728   0.00000  Uiso   1.00
N19    N     0.19966   0.08215   0.24698   0.00000  Uiso   1.00
C20    C     0.23149   0.12495   0.20972   0.00000  Uiso   1.00
C21    C     0.28302   0.14546   0.23114   0.00000  Uiso   1.00
C22    C     0.30151   0.11944   0.29545   0.00000  Uiso   1.00
C23    C     0.31531   0.19210   0.18708   0.00000  Uiso   1.00
O24    O     0.27257   0.07455   0.33969   0.00000  Uiso   1.00
H25    H     0.22080   0.14756   0.15865   0.00000  Uiso   1.00
H26    H     0.30153   0.21216   0.13800   0.00000  Uiso   1.00
H27    H     0.23869   0.06510   0.31819   0.00000  Uiso   1.00
C28    C     0.14980   0.06355   0.23008   0.00000  Uiso   1.00
C29    C     0.12835   0.09296   0.22280   0.00000  Uiso   1.00
C30    C     0.07866   0.07151   0.20595   0.00000  Uiso   1.00
C31    C     0.04992   0.02117   0.19582   0.00000  Uiso   1.00
C32    C     0.07096   0.99196   0.20682   0.00000  Uiso   1.00
C33    C     0.12052   0.01275   0.22459   0.00000  Uiso   1.00
O34    O     0.04281   0.94186   0.19933   0.00000  Uiso   1.00
H35    H     0.14953   0.13200   0.23330   0.00000  Uiso   1.00
H36    H     0.13672   0.98996   0.23272   0.00000  Uiso   1.00
N37    N     0.74882   0.21583   0.25302   0.00000  Uiso   1.00
C38    C     0.79162   0.22679   0.29028   0.00000  Uiso   1.00
C39    C     0.81212   0.19577   0.26886   0.00000  Uiso   1.00
C40    C     0.78610   0.15125   0.20455   0.00000  Uiso   1.00
C41    C     0.85877   0.21013   0.31292   0.00000  Uiso   1.00
O42    O     0.74122   0.13532   0.16031   0.00000  Uiso   1.00
H43    H     0.81422   0.26009   0.34135   0.00000  Uiso   1.00
H44    H     0.87883   0.24397   0.36200   0.00000  Uiso   1.00
H45    H     0.73177   0.15975   0.18181   0.00000  Uiso   1.00
C46    C     0.73022   0.24709   0.26992   0.00000  Uiso   1.00
C47    C     0.75963   0.29794   0.27720   0.00000  Uiso   1.00
C48    C     0.73817   0.32618   0.29405   0.00000  Uiso   1.00
C49    C     0.68784   0.30459   0.30418   0.00000  Uiso   1.00
C50    C     0.65863   0.25434   0.29318   0.00000  Uiso   1.00
C51    C     0.67942   0.22557   0.27541   0.00000  Uiso   1.00
O52    O     0.60853   0.23239   0.30067   0.00000  Uiso   1.00
H53    H     0.79867   0.31581   0.26670   0.00000  Uiso   1.00
H54    H     0.65662   0.18657   0.26728   0.00000  Uiso   1.00
N55    N     0.91785   0.11751   0.24698   0.00000  Uiso   1.00
C56    C     0.87505   0.10654   0.20972   0.00000  Uiso   1.00
C57    C     0.85454   0.13756   0.23114   0.00000  Uiso   1.00
C58    C     0.88056   0.18207   0.29545   0.00000  Uiso   1.00
C59    C     0.80790   0.12321   0.18708   0.00000  Uiso   1.00
O60    O     0.92545   0.19802   0.33969   0.00000  Uiso   1.00
H61    H     0.85244   0.07324   0.15865   0.00000  Uiso   1.00
H62    H     0.78784   0.08937   0.13800   0.00000  Uiso   1.00
H63    H     0.93490   0.17359   0.31819   0.00000  Uiso   1.00
C64    C     0.93645   0.08625   0.23008   0.00000  Uiso   1.00
C65    C     0.90704   0.03539   0.22280   0.00000  Uiso   1.00
C66    C     0.92849   0.00715   0.20595   0.00000  Uiso   1.00
C67    C     0.97883   0.02875   0.19582   0.00000  Uiso   1.00
C68    C     0.00804   0.07900   0.20682   0.00000  Uiso   1.00
C69    C     0.98725   0.10777   0.22459   0.00000  Uiso   1.00
O70    O     0.05814   0.10095   0.19933   0.00000  Uiso   1.00
H71    H     0.86800   0.01753   0.23330   0.00000  Uiso   1.00
H72    H     0.01004   0.14676   0.23272   0.00000  Uiso   1.00
N73    N     0.78417   0.53299   0.25302   0.00000  Uiso   1.00
C74    C     0.77321   0.56483   0.29028   0.00000  Uiso   1.00
C75    C     0.80423   0.61635   0.26886   0.00000  Uiso   1.00
C76    C     0.84875   0.63485   0.20455   0.00000  Uiso   1.00
C77    C     0.78987   0.64864   0.31292   0.00000  Uiso   1.00
O78    O     0.86468   0.60590   0.16031   0.00000  Uiso   1.00
H79    H     0.73991   0.55413   0.34135   0.00000  Uiso   1.00
H80    H     0.75603   0.63486   0.36200   0.00000  Uiso   1.00
H81    H     0.84025   0.57202   0.18181   0.00000  Uiso   1.00
C82    C     0.75291   0.48313   0.26992   0.00000  Uiso   1.00
C83    C     0.70206   0.46169   0.27720   0.00000  Uiso   1.00
C84    C     0.67382   0.41199   0.29405   0.00000  Uiso   1.00
C85    C     0.69541   0.38325   0.30418   0.00000  Uiso   1.00
C86    C     0.74566   0.40429   0.29318   0.00000  Uiso   1.00
C87    C     0.77443   0.45385   0.27541   0.00000  Uiso   1.00
O88    O     0.76761   0.37614   0.30067   0.00000  Uiso   1.00
H89    H     0.68419   0.48286   0.26670   0.00000  Uiso   1.00
H90    H     0.81343   0.47005   0.26728   0.00000  Uiso   1.00
N91    N     0.88249   0.80034   0.24698   0.00000  Uiso   1.00
C92    C     0.89346   0.76851   0.20972   0.00000  Uiso   1.00
C93    C     0.86244   0.71698   0.23114   0.00000  Uiso   1.00
C94    C     0.81793   0.69849   0.29545   0.00000  Uiso   1.00
C95    C     0.87679   0.68469   0.18708   0.00000  Uiso   1.00
O96    O     0.80198   0.72743   0.33969   0.00000  Uiso   1.00
H97    H     0.92676   0.77920   0.15865   0.00000  Uiso   1.00
H98    H     0.91063   0.69847   0.13800   0.00000  Uiso   1.00
H99    H     0.82641   0.76131   0.31819   0.00000  Uiso   1.00
C100   C     0.91375   0.85020   0.23008   0.00000  Uiso   1.00
C101   C     0.96461   0.87165   0.22280   0.00000  Uiso   1.00
C102   C     0.99285   0.92134   0.20595   0.00000  Uiso   1.00
C103   C     0.97125   0.95008   0.19582   0.00000  Uiso   1.00
C104   C     0.92100   0.92904   0.20682   0.00000  Uiso   1.00
C105   C     0.89223   0.87948   0.22459   0.00000  Uiso   1.00
O106   O     0.89905   0.95719   0.19933   0.00000  Uiso   1.00
H107   H     0.98247   0.85047   0.23330   0.00000  Uiso   1.00
H108   H     0.85324   0.86328   0.23272   0.00000  Uiso   1.00
N109   N     0.66667   0.33333   0.32232   0.00000  Uiso   1.00
N110   N     0.00000   0.00000   0.17768   0.00000  Uiso   1.00
loop_
_geom_bond_atom_site_label_1
_geom_bond_atom_site_label_2
_geom_bond_distance
_geom_bond_site_symmetry_2
_ccdc_geom_bond_type
N1     C2      1.218   .     D
N1     C10     1.355   .     S
C2     C3      1.398   .     S
C2     H7      0.975   .     S
C3     C4      1.276   .     S
C3     C5      1.315   .     D
C4     O6      1.256   .     S
C4     C23     1.345   .     D
C5     H8      0.971   .     S
C5     C22     1.345   .     S
O6     H9      0.948   .     S
C10    C11     1.369   .     D
C10    C15     1.367   .     S
C11    C12     1.341   .     S
C11    H17     1.050   .     S
C12    C13     1.355   .     D
C12    O52     1.347   .     S
C13    C14     1.355   .     S
C13    N109    1.349   .     S
C14    C15     1.339   .     D
C14    O16     1.347   .     S
C15    H18     1.052   .     S
O16    C84     1.347   .     S
N19    C20     1.218   .     D
N19    C28     1.355   .     S
C20    C21     1.398   .     S
C20    H25     0.975   .     S
C21    C22     1.276   .     D
C21    C23     1.315   .     S
C22    O24     1.256   .     S
C23    H26     0.971   .     S
O24    H27     0.948   .     S
C28    C29     1.370   .     D
C28    C33     1.367   .     S
C29    C30     1.341   .     S
C29    H35     1.050   .     S
C30    C31     1.355   .     D
C30    O70     1.347   .     S
C31    C32     1.355   1_545 S
C31    N110    1.349   .     S
C32    C31     1.355   1_565 S
C32    C33     1.339   1_565 D
C32    O34     1.347   .     S
C33    C32     1.339   1_545 D
C33    H36     1.051   1_545 S
O34    C102    1.347   1_455 S
H36    C33     1.051   1_565 S
N37    C38     1.218   .     D
N37    C46     1.355   .     S
C38    C39     1.398   .     S
C38    H43     0.975   .     S
C39    C40     1.276   .     S
C39    C41     1.315   .     D
C40    O42     1.256   .     S
C40    C59     1.345   .     D
C41    H44     0.971   .     S
C41    C58     1.345   .     S
O42    H45     0.948   .     S
C46    C47     1.369   .     D
C46    C51     1.367   .     S
C47    C48     1.341   .     S
C47    H53     1.050   .     S
C48    C49     1.355   .     D
C48    O88     1.347   .     S
C49    C50     1.355   .     S
C49    N109    1.349   .     S
C50    C51     1.339   .     D
C50    O52     1.347   .     S
C51    H54     1.052   .     S
N55    C56     1.218   .     D
N55    C64     1.355   .     S
C56    C57     1.398   .     S
C56    H61     0.975   .     S
C57    C58     1.276   .     D
C57    C59     1.315   .     S
C58    O60     1.256   .     S
C59    H62     0.971   .     S
O60    H63     0.948   .     S
C64    C65     1.370   .     D
C64    C69     1.367   .     S
C65    C66     1.341   .     S
C65    H71     1.050   .     S
C66    C67     1.355   .     D
C66    O106    1.347   1_545 S
C67    C68     1.355   1_655 S
C67    N110    1.349   1_655 S
C68    C67     1.355   1_455 S
C68    C69     1.339   1_455 D
C68    O70     1.347   .     S
C69    C68     1.339   1_655 D
C69    H72     1.051   1_655 S
H72    C69     1.051   1_455 S
N73    C74     1.218   .     D
N73    C82     1.355   .     S
C74    C75     1.398   .     S
C74    H79     0.975   .     S
C75    C76     1.276   .     S
C75    C77     1.315   .     D
C76    O78     1.256   .     S
C76    C95     1.345   .     D
C77    H80     0.971   .     S
C77    C94     1.345   .     S
O78    H81     0.948   .     S
C82    C83     1.369   .     D
C82    C87     1.367   .     S
C83    C84     1.341   .     S
C83    H89     1.050   .     S
C84    C85     1.355   .     D
C85    C86     1.355   .     S
C85    N109    1.349   .     S
C86    C87     1.339   .     D
C86    O88     1.347   .     S
C87    H90     1.052   .     S
N91    C92     1.218   .     D
N91    C100    1.355   .     S
C92    C93     1.398   .     S
C92    H97     0.975   .     S
C93    C94     1.276   .     D
C93    C95     1.315   .     S
C94    O96     1.256   .     S
C95    H98     0.971   .     S
O96    H99     0.948   .     S
C100   C101    1.370   .     D
C100   C105    1.367   .     S
C101   C102    1.341   .     S
C101   H107    1.050   .     S
C102   O34     1.347   1_655 S
C102   C103    1.355   .     D
C103   C104    1.355   .     S
C103   N110    1.349   1_665 S
C104   C105    1.339   .     D
C104   O106    1.347   .     S
C105   H108    1.051   .     S
O106   C66     1.347   1_565 S
N110   C67     1.349   1_455 S
N110   C103    1.349   1_445 S
