data_443
_audit_creation_date              2023-09-08
_audit_creation_method            'Materials Studio'
_symmetry_space_group_name_H-M    'P1'
_symmetry_Int_Tables_number       1
_symmetry_cell_setting            triclinic
loop_
_symmetry_equiv_pos_as_xyz
  x,y,z
_cell_length_a                    25.4170
_cell_length_b                    25.4170
_cell_length_c                    12.3770
_cell_angle_alpha                 90.0000
_cell_angle_beta                  90.0000
_cell_angle_gamma                 90.0000
loop_
_atom_site_label
_atom_site_type_symbol
_atom_site_fract_x
_atom_site_fract_y
_atom_site_fract_z
_atom_site_U_iso_or_equiv
_atom_site_adp_type
_atom_site_occupancy
C1     C     0.30600   0.50800   0.22142   0.00000  Uiso   1.00
C2     C     0.28300   0.53400   0.30842   0.00000  Uiso   1.00
C3     C     0.22800   0.53300   0.32442   0.00000  Uiso   1.00
C4     C     0.46600   0.54300   0.13342   0.00000  Uiso   1.00
C5     C     0.19500   0.50900   0.25042   0.00000  Uiso   1.00
C6     C     0.13700   0.50700   0.26742   0.00000  Uiso   1.00
N7     N     0.35900   0.51100   0.20942   0.00000  Uiso   1.00
C8     C     0.21800   0.48300   0.15442   0.00000  Uiso   1.00
C9     C     0.27200   0.48000   0.14242   0.00000  Uiso   1.00
C10    C     0.38900   0.48300   0.13942   0.00000  Uiso   1.00
C11    C     0.48000   0.44900   0.13142   0.00000  Uiso   1.00
C12    C     0.44500   0.49200   0.13342   0.00000  Uiso   1.00
N13    N     0.05900   0.44500   0.27242   0.00000  Uiso   1.00
C14    C     0.11200   0.45500   0.27342   0.00000  Uiso   1.00
C15    C     0.14000   0.40800   0.27542   0.00000  Uiso   1.00
C16    C     0.05500   0.39200   0.27142   0.00000  Uiso   1.00
C17    C     0.10400   0.36800   0.27142   0.00000  Uiso   1.00
Br18   Br    0.09269   0.96353   0.12813   0.00000  Uiso   1.00
H19    H     0.30865   0.55656   0.36812   0.00000  Uiso   1.00
H20    H     0.21016   0.55216   0.39921   0.00000  Uiso   1.00
H21    H     0.43813   0.57814   0.13509   0.00000  Uiso   1.00
H22    H     0.19117   0.46537   0.09009   0.00000  Uiso   1.00
H23    H     0.28962   0.45639   0.07297   0.00000  Uiso   1.00
H24    H     0.37001   0.45220   0.08499   0.00000  Uiso   1.00
H25    H     0.18480   0.40862   0.27970   0.00000  Uiso   1.00
H26    H     0.10707   0.32328   0.26842   0.00000  Uiso   1.00
C27    C     0.69400   0.49200   0.22142   0.00000  Uiso   1.00
C28    C     0.71700   0.46600   0.30842   0.00000  Uiso   1.00
C29    C     0.77200   0.46700   0.32442   0.00000  Uiso   1.00
C30    C     0.53400   0.45700   0.13342   0.00000  Uiso   1.00
C31    C     0.80500   0.49100   0.25042   0.00000  Uiso   1.00
C32    C     0.86300   0.49300   0.26742   0.00000  Uiso   1.00
N33    N     0.64100   0.48900   0.20942   0.00000  Uiso   1.00
C34    C     0.78200   0.51700   0.15442   0.00000  Uiso   1.00
C35    C     0.72800   0.52000   0.14242   0.00000  Uiso   1.00
C36    C     0.61100   0.51700   0.13942   0.00000  Uiso   1.00
C37    C     0.52000   0.55100   0.13142   0.00000  Uiso   1.00
C38    C     0.55500   0.50800   0.13342   0.00000  Uiso   1.00
N39    N     0.94100   0.55500   0.27242   0.00000  Uiso   1.00
C40    C     0.88800   0.54500   0.27342   0.00000  Uiso   1.00
C41    C     0.86000   0.59200   0.27542   0.00000  Uiso   1.00
C42    C     0.94500   0.60800   0.27142   0.00000  Uiso   1.00
C43    C     0.89600   0.63200   0.27142   0.00000  Uiso   1.00
Br44   Br    0.90731   0.03647   0.12813   0.00000  Uiso   1.00
H45    H     0.69135   0.44344   0.36812   0.00000  Uiso   1.00
H46    H     0.78984   0.44784   0.39921   0.00000  Uiso   1.00
H47    H     0.56187   0.42186   0.13509   0.00000  Uiso   1.00
H48    H     0.80883   0.53463   0.09009   0.00000  Uiso   1.00
H49    H     0.71038   0.54361   0.07297   0.00000  Uiso   1.00
H50    H     0.62999   0.54780   0.08499   0.00000  Uiso   1.00
H51    H     0.81520   0.59138   0.27970   0.00000  Uiso   1.00
H52    H     0.89293   0.67672   0.26842   0.00000  Uiso   1.00
C53    C     0.99200   0.80600   0.22142   0.00000  Uiso   1.00
C54    C     0.96600   0.78300   0.30842   0.00000  Uiso   1.00
C55    C     0.96700   0.72800   0.32442   0.00000  Uiso   1.00
C56    C     0.95700   0.96600   0.13342   0.00000  Uiso   1.00
C57    C     0.99100   0.69500   0.25042   0.00000  Uiso   1.00
C58    C     0.99300   0.63700   0.26742   0.00000  Uiso   1.00
N59    N     0.98900   0.85900   0.20942   0.00000  Uiso   1.00
C60    C     0.01700   0.71800   0.15442   0.00000  Uiso   1.00
C61    C     0.02000   0.77200   0.14242   0.00000  Uiso   1.00
C62    C     0.01700   0.88900   0.13942   0.00000  Uiso   1.00
C63    C     0.05100   0.98000   0.13142   0.00000  Uiso   1.00
C64    C     0.00800   0.94500   0.13342   0.00000  Uiso   1.00
N65    N     0.05500   0.55900   0.27242   0.00000  Uiso   1.00
C66    C     0.04500   0.61200   0.27342   0.00000  Uiso   1.00
C67    C     0.09200   0.64000   0.27542   0.00000  Uiso   1.00
C68    C     0.10800   0.55500   0.27142   0.00000  Uiso   1.00
C69    C     0.13200   0.60400   0.27142   0.00000  Uiso   1.00
Br70   Br    0.53647   0.59269   0.12813   0.00000  Uiso   1.00
H71    H     0.94344   0.80865   0.36812   0.00000  Uiso   1.00
H72    H     0.94784   0.71016   0.39921   0.00000  Uiso   1.00
H73    H     0.92186   0.93813   0.13509   0.00000  Uiso   1.00
H74    H     0.03463   0.69117   0.09009   0.00000  Uiso   1.00
H75    H     0.04361   0.78962   0.07297   0.00000  Uiso   1.00
H76    H     0.04780   0.87001   0.08499   0.00000  Uiso   1.00
H77    H     0.02188   0.53053   0.27256   0.00000  Uiso   1.00
H78    H     0.09138   0.68480   0.27970   0.00000  Uiso   1.00
H79    H     0.17672   0.60707   0.26842   0.00000  Uiso   1.00
C80    C     0.00800   0.19400   0.22142   0.00000  Uiso   1.00
C81    C     0.03400   0.21700   0.30842   0.00000  Uiso   1.00
C82    C     0.03300   0.27200   0.32442   0.00000  Uiso   1.00
C83    C     0.04300   0.03400   0.13342   0.00000  Uiso   1.00
C84    C     0.00900   0.30500   0.25042   0.00000  Uiso   1.00
C85    C     0.00700   0.36300   0.26742   0.00000  Uiso   1.00
N86    N     0.01100   0.14100   0.20942   0.00000  Uiso   1.00
C87    C     0.98300   0.28200   0.15442   0.00000  Uiso   1.00
C88    C     0.98000   0.22800   0.14242   0.00000  Uiso   1.00
C89    C     0.98300   0.11100   0.13942   0.00000  Uiso   1.00
C90    C     0.94900   0.02000   0.13142   0.00000  Uiso   1.00
C91    C     0.99200   0.05500   0.13342   0.00000  Uiso   1.00
N92    N     0.94500   0.44100   0.27242   0.00000  Uiso   1.00
C93    C     0.95500   0.38800   0.27342   0.00000  Uiso   1.00
C94    C     0.90800   0.36000   0.27542   0.00000  Uiso   1.00
C95    C     0.89200   0.44500   0.27142   0.00000  Uiso   1.00
C96    C     0.86800   0.39600   0.27142   0.00000  Uiso   1.00
Br97   Br    0.46353   0.40731   0.12813   0.00000  Uiso   1.00
H98    H     0.05656   0.19135   0.36812   0.00000  Uiso   1.00
H99    H     0.05216   0.28984   0.39921   0.00000  Uiso   1.00
H100   H     0.07814   0.06187   0.13509   0.00000  Uiso   1.00
H101   H     0.96537   0.30883   0.09009   0.00000  Uiso   1.00
H102   H     0.95639   0.21038   0.07297   0.00000  Uiso   1.00
H103   H     0.95220   0.12999   0.08499   0.00000  Uiso   1.00
H104   H     0.97812   0.46947   0.27256   0.00000  Uiso   1.00
H105   H     0.90862   0.31520   0.27970   0.00000  Uiso   1.00
H106   H     0.82328   0.39293   0.26842   0.00000  Uiso   1.00
C107   C     0.19400   0.99200   0.77858   0.00000  Uiso   1.00
C108   C     0.21700   0.96600   0.69158   0.00000  Uiso   1.00
C109   C     0.27200   0.96700   0.67558   0.00000  Uiso   1.00
C110   C     0.03400   0.95700   0.86658   0.00000  Uiso   1.00
C111   C     0.30500   0.99100   0.74958   0.00000  Uiso   1.00
C112   C     0.36300   0.99300   0.73258   0.00000  Uiso   1.00
N113   N     0.14100   0.98900   0.79058   0.00000  Uiso   1.00
C114   C     0.28200   0.01700   0.84558   0.00000  Uiso   1.00
C115   C     0.22800   0.02000   0.85758   0.00000  Uiso   1.00
C116   C     0.11100   0.01700   0.86058   0.00000  Uiso   1.00
C117   C     0.02000   0.05100   0.86858   0.00000  Uiso   1.00
C118   C     0.05500   0.00800   0.86658   0.00000  Uiso   1.00
N119   N     0.44100   0.05500   0.72758   0.00000  Uiso   1.00
C120   C     0.38800   0.04500   0.72658   0.00000  Uiso   1.00
C121   C     0.36000   0.09200   0.72458   0.00000  Uiso   1.00
C122   C     0.44500   0.10800   0.72858   0.00000  Uiso   1.00
C123   C     0.39600   0.13200   0.72858   0.00000  Uiso   1.00
Br124  Br    0.40731   0.53647   0.87187   0.00000  Uiso   1.00
H125   H     0.19135   0.94344   0.63188   0.00000  Uiso   1.00
H126   H     0.28984   0.94784   0.60079   0.00000  Uiso   1.00
H127   H     0.06187   0.92186   0.86491   0.00000  Uiso   1.00
H128   H     0.30883   0.03463   0.90991   0.00000  Uiso   1.00
H129   H     0.21038   0.04361   0.92703   0.00000  Uiso   1.00
H130   H     0.12999   0.04780   0.91501   0.00000  Uiso   1.00
H131   H     0.31520   0.09138   0.72030   0.00000  Uiso   1.00
H132   H     0.39293   0.17672   0.73158   0.00000  Uiso   1.00
C133   C     0.80600   0.00800   0.77858   0.00000  Uiso   1.00
C134   C     0.78300   0.03400   0.69158   0.00000  Uiso   1.00
C135   C     0.72800   0.03300   0.67558   0.00000  Uiso   1.00
C136   C     0.96600   0.04300   0.86658   0.00000  Uiso   1.00
C137   C     0.69500   0.00900   0.74958   0.00000  Uiso   1.00
C138   C     0.63700   0.00700   0.73258   0.00000  Uiso   1.00
N139   N     0.85900   0.01100   0.79058   0.00000  Uiso   1.00
C140   C     0.71800   0.98300   0.84558   0.00000  Uiso   1.00
C141   C     0.77200   0.98000   0.85758   0.00000  Uiso   1.00
C142   C     0.88900   0.98300   0.86058   0.00000  Uiso   1.00
C143   C     0.98000   0.94900   0.86858   0.00000  Uiso   1.00
C144   C     0.94500   0.99200   0.86658   0.00000  Uiso   1.00
N145   N     0.55900   0.94500   0.72758   0.00000  Uiso   1.00
C146   C     0.61200   0.95500   0.72658   0.00000  Uiso   1.00
C147   C     0.64000   0.90800   0.72458   0.00000  Uiso   1.00
C148   C     0.55500   0.89200   0.72858   0.00000  Uiso   1.00
C149   C     0.60400   0.86800   0.72858   0.00000  Uiso   1.00
Br150  Br    0.59269   0.46353   0.87187   0.00000  Uiso   1.00
H151   H     0.80865   0.05656   0.63188   0.00000  Uiso   1.00
H152   H     0.71016   0.05216   0.60079   0.00000  Uiso   1.00
H153   H     0.93813   0.07814   0.86491   0.00000  Uiso   1.00
H154   H     0.69117   0.96537   0.90991   0.00000  Uiso   1.00
H155   H     0.78962   0.95639   0.92703   0.00000  Uiso   1.00
H156   H     0.87001   0.95220   0.91501   0.00000  Uiso   1.00
H157   H     0.68480   0.90862   0.72030   0.00000  Uiso   1.00
H158   H     0.60707   0.82328   0.73158   0.00000  Uiso   1.00
C159   C     0.50800   0.69400   0.77858   0.00000  Uiso   1.00
C160   C     0.53400   0.71700   0.69158   0.00000  Uiso   1.00
C161   C     0.53300   0.77200   0.67558   0.00000  Uiso   1.00
C162   C     0.54300   0.53400   0.86658   0.00000  Uiso   1.00
C163   C     0.50900   0.80500   0.74958   0.00000  Uiso   1.00
C164   C     0.50700   0.86300   0.73258   0.00000  Uiso   1.00
N165   N     0.51100   0.64100   0.79058   0.00000  Uiso   1.00
C166   C     0.48300   0.78200   0.84558   0.00000  Uiso   1.00
C167   C     0.48000   0.72800   0.85758   0.00000  Uiso   1.00
C168   C     0.48300   0.61100   0.86058   0.00000  Uiso   1.00
C169   C     0.44900   0.52000   0.86858   0.00000  Uiso   1.00
C170   C     0.49200   0.55500   0.86658   0.00000  Uiso   1.00
N171   N     0.44500   0.94100   0.72758   0.00000  Uiso   1.00
C172   C     0.45500   0.88800   0.72658   0.00000  Uiso   1.00
C173   C     0.40800   0.86000   0.72458   0.00000  Uiso   1.00
C174   C     0.39200   0.94500   0.72858   0.00000  Uiso   1.00
C175   C     0.36800   0.89600   0.72858   0.00000  Uiso   1.00
Br176  Br    0.96353   0.90731   0.87187   0.00000  Uiso   1.00
H177   H     0.55656   0.69135   0.63188   0.00000  Uiso   1.00
H178   H     0.55216   0.78984   0.60079   0.00000  Uiso   1.00
H179   H     0.57814   0.56187   0.86491   0.00000  Uiso   1.00
H180   H     0.46537   0.80883   0.90991   0.00000  Uiso   1.00
H181   H     0.45639   0.71038   0.92703   0.00000  Uiso   1.00
H182   H     0.45220   0.62999   0.91501   0.00000  Uiso   1.00
H183   H     0.47812   0.96947   0.72744   0.00000  Uiso   1.00
H184   H     0.40862   0.81520   0.72030   0.00000  Uiso   1.00
H185   H     0.32328   0.89293   0.73158   0.00000  Uiso   1.00
C186   C     0.49200   0.30600   0.77858   0.00000  Uiso   1.00
C187   C     0.46600   0.28300   0.69158   0.00000  Uiso   1.00
C188   C     0.46700   0.22800   0.67558   0.00000  Uiso   1.00
C189   C     0.45700   0.46600   0.86658   0.00000  Uiso   1.00
C190   C     0.49100   0.19500   0.74958   0.00000  Uiso   1.00
C191   C     0.49300   0.13700   0.73258   0.00000  Uiso   1.00
N192   N     0.48900   0.35900   0.79058   0.00000  Uiso   1.00
C193   C     0.51700   0.21800   0.84558   0.00000  Uiso   1.00
C194   C     0.52000   0.27200   0.85758   0.00000  Uiso   1.00
C195   C     0.51700   0.38900   0.86058   0.00000  Uiso   1.00
C196   C     0.55100   0.48000   0.86858   0.00000  Uiso   1.00
C197   C     0.50800   0.44500   0.86658   0.00000  Uiso   1.00
N198   N     0.55500   0.05900   0.72758   0.00000  Uiso   1.00
C199   C     0.54500   0.11200   0.72658   0.00000  Uiso   1.00
C200   C     0.59200   0.14000   0.72458   0.00000  Uiso   1.00
C201   C     0.60800   0.05500   0.72858   0.00000  Uiso   1.00
C202   C     0.63200   0.10400   0.72858   0.00000  Uiso   1.00
Br203  Br    0.03647   0.09269   0.87187   0.00000  Uiso   1.00
H204   H     0.44344   0.30865   0.63188   0.00000  Uiso   1.00
H205   H     0.44784   0.21016   0.60079   0.00000  Uiso   1.00
H206   H     0.42186   0.43813   0.86491   0.00000  Uiso   1.00
H207   H     0.53463   0.19117   0.90991   0.00000  Uiso   1.00
H208   H     0.54361   0.28962   0.92703   0.00000  Uiso   1.00
H209   H     0.54780   0.37001   0.91501   0.00000  Uiso   1.00
H210   H     0.52188   0.03053   0.72744   0.00000  Uiso   1.00
H211   H     0.59138   0.18480   0.72030   0.00000  Uiso   1.00
H212   H     0.67672   0.10707   0.73158   0.00000  Uiso   1.00
loop_
_geom_bond_atom_site_label_1
_geom_bond_atom_site_label_2
_geom_bond_distance
_geom_bond_site_symmetry_2
_ccdc_geom_bond_type
C1     C2      1.392   .     D
C1     N7      1.357   .     S
C1     C9      1.486   .     S
C2     C3      1.412   .     S
C2     H19     1.140   .     S
C3     C5      1.384   .     D
C3     H20     1.140   .     S
C4     C12     1.402   .     S
C4     H21     1.140   .     S
C4     C37     1.388   .     S
C4     Br70    2.193   .     S
C5     C6      1.490   .     S
C5     C8      1.480   .     S
C6     C14     1.468   .     D
C6     C68     1.426   .     S
N7     C10     1.356   .     D
C8     C9      1.383   .     D
C8     H22     1.140   .     S
C9     H23     1.140   .     S
C10    C12     1.444   .     S
C10    H24     1.140   .     S
C11    C12     1.409   .     D
C11    C30     1.388   .     S
N13    C14     1.371   .     S
N13    C16     1.351   .     D
C14    C15     1.391   .     S
C15    C17     1.369   .     D
C15    H25     1.140   .     S
C16    C17     1.387   .     S
C16    C85     1.426   .     S
C17    H26     1.140   .     S
Br18   C83     2.193   1_565 S
C27    C28     1.392   .     D
C27    N33     1.357   .     S
C27    C35     1.486   .     S
C28    C29     1.412   .     S
C28    H45     1.140   .     S
C29    C31     1.384   .     D
C29    H46     1.140   .     S
C30    C38     1.402   .     S
C30    H47     1.140   .     S
C30    Br97    2.193   .     S
C31    C32     1.490   .     S
C31    C34     1.480   .     S
C32    C40     1.468   .     S
C32    C95     1.426   .     D
N33    C36     1.356   .     D
C34    C35     1.383   .     D
C34    H48     1.140   .     S
C35    H49     1.140   .     S
C36    C38     1.444   .     S
C36    H50     1.140   .     S
C37    C38     1.409   .     D
N39    C40     1.371   .     D
N39    C42     1.351   .     S
C40    C41     1.391   .     S
C41    C43     1.369   .     D
C41    H51     1.140   .     S
C42    C43     1.387   .     S
C42    C58     1.426   .     D
C43    H52     1.140   .     S
Br44   C56     2.193   1_545 S
C53    C54     1.392   .     D
C53    N59     1.357   .     S
C53    C61     1.486   1_655 S
C54    C55     1.412   .     S
C54    H71     1.140   .     S
C55    C57     1.384   .     D
C55    H72     1.140   .     S
C56    H73     1.140   .     S
C56    Br44    2.193   1_565 S
C56    C64     1.402   1_655 S
C56    C90     1.388   1_565 S
C57    C58     1.490   .     S
C57    C60     1.480   1_655 S
C58    C66     1.468   1_655 S
N59    C62     1.356   1_655 D
C60    C61     1.383   .     D
C60    H74     1.140   .     S
C60    C57     1.480   1_455 S
C61    H75     1.140   .     S
C61    C53     1.486   1_455 S
C62    C64     1.444   .     S
C62    H76     1.140   .     S
C62    N59     1.356   1_455 D
C63    C64     1.409   .     D
C63    C83     1.388   1_565 S
C64    C56     1.402   1_455 S
N65    C66     1.371   .     S
N65    C68     1.351   .     S
N65    H77     1.110   .     S
C66    C67     1.391   .     D
C66    C58     1.468   1_455 S
C67    C69     1.369   .     S
C67    H78     1.140   .     S
C68    C69     1.387   .     D
C69    H79     1.140   .     S
C80    C81     1.392   .     D
C80    N86     1.357   .     S
C80    C88     1.486   1_455 S
C81    C82     1.412   .     S
C81    H98     1.140   .     S
C82    C84     1.384   .     D
C82    H99     1.140   .     S
C83    H100    1.140   .     S
C83    Br18    2.193   1_545 S
C83    C63     1.388   1_545 S
C83    C91     1.402   1_455 S
C84    C85     1.490   .     S
C84    C87     1.480   1_455 S
C85    C93     1.468   1_455 D
N86    C89     1.356   1_455 D
C87    C88     1.383   .     D
C87    H101    1.140   .     S
C87    C84     1.480   1_655 S
C88    H102    1.140   .     S
C88    C80     1.486   1_655 S
C89    C91     1.444   .     S
C89    H103    1.140   .     S
C89    N86     1.356   1_655 D
C90    C91     1.409   .     D
C90    C56     1.388   1_545 S
C91    C83     1.402   1_655 S
N92    C93     1.371   .     S
N92    C95     1.351   .     S
N92    H104    1.110   .     S
C93    C94     1.391   .     S
C93    C85     1.468   1_655 D
C94    C96     1.369   .     D
C94    H105    1.140   .     S
C95    C96     1.387   .     S
C96    H106    1.140   .     S
C107   C108    1.392   .     D
C107   N113    1.357   .     S
C107   C115    1.486   1_565 S
C108   C109    1.412   .     S
C108   H125    1.140   .     S
C109   C111    1.384   .     D
C109   H126    1.140   .     S
C110   H127    1.140   .     S
C110   C118    1.402   1_565 S
C110   C143    1.388   1_455 S
C110   Br176   2.193   1_455 S
C111   C112    1.490   .     S
C111   C114    1.480   1_565 S
C112   C174    1.426   .     S
C112   C120    1.468   1_565 D
N113   C116    1.356   1_565 D
C114   C115    1.383   .     D
C114   H128    1.140   .     S
C114   C111    1.480   1_545 S
C115   H129    1.140   .     S
C115   C107    1.486   1_545 S
C116   C118    1.444   .     S
C116   H130    1.140   .     S
C116   N113    1.356   1_545 D
C117   C118    1.409   .     D
C117   C136    1.388   1_455 S
C118   C110    1.402   1_545 S
N119   C120    1.371   .     S
N119   C122    1.351   .     D
C120   C121    1.391   .     S
C120   C112    1.468   1_545 D
C121   C123    1.369   .     D
C121   H131    1.140   .     S
C122   C123    1.387   .     S
C122   C191    1.426   .     S
C123   H132    1.140   .     S
Br124  C189    2.193   .     S
C133   C134    1.392   .     D
C133   N139    1.357   .     S
C133   C141    1.486   1_545 S
C134   C135    1.412   .     S
C134   H151    1.140   .     S
C135   C137    1.384   .     D
C135   H152    1.140   .     S
C136   H153    1.140   .     S
C136   C117    1.388   1_655 S
C136   C144    1.402   1_545 S
C136   Br203   2.193   1_655 S
C137   C138    1.490   .     S
C137   C140    1.480   1_545 S
C138   C201    1.426   .     D
C138   C146    1.468   1_545 S
N139   C142    1.356   1_545 D
C140   C141    1.383   .     D
C140   H154    1.140   .     S
C140   C137    1.480   1_565 S
C141   H155    1.140   .     S
C141   C133    1.486   1_565 S
C142   C144    1.444   .     S
C142   H156    1.140   .     S
C142   N139    1.356   1_565 D
C143   C144    1.409   .     D
C143   C110    1.388   1_655 S
C144   C136    1.402   1_565 S
N145   C146    1.371   .     D
N145   C148    1.351   .     S
C146   C147    1.391   .     S
C146   C138    1.468   1_565 S
C147   C149    1.369   .     D
C147   H157    1.140   .     S
C148   C149    1.387   .     S
C148   C164    1.426   .     D
C149   H158    1.140   .     S
Br150  C162    2.193   .     S
C159   C160    1.392   .     D
C159   N165    1.357   .     S
C159   C167    1.486   .     S
C160   C161    1.412   .     S
C160   H177    1.140   .     S
C161   C163    1.384   .     D
C161   H178    1.140   .     S
C162   C170    1.402   .     S
C162   H179    1.140   .     S
C162   C196    1.388   .     S
C163   C164    1.490   .     S
C163   C166    1.480   .     S
C164   C172    1.468   .     S
N165   C168    1.356   .     D
C166   C167    1.383   .     D
C166   H180    1.140   .     S
C167   H181    1.140   .     S
C168   C170    1.444   .     S
C168   H182    1.140   .     S
C169   C170    1.409   .     D
C169   C189    1.388   .     S
N171   C172    1.371   .     S
N171   C174    1.351   .     S
N171   H183    1.110   .     S
C172   C173    1.391   .     D
C173   C175    1.369   .     S
C173   H184    1.140   .     S
C174   C175    1.387   .     D
C175   H185    1.140   .     S
Br176  C110    2.193   1_655 S
C186   C187    1.392   .     D
C186   N192    1.357   .     S
C186   C194    1.486   .     S
C187   C188    1.412   .     S
C187   H204    1.140   .     S
C188   C190    1.384   .     D
C188   H205    1.140   .     S
C189   C197    1.402   .     S
C189   H206    1.140   .     S
C190   C191    1.490   .     S
C190   C193    1.480   .     S
C191   C199    1.468   .     D
N192   C195    1.356   .     D
C193   C194    1.383   .     D
C193   H207    1.140   .     S
C194   H208    1.140   .     S
C195   C197    1.444   .     S
C195   H209    1.140   .     S
C196   C197    1.409   .     D
N198   C199    1.371   .     S
N198   C201    1.351   .     S
N198   H210    1.110   .     S
C199   C200    1.391   .     S
C200   C202    1.369   .     D
C200   H211    1.140   .     S
C201   C202    1.387   .     S
C202   H212    1.140   .     S
Br203  C136    2.193   1_455 S
