data_445
_audit_creation_date              2023-09-08
_audit_creation_method            'Materials Studio'
_symmetry_space_group_name_H-M    'P1'
_symmetry_Int_Tables_number       1
_symmetry_cell_setting            triclinic
loop_
_symmetry_equiv_pos_as_xyz
  x,y,z
_cell_length_a                    37.1643
_cell_length_b                    37.1643
_cell_length_c                    3.7794
_cell_angle_alpha                 90.0000
_cell_angle_beta                  90.0000
_cell_angle_gamma                 120.0000
loop_
_atom_site_label
_atom_site_type_symbol
_atom_site_fract_x
_atom_site_fract_y
_atom_site_fract_z
_atom_site_U_iso_or_equiv
_atom_site_adp_type
_atom_site_occupancy
C1     C     0.28959   0.64175   0.53805   0.00000  Uiso   1.00
C2     C     0.35825   0.64784   0.53805   0.00000  Uiso   1.00
C3     C     0.35216   0.71041   0.53805   0.00000  Uiso   1.00
C4     C     0.71041   0.35825   0.53805   0.00000  Uiso   1.00
C5     C     0.64175   0.35216   0.53805   0.00000  Uiso   1.00
C6     C     0.64784   0.28959   0.53805   0.00000  Uiso   1.00
C7     C     0.31471   0.62338   0.53794   0.00000  Uiso   1.00
C8     C     0.37662   0.69133   0.53794   0.00000  Uiso   1.00
C9     C     0.30867   0.68529   0.53794   0.00000  Uiso   1.00
C10    C     0.68529   0.37662   0.53794   0.00000  Uiso   1.00
C11    C     0.62338   0.30867   0.53794   0.00000  Uiso   1.00
C12    C     0.69133   0.31471   0.53794   0.00000  Uiso   1.00
C13    C     0.24388   0.61574   0.54060   0.00000  Uiso   1.00
C14    C     0.38426   0.62814   0.54060   0.00000  Uiso   1.00
C15    C     0.37186   0.75612   0.54060   0.00000  Uiso   1.00
C16    C     0.75612   0.38426   0.54060   0.00000  Uiso   1.00
C17    C     0.61574   0.37186   0.54060   0.00000  Uiso   1.00
C18    C     0.62814   0.24388   0.54060   0.00000  Uiso   1.00
C19    C     0.37015   0.58897   0.38366   0.00000  Uiso   1.00
C20    C     0.41103   0.78118   0.38366   0.00000  Uiso   1.00
C21    C     0.21882   0.62985   0.38366   0.00000  Uiso   1.00
C22    C     0.62985   0.41103   0.38366   0.00000  Uiso   1.00
C23    C     0.58897   0.21882   0.38366   0.00000  Uiso   1.00
C24    C     0.78118   0.37015   0.38366   0.00000  Uiso   1.00
C25    C     0.39438   0.57007   0.38782   0.00000  Uiso   1.00
C26    C     0.42993   0.82431   0.38782   0.00000  Uiso   1.00
C27    C     0.17569   0.60562   0.38782   0.00000  Uiso   1.00
C28    C     0.60562   0.42993   0.38782   0.00000  Uiso   1.00
C29    C     0.57007   0.17569   0.38782   0.00000  Uiso   1.00
C30    C     0.82431   0.39438   0.38782   0.00000  Uiso   1.00
C31    C     0.43378   0.59007   0.55121   0.00000  Uiso   1.00
C32    C     0.40993   0.84371   0.55121   0.00000  Uiso   1.00
C33    C     0.15629   0.56622   0.55121   0.00000  Uiso   1.00
C34    C     0.56622   0.40993   0.55121   0.00000  Uiso   1.00
C35    C     0.59007   0.15629   0.55121   0.00000  Uiso   1.00
C36    C     0.84371   0.43378   0.55121   0.00000  Uiso   1.00
C37    C     0.44844   0.62966   0.70242   0.00000  Uiso   1.00
C38    C     0.37034   0.81878   0.70242   0.00000  Uiso   1.00
C39    C     0.18122   0.55156   0.70242   0.00000  Uiso   1.00
C40    C     0.55156   0.37034   0.70242   0.00000  Uiso   1.00
C41    C     0.62966   0.18122   0.70242   0.00000  Uiso   1.00
C42    C     0.81878   0.44844   0.70242   0.00000  Uiso   1.00
C43    C     0.42385   0.64813   0.69940   0.00000  Uiso   1.00
C44    C     0.35187   0.77572   0.69940   0.00000  Uiso   1.00
C45    C     0.22428   0.57615   0.69940   0.00000  Uiso   1.00
C46    C     0.57615   0.35187   0.69940   0.00000  Uiso   1.00
C47    C     0.64813   0.22428   0.69940   0.00000  Uiso   1.00
C48    C     0.77572   0.42385   0.69940   0.00000  Uiso   1.00
N49    N     0.45989   0.57300   0.55465   0.00000  Uiso   1.00
N50    N     0.42700   0.88689   0.55465   0.00000  Uiso   1.00
N51    N     0.11311   0.54011   0.55465   0.00000  Uiso   1.00
N52    N     0.54011   0.42700   0.55465   0.00000  Uiso   1.00
N53    N     0.57300   0.11311   0.55465   0.00000  Uiso   1.00
N54    N     0.88689   0.45989   0.55465   0.00000  Uiso   1.00
C55    C     0.44487   0.53331   0.56073   0.00000  Uiso   1.00
C56    C     0.46669   0.91156   0.56073   0.00000  Uiso   1.00
C57    C     0.08844   0.55513   0.56073   0.00000  Uiso   1.00
C58    C     0.55513   0.46669   0.56073   0.00000  Uiso   1.00
C59    C     0.53331   0.08844   0.56073   0.00000  Uiso   1.00
C60    C     0.91156   0.44487   0.56073   0.00000  Uiso   1.00
C61    C     0.47234   0.51574   0.55513   0.00000  Uiso   1.00
C62    C     0.48426   0.95660   0.55513   0.00000  Uiso   1.00
C63    C     0.04340   0.52766   0.55513   0.00000  Uiso   1.00
C64    C     0.52766   0.48426   0.55513   0.00000  Uiso   1.00
C65    C     0.51574   0.04340   0.55513   0.00000  Uiso   1.00
C66    C     0.95660   0.47234   0.55513   0.00000  Uiso   1.00
C67    C     0.45648   0.47206   0.55434   0.00000  Uiso   1.00
C68    C     0.52794   0.98442   0.55434   0.00000  Uiso   1.00
C69    C     0.01558   0.54352   0.55434   0.00000  Uiso   1.00
C70    C     0.54352   0.52794   0.55434   0.00000  Uiso   1.00
C71    C     0.47206   0.01558   0.55434   0.00000  Uiso   1.00
C72    C     0.98442   0.45648   0.55434   0.00000  Uiso   1.00
C73    C     0.48449   0.45717   0.55369   0.00000  Uiso   1.00
C74    C     0.54283   0.02732   0.55369   0.00000  Uiso   1.00
C75    C     0.97268   0.51551   0.55369   0.00000  Uiso   1.00
C76    C     0.51551   0.54283   0.55369   0.00000  Uiso   1.00
C77    C     0.45717   0.97268   0.55369   0.00000  Uiso   1.00
C78    C     0.02732   0.48449   0.55369   0.00000  Uiso   1.00
S79    S     0.40216   0.43830   0.55283   0.00000  Uiso   1.00
S80    S     0.56170   0.96386   0.55283   0.00000  Uiso   1.00
S81    S     0.03614   0.59784   0.55283   0.00000  Uiso   1.00
S82    S     0.59784   0.56170   0.55283   0.00000  Uiso   1.00
S83    S     0.43830   0.03614   0.55283   0.00000  Uiso   1.00
S84    S     0.96386   0.40216   0.55283   0.00000  Uiso   1.00
C85    C     0.60417   0.61346   0.55860   0.00000  Uiso   1.00
C86    C     0.38654   0.99071   0.55860   0.00000  Uiso   1.00
C87    C     0.00929   0.39583   0.55860   0.00000  Uiso   1.00
C88    C     0.39583   0.38654   0.55860   0.00000  Uiso   1.00
C89    C     0.61346   0.00929   0.55860   0.00000  Uiso   1.00
C90    C     0.99071   0.60417   0.55860   0.00000  Uiso   1.00
H91    H     0.30007   0.58935   0.53831   0.00000  Uiso   1.00
H92    H     0.41065   0.71072   0.53831   0.00000  Uiso   1.00
H93    H     0.28928   0.69993   0.53831   0.00000  Uiso   1.00
H94    H     0.69993   0.41065   0.53831   0.00000  Uiso   1.00
H95    H     0.58935   0.28928   0.53831   0.00000  Uiso   1.00
H96    H     0.71072   0.30007   0.53831   0.00000  Uiso   1.00
H97    H     0.33984   0.57325   0.25002   0.00000  Uiso   1.00
H98    H     0.42675   0.76659   0.25002   0.00000  Uiso   1.00
H99    H     0.23341   0.66016   0.25002   0.00000  Uiso   1.00
H100   H     0.66016   0.42675   0.25002   0.00000  Uiso   1.00
H101   H     0.57325   0.23341   0.25002   0.00000  Uiso   1.00
H102   H     0.76659   0.33984   0.25002   0.00000  Uiso   1.00
H103   H     0.38311   0.53994   0.25644   0.00000  Uiso   1.00
H104   H     0.46006   0.84317   0.25644   0.00000  Uiso   1.00
H105   H     0.15683   0.61689   0.25644   0.00000  Uiso   1.00
H106   H     0.61689   0.46006   0.25644   0.00000  Uiso   1.00
H107   H     0.53994   0.15683   0.25644   0.00000  Uiso   1.00
H108   H     0.84317   0.38311   0.25644   0.00000  Uiso   1.00
H109   H     0.47897   0.64533   0.83208   0.00000  Uiso   1.00
H110   H     0.35467   0.83364   0.83208   0.00000  Uiso   1.00
H111   H     0.16636   0.52103   0.83208   0.00000  Uiso   1.00
H112   H     0.52103   0.35467   0.83208   0.00000  Uiso   1.00
H113   H     0.64533   0.16636   0.83208   0.00000  Uiso   1.00
H114   H     0.83364   0.47897   0.83208   0.00000  Uiso   1.00
H115   H     0.43538   0.67852   0.82678   0.00000  Uiso   1.00
H116   H     0.32148   0.75686   0.82678   0.00000  Uiso   1.00
H117   H     0.24314   0.56462   0.82678   0.00000  Uiso   1.00
H118   H     0.56462   0.32148   0.82678   0.00000  Uiso   1.00
H119   H     0.67852   0.24314   0.82678   0.00000  Uiso   1.00
H120   H     0.75686   0.43538   0.82678   0.00000  Uiso   1.00
H121   H     0.41059   0.51095   0.57668   0.00000  Uiso   1.00
H122   H     0.48905   0.89964   0.57668   0.00000  Uiso   1.00
H123   H     0.10036   0.58941   0.57668   0.00000  Uiso   1.00
H124   H     0.58941   0.48905   0.57668   0.00000  Uiso   1.00
H125   H     0.51095   0.10036   0.57668   0.00000  Uiso   1.00
H126   H     0.89964   0.41059   0.57668   0.00000  Uiso   1.00
H127   H     0.47350   0.42370   0.55407   0.00000  Uiso   1.00
H128   H     0.57630   0.04980   0.55407   0.00000  Uiso   1.00
H129   H     0.95020   0.52650   0.55407   0.00000  Uiso   1.00
H130   H     0.52650   0.57630   0.55407   0.00000  Uiso   1.00
H131   H     0.42370   0.95020   0.55407   0.00000  Uiso   1.00
H132   H     0.04980   0.47350   0.55407   0.00000  Uiso   1.00
H133   H     0.59046   0.61945   0.32414   0.00000  Uiso   1.00
H134   H     0.38055   0.97101   0.32414   0.00000  Uiso   1.00
H135   H     0.02899   0.40954   0.32414   0.00000  Uiso   1.00
H136   H     0.40954   0.38055   0.32414   0.00000  Uiso   1.00
H137   H     0.61945   0.02899   0.32414   0.00000  Uiso   1.00
H138   H     0.97101   0.59046   0.32414   0.00000  Uiso   1.00
H139   H     0.63752   0.63611   0.56032   0.00000  Uiso   1.00
H140   H     0.36389   0.00141   0.56032   0.00000  Uiso   1.00
H141   H     0.99859   0.36248   0.56032   0.00000  Uiso   1.00
H142   H     0.36248   0.36389   0.56032   0.00000  Uiso   1.00
H143   H     0.63611   0.99859   0.56032   0.00000  Uiso   1.00
H144   H     0.00141   0.63752   0.56032   0.00000  Uiso   1.00
H145   H     0.59025   0.61875   0.79519   0.00000  Uiso   1.00
H146   H     0.38125   0.97150   0.79519   0.00000  Uiso   1.00
H147   H     0.02850   0.40975   0.79519   0.00000  Uiso   1.00
H148   H     0.40975   0.38125   0.79519   0.00000  Uiso   1.00
H149   H     0.61875   0.02850   0.79519   0.00000  Uiso   1.00
H150   H     0.97150   0.59025   0.79519   0.00000  Uiso   1.00
loop_
_geom_bond_atom_site_label_1
_geom_bond_atom_site_label_2
_geom_bond_distance
_geom_bond_site_symmetry_2
_ccdc_geom_bond_type
C1     C7      1.405   .     D
C1     C9      1.405   .     S
C1     C13     1.476   .     S
C2     C7      1.405   .     S
C2     C8      1.405   .     D
C2     C14     1.476   .     S
C3     C8      1.405   .     S
C3     C9      1.405   .     D
C3     C15     1.476   .     S
C4     C10     1.405   .     D
C4     C12     1.405   .     S
C4     C16     1.476   .     S
C5     C10     1.405   .     S
C5     C11     1.405   .     D
C5     C17     1.476   .     S
C6     C11     1.405   .     S
C6     C12     1.405   .     D
C6     C18     1.476   .     S
C7     H91     1.099   .     S
C8     H92     1.099   .     S
C9     H93     1.099   .     S
C10    H94     1.099   .     S
C11    H95     1.099   .     S
C12    H96     1.099   .     S
C13    C21     1.408   .     D
C13    C45     1.409   .     S
C14    C19     1.408   .     D
C14    C43     1.409   .     S
C15    C20     1.408   .     D
C15    C44     1.409   .     S
C16    C24     1.408   .     D
C16    C48     1.409   .     S
C17    C22     1.408   .     D
C17    C46     1.409   .     S
C18    C23     1.408   .     D
C18    C47     1.409   .     S
C19    C25     1.392   .     S
C19    H97     1.099   .     S
C20    C26     1.392   .     S
C20    H98     1.099   .     S
C21    C27     1.392   .     S
C21    H99     1.099   .     S
C22    C28     1.392   .     S
C22    H100    1.099   .     S
C23    C29     1.392   .     S
C23    H101    1.099   .     S
C24    C30     1.392   .     S
C24    H102    1.099   .     S
C25    C31     1.411   .     D
C25    H103    1.099   .     S
C26    C32     1.411   .     D
C26    H104    1.099   .     S
C27    C33     1.411   .     D
C27    H105    1.099   .     S
C28    C34     1.411   .     D
C28    H106    1.099   .     S
C29    C35     1.411   .     D
C29    H107    1.099   .     S
C30    C36     1.411   .     D
C30    H108    1.099   .     S
C31    C37     1.409   .     S
C31    N49     1.400   .     S
C32    C38     1.409   .     S
C32    N50     1.400   .     S
C33    C39     1.409   .     S
C33    N51     1.400   .     S
C34    C40     1.409   .     S
C34    N52     1.400   .     S
C35    C41     1.409   .     S
C35    N53     1.400   .     S
C36    C42     1.409   .     S
C36    N54     1.400   .     S
C37    C43     1.391   .     D
C37    H109    1.098   .     S
C38    C44     1.391   .     D
C38    H110    1.098   .     S
C39    C45     1.391   .     D
C39    H111    1.098   .     S
C40    C46     1.391   .     D
C40    H112    1.098   .     S
C41    C47     1.391   .     D
C41    H113    1.098   .     S
C42    C48     1.391   .     D
C42    H114    1.098   .     S
C43    H115    1.099   .     S
C44    H116    1.099   .     S
C45    H117    1.099   .     S
C46    H118    1.099   .     S
C47    H119    1.099   .     S
C48    H120    1.099   .     S
N49    C55     1.290   .     D
N50    C56     1.290   .     D
N51    C57     1.290   .     D
N52    C58     1.290   .     D
N53    C59     1.290   .     D
N54    C60     1.290   .     D
C55    C61     1.461   .     S
C55    H121    1.122   .     S
C56    C62     1.461   .     S
C56    H122    1.122   .     S
C57    C63     1.461   .     S
C57    H123    1.122   .     S
C58    C64     1.461   .     S
C58    H124    1.122   .     S
C59    C65     1.461   .     S
C59    H125    1.122   .     S
C60    C66     1.461   .     S
C60    H126    1.122   .     S
C61    C67     1.423   .     S
C61    C76     1.404   .     D
C62    C68     1.423   .     S
C62    C77     1.404   .     D
C63    C69     1.423   .     S
C63    C78     1.404   .     D
C64    C70     1.423   .     D
C64    C73     1.404   .     S
C65    C71     1.423   .     D
C65    C74     1.404   .     S
C66    C72     1.423   .     D
C66    C75     1.404   .     S
C67    C73     1.402   .     D
C67    S79     1.765   .     S
C68    C74     1.402   1_565 D
C68    S80     1.765   .     S
C69    C75     1.402   1_455 D
C69    S81     1.765   .     S
C70    C76     1.402   .     S
C70    S82     1.765   .     S
C71    C77     1.402   1_545 S
C71    S83     1.765   .     S
C72    C78     1.402   1_655 S
C72    S84     1.765   .     S
C73    H127    1.098   .     S
C74    C68     1.402   1_545 D
C74    H128    1.098   .     S
C75    C69     1.402   1_655 D
C75    H129    1.098   .     S
C76    H130    1.098   .     S
C77    C71     1.402   1_565 S
C77    H131    1.098   .     S
C78    C72     1.402   1_455 S
C78    H132    1.098   .     S
S79    C88     1.818   .     S
S80    C89     1.818   1_565 S
S81    C90     1.818   1_455 S
S82    C85     1.818   .     S
S83    C86     1.818   1_545 S
S84    C87     1.818   1_655 S
C85    H133    1.099   .     S
C85    H139    1.096   .     S
C85    H145    1.099   .     S
C86    S83     1.818   1_565 S
C86    H134    1.099   .     S
C86    H140    1.096   1_565 S
C86    H146    1.099   .     S
C87    S84     1.818   1_455 S
C87    H135    1.099   .     S
C87    H141    1.096   1_455 S
C87    H147    1.099   .     S
C88    H136    1.099   .     S
C88    H142    1.096   .     S
C88    H148    1.099   .     S
C89    S80     1.818   1_545 S
C89    H137    1.099   .     S
C89    H143    1.096   1_545 S
C89    H149    1.099   .     S
C90    S81     1.818   1_655 S
C90    H138    1.099   .     S
C90    H144    1.096   1_655 S
C90    H150    1.099   .     S
H140   C86     1.096   1_545 S
H141   C87     1.096   1_655 S
H143   C89     1.096   1_565 S
H144   C90     1.096   1_455 S
