data_446
_audit_creation_date              2023-09-08
_audit_creation_method            'Materials Studio'
_symmetry_space_group_name_H-M    'P1'
_symmetry_Int_Tables_number       1
_symmetry_cell_setting            triclinic
loop_
_symmetry_equiv_pos_as_xyz
  x,y,z
_cell_length_a                    44.7381
_cell_length_b                    44.7381
_cell_length_c                    3.5310
_cell_angle_alpha                 90.0000
_cell_angle_beta                  90.0000
_cell_angle_gamma                 120.0000
loop_
_atom_site_label
_atom_site_type_symbol
_atom_site_fract_x
_atom_site_fract_y
_atom_site_fract_z
_atom_site_U_iso_or_equiv
_atom_site_adp_type
_atom_site_occupancy
C1     C     0.34950   0.70298   0.00000   0.00000  Uiso   1.00
C2     C     0.29702   0.64652   0.00000   0.00000  Uiso   1.00
C3     C     0.35348   0.65050   0.00000   0.00000  Uiso   1.00
C4     C     0.65050   0.29702   0.00000   0.00000  Uiso   1.00
C5     C     0.70298   0.35348   0.00000   0.00000  Uiso   1.00
C6     C     0.64652   0.34950   0.00000   0.00000  Uiso   1.00
C7     C     0.36923   0.68658   0.00000   0.00000  Uiso   1.00
C8     C     0.31342   0.68265   0.00000   0.00000  Uiso   1.00
C9     C     0.31735   0.63077   0.00000   0.00000  Uiso   1.00
C10    C     0.63077   0.31342   0.00000   0.00000  Uiso   1.00
C11    C     0.68658   0.31735   0.00000   0.00000  Uiso   1.00
C12    C     0.68265   0.36923   0.00000   0.00000  Uiso   1.00
C13    C     0.37464   0.63352   0.00000   0.00000  Uiso   1.00
C14    C     0.36648   0.74112   0.00000   0.00000  Uiso   1.00
C15    C     0.25888   0.62536   0.00000   0.00000  Uiso   1.00
C16    C     0.62536   0.36648   0.00000   0.00000  Uiso   1.00
C17    C     0.63352   0.25888   0.00000   0.00000  Uiso   1.00
C18    C     0.74112   0.37464   0.00000   0.00000  Uiso   1.00
C19    C     0.41083   0.65328   0.00000   0.00000  Uiso   1.00
C20    C     0.34672   0.75755   0.00000   0.00000  Uiso   1.00
C21    C     0.24245   0.58917   0.00000   0.00000  Uiso   1.00
C22    C     0.58917   0.34672   0.00000   0.00000  Uiso   1.00
C23    C     0.65328   0.24245   0.00000   0.00000  Uiso   1.00
C24    C     0.75755   0.41083   0.00000   0.00000  Uiso   1.00
C25    C     0.43081   0.63728   0.00000   0.00000  Uiso   1.00
C26    C     0.36272   0.79353   0.00000   0.00000  Uiso   1.00
C27    C     0.20647   0.56919   0.00000   0.00000  Uiso   1.00
C28    C     0.56919   0.36272   0.00000   0.00000  Uiso   1.00
C29    C     0.63728   0.20647   0.00000   0.00000  Uiso   1.00
C30    C     0.79353   0.43081   0.00000   0.00000  Uiso   1.00
C31    C     0.41500   0.60130   0.00000   0.00000  Uiso   1.00
C32    C     0.39870   0.81370   0.00000   0.00000  Uiso   1.00
C33    C     0.18630   0.58500   0.00000   0.00000  Uiso   1.00
C34    C     0.58500   0.39870   0.00000   0.00000  Uiso   1.00
C35    C     0.60130   0.18630   0.00000   0.00000  Uiso   1.00
C36    C     0.81370   0.41500   0.00000   0.00000  Uiso   1.00
C37    C     0.37883   0.58137   0.00000   0.00000  Uiso   1.00
C38    C     0.41863   0.79746   0.00000   0.00000  Uiso   1.00
C39    C     0.20254   0.62117   0.00000   0.00000  Uiso   1.00
C40    C     0.62117   0.41863   0.00000   0.00000  Uiso   1.00
C41    C     0.58137   0.20254   0.00000   0.00000  Uiso   1.00
C42    C     0.79746   0.37883   0.00000   0.00000  Uiso   1.00
C43    C     0.35887   0.59738   0.00000   0.00000  Uiso   1.00
C44    C     0.40262   0.76149   0.00000   0.00000  Uiso   1.00
C45    C     0.23851   0.64113   0.00000   0.00000  Uiso   1.00
C46    C     0.64113   0.40262   0.00000   0.00000  Uiso   1.00
C47    C     0.59738   0.23851   0.00000   0.00000  Uiso   1.00
C48    C     0.76149   0.35887   0.00000   0.00000  Uiso   1.00
N49    N     0.43620   0.58570   0.00000   0.00000  Uiso   1.00
N50    N     0.41430   0.85050   0.00000   0.00000  Uiso   1.00
N51    N     0.14950   0.56380   0.00000   0.00000  Uiso   1.00
N52    N     0.56380   0.41430   0.00000   0.00000  Uiso   1.00
N53    N     0.58570   0.14950   0.00000   0.00000  Uiso   1.00
N54    N     0.85050   0.43620   0.00000   0.00000  Uiso   1.00
C55    C     0.42374   0.55258   0.00000   0.00000  Uiso   1.00
C56    C     0.44742   0.87116   0.00000   0.00000  Uiso   1.00
C57    C     0.12884   0.57626   0.00000   0.00000  Uiso   1.00
C58    C     0.57626   0.44742   0.00000   0.00000  Uiso   1.00
C59    C     0.55258   0.12884   0.00000   0.00000  Uiso   1.00
C60    C     0.87116   0.42374   0.00000   0.00000  Uiso   1.00
C61    C     0.44638   0.53768   0.00000   0.00000  Uiso   1.00
C62    C     0.46232   0.90870   0.00000   0.00000  Uiso   1.00
C63    C     0.09130   0.55362   0.00000   0.00000  Uiso   1.00
C64    C     0.55362   0.46232   0.00000   0.00000  Uiso   1.00
C65    C     0.53768   0.09130   0.00000   0.00000  Uiso   1.00
C66    C     0.90870   0.44638   0.00000   0.00000  Uiso   1.00
C67    C     0.43168   0.50182   0.00000   0.00000  Uiso   1.00
C68    C     0.49818   0.92986   0.00000   0.00000  Uiso   1.00
C69    C     0.07014   0.56832   0.00000   0.00000  Uiso   1.00
C70    C     0.56832   0.49818   0.00000   0.00000  Uiso   1.00
C71    C     0.50182   0.07014   0.00000   0.00000  Uiso   1.00
C72    C     0.92986   0.43168   0.00000   0.00000  Uiso   1.00
C73    C     0.45274   0.48700   0.00000   0.00000  Uiso   1.00
C74    C     0.51300   0.96574   0.00000   0.00000  Uiso   1.00
C75    C     0.03426   0.54726   0.00000   0.00000  Uiso   1.00
C76    C     0.54726   0.51300   0.00000   0.00000  Uiso   1.00
C77    C     0.48700   0.03426   0.00000   0.00000  Uiso   1.00
C78    C     0.96574   0.45274   0.00000   0.00000  Uiso   1.00
C79    C     0.48884   0.50786   0.00000   0.00000  Uiso   1.00
C80    C     0.49214   0.98098   0.00000   0.00000  Uiso   1.00
C81    C     0.01902   0.51116   0.00000   0.00000  Uiso   1.00
C82    C     0.51116   0.49214   0.00000   0.00000  Uiso   1.00
C83    C     0.50786   0.01902   0.00000   0.00000  Uiso   1.00
C84    C     0.98098   0.48884   0.00000   0.00000  Uiso   1.00
C85    C     0.50341   0.54388   0.00000   0.00000  Uiso   1.00
C86    C     0.45612   0.95953   0.00000   0.00000  Uiso   1.00
C87    C     0.04047   0.49659   0.00000   0.00000  Uiso   1.00
C88    C     0.49659   0.45612   0.00000   0.00000  Uiso   1.00
C89    C     0.54388   0.04047   0.00000   0.00000  Uiso   1.00
C90    C     0.95953   0.50341   0.00000   0.00000  Uiso   1.00
C91    C     0.48236   0.55871   0.00000   0.00000  Uiso   1.00
C92    C     0.44129   0.92365   0.00000   0.00000  Uiso   1.00
C93    C     0.07635   0.51764   0.00000   0.00000  Uiso   1.00
C94    C     0.51764   0.44129   0.00000   0.00000  Uiso   1.00
C95    C     0.55871   0.07635   0.00000   0.00000  Uiso   1.00
C96    C     0.92365   0.48236   0.00000   0.00000  Uiso   1.00
H97    H     0.39613   0.70148   0.00000   0.00000  Uiso   1.00
H98    H     0.29852   0.69465   0.00000   0.00000  Uiso   1.00
H99    H     0.30535   0.60388   0.00000   0.00000  Uiso   1.00
H100   H     0.60388   0.29852   0.00000   0.00000  Uiso   1.00
H101   H     0.70148   0.30535   0.00000   0.00000  Uiso   1.00
H102   H     0.69465   0.39612   0.00000   0.00000  Uiso   1.00
H103   H     0.42601   0.68087   0.00000   0.00000  Uiso   1.00
H104   H     0.31913   0.74515   0.00000   0.00000  Uiso   1.00
H105   H     0.25486   0.57399   0.00000   0.00000  Uiso   1.00
H106   H     0.57399   0.31913   0.00000   0.00000  Uiso   1.00
H107   H     0.68087   0.25485   0.00000   0.00000  Uiso   1.00
H108   H     0.74515   0.42601   0.00000   0.00000  Uiso   1.00
H109   H     0.45869   0.65266   0.00000   0.00000  Uiso   1.00
H110   H     0.34734   0.80603   0.00000   0.00000  Uiso   1.00
H111   H     0.19397   0.54131   0.00000   0.00000  Uiso   1.00
H112   H     0.54131   0.34734   0.00000   0.00000  Uiso   1.00
H113   H     0.65266   0.19397   0.00000   0.00000  Uiso   1.00
H114   H     0.80603   0.45869   0.00000   0.00000  Uiso   1.00
H115   H     0.36456   0.55366   0.00000   0.00000  Uiso   1.00
H116   H     0.44634   0.81090   0.00000   0.00000  Uiso   1.00
H117   H     0.18910   0.63544   0.00000   0.00000  Uiso   1.00
H118   H     0.63544   0.44634   0.00000   0.00000  Uiso   1.00
H119   H     0.55366   0.18910   0.00000   0.00000  Uiso   1.00
H120   H     0.81090   0.36456   0.00000   0.00000  Uiso   1.00
H121   H     0.33168   0.57947   0.00000   0.00000  Uiso   1.00
H122   H     0.42053   0.75220   0.00000   0.00000  Uiso   1.00
H123   H     0.24780   0.66832   0.00000   0.00000  Uiso   1.00
H124   H     0.66832   0.42053   0.00000   0.00000  Uiso   1.00
H125   H     0.57947   0.24780   0.00000   0.00000  Uiso   1.00
H126   H     0.75220   0.33168   0.00000   0.00000  Uiso   1.00
H127   H     0.39660   0.53420   0.00000   0.00000  Uiso   1.00
H128   H     0.46580   0.86240   0.00000   0.00000  Uiso   1.00
H129   H     0.13760   0.60340   0.00000   0.00000  Uiso   1.00
H130   H     0.60340   0.46580   0.00000   0.00000  Uiso   1.00
H131   H     0.53420   0.13760   0.00000   0.00000  Uiso   1.00
H132   H     0.86240   0.39660   0.00000   0.00000  Uiso   1.00
H133   H     0.40390   0.48517   0.00000   0.00000  Uiso   1.00
H134   H     0.51483   0.91873   0.00000   0.00000  Uiso   1.00
H135   H     0.08127   0.59610   0.00000   0.00000  Uiso   1.00
H136   H     0.59610   0.51483   0.00000   0.00000  Uiso   1.00
H137   H     0.48517   0.08127   0.00000   0.00000  Uiso   1.00
H138   H     0.91873   0.40390   0.00000   0.00000  Uiso   1.00
H139   H     0.43907   0.45933   0.00000   0.00000  Uiso   1.00
H140   H     0.54067   0.97974   0.00000   0.00000  Uiso   1.00
H141   H     0.02026   0.56094   0.00000   0.00000  Uiso   1.00
H142   H     0.56094   0.54067   0.00000   0.00000  Uiso   1.00
H143   H     0.45933   0.02026   0.00000   0.00000  Uiso   1.00
H144   H     0.97974   0.43907   0.00000   0.00000  Uiso   1.00
H145   H     0.53057   0.56207   0.00000   0.00000  Uiso   1.00
H146   H     0.43794   0.96850   0.00000   0.00000  Uiso   1.00
H147   H     0.03150   0.46943   0.00000   0.00000  Uiso   1.00
H148   H     0.46943   0.43794   0.00000   0.00000  Uiso   1.00
H149   H     0.56207   0.03150   0.00000   0.00000  Uiso   1.00
H150   H     0.96850   0.53057   0.00000   0.00000  Uiso   1.00
H151   H     0.49408   0.58655   0.00000   0.00000  Uiso   1.00
H152   H     0.41345   0.90754   0.00000   0.00000  Uiso   1.00
H153   H     0.09246   0.50592   0.00000   0.00000  Uiso   1.00
H154   H     0.50592   0.41345   0.00000   0.00000  Uiso   1.00
H155   H     0.58655   0.09246   0.00000   0.00000  Uiso   1.00
H156   H     0.90754   0.49408   0.00000   0.00000  Uiso   1.00
loop_
_geom_bond_atom_site_label_1
_geom_bond_atom_site_label_2
_geom_bond_distance
_geom_bond_site_symmetry_2
_ccdc_geom_bond_type
C1     C7      1.402   .     D
C1     C8      1.402   .     S
C1     C14     1.481   .     S
C2     C8      1.402   .     D
C2     C9      1.402   .     S
C2     C15     1.481   .     S
C3     C7      1.402   .     S
C3     C9      1.402   .     D
C3     C13     1.481   .     S
C4     C10     1.402   .     S
C4     C11     1.402   .     D
C4     C17     1.481   .     S
C5     C11     1.402   .     S
C5     C12     1.402   .     D
C5     C18     1.481   .     S
C6     C10     1.402   .     D
C6     C12     1.402   .     S
C6     C16     1.481   .     S
C7     H97     1.044   .     S
C8     H98     1.044   .     S
C9     H99     1.044   .     S
C10    H100    1.044   .     S
C11    H101    1.044   .     S
C12    H102    1.044   .     S
C13    C19     1.404   .     D
C13    C43     1.404   .     S
C14    C20     1.404   .     D
C14    C44     1.404   .     S
C15    C21     1.404   .     D
C15    C45     1.404   .     S
C16    C22     1.404   .     D
C16    C46     1.404   .     S
C17    C23     1.404   .     D
C17    C47     1.404   .     S
C18    C24     1.404   .     S
C18    C48     1.404   .     D
C19    C25     1.397   .     S
C19    H103    1.071   .     S
C20    C26     1.397   .     S
C20    H104    1.071   .     S
C21    C27     1.397   .     S
C21    H105    1.071   .     S
C22    C28     1.397   .     S
C22    H106    1.071   .     S
C23    C29     1.397   .     S
C23    H107    1.071   .     S
C24    C30     1.397   .     D
C24    H108    1.071   .     S
C25    C31     1.397   .     D
C25    H109    1.082   .     S
C26    C32     1.397   .     D
C26    H110    1.082   .     S
C27    C33     1.397   .     D
C27    H111    1.082   .     S
C28    C34     1.397   .     D
C28    H112    1.082   .     S
C29    C35     1.397   .     D
C29    H113    1.082   .     S
C30    C36     1.397   .     S
C30    H114    1.082   .     S
C31    C37     1.404   .     S
C31    N49     1.431   .     S
C32    C38     1.404   .     S
C32    N50     1.431   .     S
C33    C39     1.404   .     S
C33    N51     1.431   .     S
C34    C40     1.404   .     S
C34    N52     1.431   .     S
C35    C41     1.404   .     S
C35    N53     1.431   .     S
C36    C42     1.404   .     D
C36    N54     1.431   .     S
C37    C43     1.396   .     D
C37    H115    1.074   .     S
C38    C44     1.396   .     D
C38    H116    1.074   .     S
C39    C45     1.396   .     D
C39    H117    1.074   .     S
C40    C46     1.396   .     D
C40    H118    1.074   .     S
C41    C47     1.396   .     D
C41    H119    1.074   .     S
C42    C48     1.396   .     S
C42    H120    1.074   .     S
C43    H121    1.071   .     S
C44    H122    1.071   .     S
C45    H123    1.071   .     S
C46    H124    1.071   .     S
C47    H125    1.071   .     S
C48    H126    1.071   .     S
N49    C55     1.296   .     D
N50    C56     1.296   .     D
N51    C57     1.296   .     D
N52    C58     1.296   .     D
N53    C59     1.296   .     D
N54    C60     1.296   .     D
C55    C61     1.465   .     S
C55    H127    1.073   .     S
C56    C62     1.465   .     S
C56    H128    1.073   .     S
C57    C63     1.465   .     S
C57    H129    1.073   .     S
C58    C64     1.465   .     S
C58    H130    1.073   .     S
C59    C65     1.465   .     S
C59    H131    1.073   .     S
C60    C66     1.465   .     S
C60    H132    1.073   .     S
C61    C67     1.397   .     D
C61    C91     1.401   .     S
C62    C68     1.397   .     D
C62    C92     1.401   .     S
C63    C69     1.397   .     D
C63    C93     1.401   .     S
C64    C70     1.397   .     D
C64    C94     1.401   .     S
C65    C71     1.397   .     D
C65    C95     1.401   .     S
C66    C72     1.397   .     S
C66    C96     1.401   .     D
C67    C73     1.397   .     S
C67    H133    1.083   .     S
C68    C74     1.397   .     S
C68    H134    1.083   .     S
C69    C75     1.397   .     S
C69    H135    1.083   .     S
C70    C76     1.397   .     S
C70    H136    1.083   .     S
C71    C77     1.397   .     S
C71    H137    1.083   .     S
C72    C78     1.397   .     D
C72    H138    1.083   .     S
C73    C79     1.404   .     D
C73    H139    1.072   .     S
C74    C80     1.404   .     D
C74    H140    1.072   .     S
C75    C81     1.404   .     D
C75    H141    1.072   .     S
C76    C82     1.404   .     D
C76    H142    1.072   .     S
C77    C83     1.404   .     D
C77    H143    1.072   .     S
C78    C84     1.404   .     S
C78    H144    1.072   .     S
C79    C82     1.481   .     S
C79    C85     1.404   .     S
C80    C83     1.481   1_565 S
C80    C86     1.404   .     S
C81    C84     1.481   1_455 S
C81    C87     1.404   .     S
C82    C88     1.404   .     S
C83    C80     1.481   1_545 S
C83    C89     1.404   .     S
C84    C81     1.481   1_655 S
C84    C90     1.404   .     D
C85    C91     1.397   .     D
C85    H145    1.072   .     S
C86    C92     1.397   .     D
C86    H146    1.072   .     S
C87    C93     1.397   .     D
C87    H147    1.072   .     S
C88    C94     1.397   .     D
C88    H148    1.072   .     S
C89    C95     1.397   .     D
C89    H149    1.072   .     S
C90    C96     1.397   .     S
C90    H150    1.072   .     S
C91    H151    1.083   .     S
C92    H152    1.083   .     S
C93    H153    1.083   .     S
C94    H154    1.083   .     S
C95    H155    1.083   .     S
C96    H156    1.083   .     S
