data_447
_audit_creation_date              2023-09-08
_audit_creation_method            'Materials Studio'
_symmetry_space_group_name_H-M    'P1'
_symmetry_Int_Tables_number       1
_symmetry_cell_setting            triclinic
loop_
_symmetry_equiv_pos_as_xyz
  x,y,z
_cell_length_a                    37.2718
_cell_length_b                    37.2718
_cell_length_c                    7.0430
_cell_angle_alpha                 90.0000
_cell_angle_beta                  90.0000
_cell_angle_gamma                 120.0000
loop_
_atom_site_label
_atom_site_type_symbol
_atom_site_fract_x
_atom_site_fract_y
_atom_site_fract_z
_atom_site_U_iso_or_equiv
_atom_site_adp_type
_atom_site_occupancy
C1     C     0.55938   0.01483   0.28567   0.00000  Uiso   1.00
C2     C     0.64625  -0.16806   0.26255   0.00000  Uiso   1.00
C3     C     0.68960  -0.14412   0.24946   0.00000  Uiso   1.00
C4     C     0.70925  -0.10220   0.19819   0.00000  Uiso   1.00
C5     C     0.68527  -0.08329   0.17277   0.00000  Uiso   1.00
C6     C     0.64233  -0.10537   0.20296   0.00000  Uiso   1.00
C7     C     0.62294  -0.14803   0.24166   0.00000  Uiso   1.00
C8     C     0.61835  -0.08331   0.20303   0.00000  Uiso   1.00
C9     C     0.62566  -0.21388   0.29129   0.00000  Uiso   1.00
C10    C     0.75476  -0.07822   0.17056   0.00000  Uiso   1.00
C11    C     0.63675  -0.04237   0.27092   0.00000  Uiso   1.00
C12    C     0.61403  -0.02207   0.28385   0.00000  Uiso   1.00
C13    C     0.57211  -0.04237   0.22986   0.00000  Uiso   1.00
C14    C     0.55370  -0.08298   0.16139   0.00000  Uiso   1.00
C15    C     0.57659  -0.10320   0.14594   0.00000  Uiso   1.00
C16    C     0.77641  -0.09721   0.10058   0.00000  Uiso   1.00
C17    C     0.81913  -0.07442   0.07341   0.00000  Uiso   1.00
C18    C     0.84174  -0.03178   0.11559   0.00000  Uiso   1.00
C19    C     0.82120  -0.01162   0.18346   0.00000  Uiso   1.00
C20    C     0.77864  -0.03338   0.21388   0.00000  Uiso   1.00
C21    C     0.64539  -0.23587   0.23200   0.00000  Uiso   1.00
C22    C     0.62569  -0.27877   0.24923   0.00000  Uiso   1.00
C23    C     0.58539  -0.30113   0.31950   0.00000  Uiso   1.00
C24    C     0.56545  -0.27971   0.38192   0.00000  Uiso   1.00
C25    C     0.58555  -0.23655   0.36946   0.00000  Uiso   1.00
N26    N     0.54655  -0.02404   0.25425   0.00000  Uiso   1.00
N27    N     0.56626  -0.34534   0.32344   0.00000  Uiso   1.00
N28    N     0.88558  -0.00731   0.08655   0.00000  Uiso   1.00
H29    H     0.70841  -0.15791   0.28136   0.00000  Uiso   1.00
H30    H     0.69998  -0.05130   0.12758   0.00000  Uiso   1.00
H31    H     0.58972  -0.16539   0.25672   0.00000  Uiso   1.00
H32    H     0.66832  -0.02646   0.32265   0.00000  Uiso   1.00
H33    H     0.62911   0.00866   0.34439   0.00000  Uiso   1.00
H34    H     0.52141  -0.09901   0.11967   0.00000  Uiso   1.00
H35    H     0.56152  -0.13428   0.08858   0.00000  Uiso   1.00
H36    H     0.76026  -0.12961   0.06113   0.00000  Uiso   1.00
H37    H     0.83392  -0.09044   0.01400   0.00000  Uiso   1.00
H38    H     0.83858   0.02116   0.21583   0.00000  Uiso   1.00
H39    H     0.76377  -0.01736   0.27342   0.00000  Uiso   1.00
H40    H     0.67545  -0.22049   0.16452   0.00000  Uiso   1.00
H41    H     0.64132  -0.29495   0.20033   0.00000  Uiso   1.00
H42    H     0.53487  -0.29574   0.44399   0.00000  Uiso   1.00
H43    H     0.56963  -0.22124   0.42469   0.00000  Uiso   1.00
C44    C     0.52982   0.02975   0.31540   0.00000  Uiso   1.00
C45    C     0.48706   0.00253   0.34310   0.00000  Uiso   1.00
C46    C     0.46080   0.01906   0.36855   0.00000  Uiso   1.00
C47    C     0.47609   0.06185   0.36137   0.00000  Uiso   1.00
C48    C     0.51902   0.08913   0.33862   0.00000  Uiso   1.00
C49    C     0.54529   0.07259   0.31329   0.00000  Uiso   1.00
C50    C     0.44585   0.07639   0.37338   0.00000  Uiso   1.00
N51    N     0.45748   0.11548   0.36514   0.00000  Uiso   1.00
H52    H     0.59209   0.03742   0.28523   0.00000  Uiso   1.00
H53    H     0.42814  -0.00162   0.39501   0.00000  Uiso   1.00
H54    H     0.57794   0.09324   0.28640   0.00000  Uiso   1.00
H55    H     0.41330   0.05343   0.38507   0.00000  Uiso   1.00
C56    C     0.43011   0.13198   0.35567   0.00000  Uiso   1.00
C57    C     0.38999   0.10906   0.28032   0.00000  Uiso   1.00
C58    C     0.36551   0.12728   0.25750   0.00000  Uiso   1.00
C59    C     0.38005   0.16868   0.31267   0.00000  Uiso   1.00
C60    C     0.42009   0.19108   0.39222   0.00000  Uiso   1.00
C61    C     0.44497   0.17306   0.41004   0.00000  Uiso   1.00
C62    C     0.35456   0.18869   0.27482   0.00000  Uiso   1.00
C63    C     0.31131   0.16446   0.25575   0.00000  Uiso   1.00
C64    C     0.28746   0.18191   0.19607   0.00000  Uiso   1.00
C65    C     0.30703   0.22481   0.16729   0.00000  Uiso   1.00
C66    C     0.34946   0.25026   0.20276   0.00000  Uiso   1.00
C67    C     0.37317   0.23182   0.25038   0.00000  Uiso   1.00
C68    C     0.24221   0.15534   0.16305   0.00000  Uiso   1.00
C69    C     0.36844   0.29606   0.19947   0.00000  Uiso   1.00
C70    C     0.22563   0.11438   0.09729   0.00000  Uiso   1.00
C71    C     0.18316   0.08952   0.06668   0.00000  Uiso   1.00
C72    C     0.15658   0.10523   0.09630   0.00000  Uiso   1.00
C73    C     0.17275   0.14591   0.16378   0.00000  Uiso   1.00
C74    C     0.21510   0.17060   0.19769   0.00000  Uiso   1.00
C75    C     0.34556   0.31458   0.26134   0.00000  Uiso   1.00
C76    C     0.36411   0.35752   0.27441   0.00000  Uiso   1.00
C77    C     0.40599   0.38282   0.23087   0.00000  Uiso   1.00
C78    C     0.42871   0.36475   0.16164   0.00000  Uiso   1.00
C79    C     0.41000   0.32178   0.14523   0.00000  Uiso   1.00
N80    N     0.42427   0.42649   0.26130   0.00000  Uiso   1.00
N81    N     0.11316   0.07844   0.06566   0.00000  Uiso   1.00
H82    H     0.37819   0.07785   0.22846   0.00000  Uiso   1.00
H83    H     0.33602   0.10916   0.18715   0.00000  Uiso   1.00
H84    H     0.43247   0.22243   0.44287   0.00000  Uiso   1.00
H85    H     0.47590   0.19107   0.46806   0.00000  Uiso   1.00
H86    H     0.29586   0.13187   0.28979   0.00000  Uiso   1.00
H87    H     0.28932   0.23855   0.11529   0.00000  Uiso   1.00
H88    H     0.40610   0.25136   0.26946   0.00000  Uiso   1.00
H89    H     0.24541   0.10160   0.06615   0.00000  Uiso   1.00
H90    H     0.17095   0.05808   0.01630   0.00000  Uiso   1.00
H91    H     0.15271   0.15830   0.19654   0.00000  Uiso   1.00
H92    H     0.22633   0.20128   0.25553   0.00000  Uiso   1.00
H93    H     0.31375   0.29595   0.30767   0.00000  Uiso   1.00
H94    H     0.34625   0.37112   0.32673   0.00000  Uiso   1.00
H95    H     0.46064   0.38355   0.11785   0.00000  Uiso   1.00
H96    H     0.42813   0.30881   0.08952   0.00000  Uiso   1.00
C97    C     0.08701   0.09062   0.02492   0.00000  Uiso   1.00
H98    H     0.09766   0.12322   0.00414   0.00000  Uiso   1.00
C99    C     0.91091  -0.02094   0.05370   0.00000  Uiso   1.00
H100   H     0.90015  -0.05377   0.05319   0.00000  Uiso   1.00
C101   C     0.51215  -0.41690   0.34403   0.00000  Uiso   1.00
C102   C     0.52743  -0.37188   0.35132   0.00000  Uiso   1.00
H103   H     0.50525  -0.36162   0.37297   0.00000  Uiso   1.00
O104   O     0.53444   0.13209   0.32648   0.00000  Uiso   1.00
C105   C     0.57315   0.15881   0.41744   0.00000  Uiso   1.00
O106   O     0.47184  -0.04034   0.35856   0.00000  Uiso   1.00
C107   C     0.43322  -0.06742   0.26767   0.00000  Uiso   1.00
C108   C     0.46969   0.55594   0.37131   0.00000  Uiso   1.00
C109   C     0.45276   0.51261   0.36392   0.00000  Uiso   1.00
C110   C     0.47901   0.49685   0.31502   0.00000  Uiso   1.00
C111   C     0.52150   0.52396   0.29130   0.00000  Uiso   1.00
C112   C     0.53867  -0.43312   0.31117   0.00000  Uiso   1.00
C113   C     0.46342   0.45222   0.28703   0.00000  Uiso   1.00
C114   C     0.95571   0.00801   0.03093   0.00000  Uiso   1.00
C115   C     0.98238  -0.00823   0.03862   0.00000  Uiso   1.00
C116   C     0.02554   0.01763   0.02684   0.00000  Uiso   1.00
C117   C     0.04212   0.06090   0.01449   0.00000  Uiso   1.00
C118   C     0.01538   0.07694  -0.00265   0.00000  Uiso   1.00
C119   C     0.97225   0.05108   0.00893   0.00000  Uiso   1.00
O120   O     0.58135  -0.40620   0.28339   0.00000  Uiso   1.00
C121   C     0.60903  -0.41699   0.37400   0.00000  Uiso   1.00
O122   O     0.41071   0.48429   0.40530   0.00000  Uiso   1.00
C123   C     0.38563   0.49939   0.48636   0.00000  Uiso   1.00
O124   O     0.05239   0.00140   0.04142   0.00000  Uiso   1.00
C125   C     0.04059  -0.03694  -0.05282   0.00000  Uiso   1.00
O126   O     0.94536   0.06710  -0.01248   0.00000  Uiso   1.00
C127   C     0.95631   0.10526   0.08161   0.00000  Uiso   1.00
H128   H     0.59741   0.17612   0.30977   0.00000  Uiso   1.00
H129   H     0.58365   0.14200   0.51176   0.00000  Uiso   1.00
H130   H     0.56962   0.18166   0.50435   0.00000  Uiso   1.00
H131   H     0.43707  -0.09010   0.18100   0.00000  Uiso   1.00
H132   H     0.42241  -0.05090   0.17312   0.00000  Uiso   1.00
H133   H     0.40903  -0.08490   0.37539   0.00000  Uiso   1.00
H134   H     0.44999  -0.43096   0.39716   0.00000  Uiso   1.00
H135   H     0.54138   0.51164   0.25263   0.00000  Uiso   1.00
H136   H     0.48551   0.44142   0.28762   0.00000  Uiso   1.00
H137   H     0.96949  -0.04117   0.06080   0.00000  Uiso   1.00
H138   H     0.02831   0.10992  -0.02376   0.00000  Uiso   1.00
H139   H     0.62640  -0.42377   0.26599   0.00000  Uiso   1.00
H140   H     0.59307   0.55586   0.47003   0.00000  Uiso   1.00
H141   H     0.63175  -0.39007   0.45867   0.00000  Uiso   1.00
H142   H     0.35755   0.47297   0.54910   0.00000  Uiso   1.00
H143   H     0.37548   0.51396   0.37847   0.00000  Uiso   1.00
H144   H     0.40262   0.52232   0.59866   0.00000  Uiso   1.00
H145   H     0.06730  -0.03318  -0.13783   0.00000  Uiso   1.00
H146   H     0.01379  -0.04687  -0.14984   0.00000  Uiso   1.00
H147   H     0.03302  -0.06171   0.05293   0.00000  Uiso   1.00
H148   H     0.96375   0.12997  -0.02424   0.00000  Uiso   1.00
H149   H     0.98300   0.11561   0.17971   0.00000  Uiso   1.00
H150   H     0.92925   0.10101   0.16520   0.00000  Uiso   1.00
C151   C     0.55305   0.45411   0.83992   0.00000  Uiso   1.00
C152   C     0.63992   0.27121   0.81680   0.00000  Uiso   1.00
C153   C     0.68328   0.29515   0.80372   0.00000  Uiso   1.00
C154   C     0.70292   0.33708   0.75244   0.00000  Uiso   1.00
C155   C     0.67894   0.35598   0.72703   0.00000  Uiso   1.00
C156   C     0.63600   0.33390   0.75721   0.00000  Uiso   1.00
C157   C     0.61661   0.29124   0.79592   0.00000  Uiso   1.00
C158   C     0.61202   0.35597   0.75728   0.00000  Uiso   1.00
C159   C     0.61934   0.22540   0.84555   0.00000  Uiso   1.00
C160   C     0.74843   0.36105   0.72481   0.00000  Uiso   1.00
C161   C     0.63043   0.39690   0.82518   0.00000  Uiso   1.00
C162   C     0.60770   0.41720   0.83810   0.00000  Uiso   1.00
C163   C     0.56578   0.39690   0.78411   0.00000  Uiso   1.00
C164   C     0.54737   0.35629   0.71565   0.00000  Uiso   1.00
C165   C     0.57026   0.33608   0.70020   0.00000  Uiso   1.00
C166   C     0.77008   0.34206   0.65483   0.00000  Uiso   1.00
C167   C     0.81280   0.36486   0.62766   0.00000  Uiso   1.00
C168   C     0.83542   0.40749   0.66984   0.00000  Uiso   1.00
C169   C     0.81487   0.42765   0.73772   0.00000  Uiso   1.00
C170   C     0.77231   0.40590   0.76813   0.00000  Uiso   1.00
C171   C     0.63906   0.20341   0.78626   0.00000  Uiso   1.00
C172   C     0.61936   0.16050   0.80348   0.00000  Uiso   1.00
C173   C     0.57906   0.13815   0.87375   0.00000  Uiso   1.00
C174   C     0.55912   0.15957   0.93617   0.00000  Uiso   1.00
C175   C     0.57922   0.20273   0.92371   0.00000  Uiso   1.00
N176   N     0.54022   0.41523   0.80850   0.00000  Uiso   1.00
N177   N     0.55993   0.09393   0.87769   0.00000  Uiso   1.00
N178   N     0.87925   0.43197   0.64080   0.00000  Uiso   1.00
H179   H     0.70208   0.28136   0.83562   0.00000  Uiso   1.00
H180   H     0.69366   0.38798   0.68184   0.00000  Uiso   1.00
H181   H     0.58339   0.27388   0.81098   0.00000  Uiso   1.00
H182   H     0.66199   0.41282   0.87691   0.00000  Uiso   1.00
H183   H     0.62278   0.44793   0.89865   0.00000  Uiso   1.00
H184   H     0.51508   0.34027   0.67392   0.00000  Uiso   1.00
H185   H     0.55519   0.30499   0.64283   0.00000  Uiso   1.00
H186   H     0.75394   0.30967   0.61538   0.00000  Uiso   1.00
H187   H     0.82759   0.34883   0.56825   0.00000  Uiso   1.00
H188   H     0.83225   0.46044   0.77008   0.00000  Uiso   1.00
H189   H     0.75744   0.42192   0.82767   0.00000  Uiso   1.00
H190   H     0.66912   0.21879   0.71877   0.00000  Uiso   1.00
H191   H     0.63499   0.14432   0.75459   0.00000  Uiso   1.00
H192   H     0.52854   0.14353   0.99824   0.00000  Uiso   1.00
H193   H     0.56330   0.21803   0.97894   0.00000  Uiso   1.00
C194   C     0.52349   0.46903   0.86965   0.00000  Uiso   1.00
C195   C     0.48074   0.44181   0.89735   0.00000  Uiso   1.00
C196   C     0.45447   0.45833   0.92281   0.00000  Uiso   1.00
C197   C     0.46976   0.50113   0.91562   0.00000  Uiso   1.00
C198   C     0.51269   0.52841   0.89288   0.00000  Uiso   1.00
C199   C     0.53896   0.51187   0.86755   0.00000  Uiso   1.00
C200   C     0.43952   0.51566   0.92764   0.00000  Uiso   1.00
N201   N     0.45115   0.55475   0.91939   0.00000  Uiso   1.00
H202   H     0.58576   0.47669   0.83948   0.00000  Uiso   1.00
H203   H     0.42181   0.43765   0.94927   0.00000  Uiso   1.00
H204   H     0.57161   0.53252   0.84066   0.00000  Uiso   1.00
H205   H     0.40698   0.49270   0.93933   0.00000  Uiso   1.00
C206   C     0.42378   0.57125   0.90992   0.00000  Uiso   1.00
C207   C     0.38366   0.54834   0.83458   0.00000  Uiso   1.00
C208   C     0.35918   0.56656   0.81176   0.00000  Uiso   1.00
C209   C     0.37372   0.60795   0.86693   0.00000  Uiso   1.00
C210   C     0.41376   0.63035   0.94648   0.00000  Uiso   1.00
C211   C     0.43864   0.61233   0.96429   0.00000  Uiso   1.00
C212   C     0.34823   0.62796   0.82908   0.00000  Uiso   1.00
C213   C     0.30498   0.60374   0.81001   0.00000  Uiso   1.00
C214   C     0.28113   0.62118   0.75033   0.00000  Uiso   1.00
C215   C     0.30070   0.66408   0.72154   0.00000  Uiso   1.00
C216   C     0.34313   0.68954   0.75702   0.00000  Uiso   1.00
C217   C     0.36684   0.67110   0.80464   0.00000  Uiso   1.00
C218   C     0.23588   0.59461   0.71730   0.00000  Uiso   1.00
C219   C     0.36211   0.73534   0.75372   0.00000  Uiso   1.00
C220   C     0.21930   0.55366   0.65154   0.00000  Uiso   1.00
C221   C     0.17683   0.52879   0.62093   0.00000  Uiso   1.00
C222   C     0.15025   0.54450   0.65056   0.00000  Uiso   1.00
C223   C     0.16642   0.58519   0.71804   0.00000  Uiso   1.00
C224   C     0.20877   0.60987   0.75194   0.00000  Uiso   1.00
C225   C     0.33923   0.75386   0.81560   0.00000  Uiso   1.00
C226   C     0.35778   0.79680   0.82866   0.00000  Uiso   1.00
C227   C     0.39966   0.82209   0.78513   0.00000  Uiso   1.00
C228   C     0.42238   0.80403   0.71589   0.00000  Uiso   1.00
C229   C     0.40367   0.76105   0.69949   0.00000  Uiso   1.00
N230   N     0.41794   0.86577   0.81556   0.00000  Uiso   1.00
N231   N     0.10683   0.51771   0.61991   0.00000  Uiso   1.00
H232   H     0.37186   0.51712   0.78271   0.00000  Uiso   1.00
H233   H     0.32969   0.54844   0.74140   0.00000  Uiso   1.00
H234   H     0.42614   0.66170   0.99713   0.00000  Uiso   1.00
H235   H     0.46957   0.63035   1.02231   0.00000  Uiso   1.00
H236   H     0.28953   0.57115   0.84404   0.00000  Uiso   1.00
H237   H     0.28299   0.67782   0.66955   0.00000  Uiso   1.00
H238   H     0.39978   0.69064   0.82371   0.00000  Uiso   1.00
H239   H     0.23908   0.54088   0.62041   0.00000  Uiso   1.00
H240   H     0.16462   0.49735   0.57055   0.00000  Uiso   1.00
H241   H     0.14638   0.59758   0.75080   0.00000  Uiso   1.00
H242   H     0.22000   0.64056   0.80979   0.00000  Uiso   1.00
H243   H     0.30742   0.73523   0.86192   0.00000  Uiso   1.00
H244   H     0.33992   0.81039   0.88099   0.00000  Uiso   1.00
H245   H     0.45431   0.82282   0.67210   0.00000  Uiso   1.00
H246   H     0.42180   0.74809   0.64377   0.00000  Uiso   1.00
C247   C     0.08068   0.52990   0.57917   0.00000  Uiso   1.00
H248   H     0.09134   0.56250   0.55840   0.00000  Uiso   1.00
C249   C     0.90458   0.41833   0.60795   0.00000  Uiso   1.00
H250   H     0.89382   0.38550   0.60744   0.00000  Uiso   1.00
C251   C     0.50582   0.02238   0.89828   0.00000  Uiso   1.00
C252   C     0.52110   0.06740   0.90557   0.00000  Uiso   1.00
H253   H     0.49893   0.07766   0.92722   0.00000  Uiso   1.00
O254   O     0.52811   0.57137   0.88073   0.00000  Uiso   1.00
C255   C     0.56682   0.59809   0.97169   0.00000  Uiso   1.00
O256   O     0.46551   0.39894   0.91282   0.00000  Uiso   1.00
C257   C     0.42689   0.37186   0.82193   0.00000  Uiso   1.00
C258   C     0.46336   0.99522   0.92557   0.00000  Uiso   1.00
C259   C     0.44643   0.95188   0.91817   0.00000  Uiso   1.00
C260   C     0.47268   0.93613   0.86927   0.00000  Uiso   1.00
C261   C     0.51517   0.96323   0.84556   0.00000  Uiso   1.00
C262   C     0.53234   0.00616   0.86542   0.00000  Uiso   1.00
C263   C     0.45710   0.89149   0.84128   0.00000  Uiso   1.00
C264   C     0.94938   0.44729   0.58518   0.00000  Uiso   1.00
C265   C     0.97605   0.43104   0.59287   0.00000  Uiso   1.00
C266   C     0.01921   0.45691   0.58109   0.00000  Uiso   1.00
C267   C     0.03579   0.50017   0.56874   0.00000  Uiso   1.00
C268   C     0.00906   0.51622   0.55161   0.00000  Uiso   1.00
C269   C     0.96592   0.49036   0.56319   0.00000  Uiso   1.00
O270   O     0.57502   0.03307   0.83764   0.00000  Uiso   1.00
C271   C     0.60270   0.02229   0.92825   0.00000  Uiso   1.00
O272   O     0.40439   0.92356   0.95955   0.00000  Uiso   1.00
C273   C     0.37931   0.93867   1.04061   0.00000  Uiso   1.00
O274   O     0.04606   0.44068   0.59568   0.00000  Uiso   1.00
C275   C     0.03426   0.40234   0.50143   0.00000  Uiso   1.00
O276   O     0.93903   0.50637   0.54178   0.00000  Uiso   1.00
C277   C     0.94999   0.54453   0.63586   0.00000  Uiso   1.00
H278   H     0.59109   0.61540   0.86402   0.00000  Uiso   1.00
H279   H     0.57732   0.58127   1.06602   0.00000  Uiso   1.00
H280   H     0.56329   0.62094   1.05860   0.00000  Uiso   1.00
H281   H     0.43074   0.34917   0.73525   0.00000  Uiso   1.00
H282   H     0.41608   0.38838   0.72738   0.00000  Uiso   1.00
H283   H     0.40270   0.35438   0.92964   0.00000  Uiso   1.00
H284   H     0.44366   0.00832   0.95142   0.00000  Uiso   1.00
H285   H     0.53505   0.95092   0.80688   0.00000  Uiso   1.00
H286   H     0.47919   0.88069   0.84187   0.00000  Uiso   1.00
H287   H     0.96316   0.39811   0.61505   0.00000  Uiso   1.00
H288   H     0.02198   0.54919   0.53049   0.00000  Uiso   1.00
H289   H     0.62007   0.01550   0.82025   0.00000  Uiso   1.00
H290   H     0.58674   0.99514   1.02428   0.00000  Uiso   1.00
H291   H     0.62542   0.04921   1.01292   0.00000  Uiso   1.00
H292   H     0.35123   0.91224   1.10336   0.00000  Uiso   1.00
H293   H     0.36915   0.95324   0.93272   0.00000  Uiso   1.00
H294   H     0.39629   0.96160   1.15291   0.00000  Uiso   1.00
H295   H     0.06097   0.40610   0.41642   0.00000  Uiso   1.00
H296   H     0.00746   0.39241   0.40442   0.00000  Uiso   1.00
H297   H     0.02670   0.37757   0.60718   0.00000  Uiso   1.00
H298   H     0.95742   0.56925   0.53001   0.00000  Uiso   1.00
H299   H     0.97667   0.55489   0.73396   0.00000  Uiso   1.00
H300   H     0.92292   0.54029   0.71946   0.00000  Uiso   1.00
loop_
_geom_bond_atom_site_label_1
_geom_bond_atom_site_label_2
_geom_bond_distance
_geom_bond_site_symmetry_2
_ccdc_geom_bond_type
C1     N26     1.298   .     D
C1     C44     1.476   .     S
C1     H52     1.081   .     S
C2     C3      1.405   .     D
C2     C7      1.408   .     S
C2     C9      1.495   .     S
C3     C4      1.401   .     S
C3     H29     1.080   .     S
C4     C5      1.399   .     D
C4     C10     1.483   .     S
C5     C6      1.402   .     S
C5     H30     1.082   .     S
C6     C7      1.406   .     D
C6     C8      1.487   .     S
C7     H31     1.078   .     S
C8     C11     1.407   .     D
C8     C15     1.407   .     S
C9     C21     1.411   .     D
C9     C25     1.410   .     S
C10    C16     1.402   .     D
C10    C20     1.480   .     S
C11    C12     1.392   .     S
C11    H32     1.082   .     S
C12    C13     1.406   .     D
C12    H33     1.080   .     S
C13    C14     1.398   .     S
C13    N26     1.433   .     S
C14    C15     1.397   .     D
C14    H34     1.083   .     S
C15    H35     1.082   .     S
C16    C17     1.393   .     S
C16    H36     1.082   .     S
C17    C18     1.409   .     D
C17    H37     1.079   .     S
C18    C19     1.398   .     S
C18    N28     1.433   .     S
C19    C20     1.390   .     D
C19    H38     1.083   .     S
C20    H39     1.082   .     S
C21    C22     1.392   .     S
C21    H40     1.081   .     S
C22    C23     1.394   .     D
C22    H41     1.083   .     S
C23    C24     1.406   .     S
C23    N27     1.432   .     S
C24    C25     1.397   .     D
C24    H42     1.080   .     S
C25    H43     1.081   .     S
N27    C102    1.296   .     D
N28    C99     1.297   .     D
C44    C45     1.411   .     D
C44    C49     1.401   .     S
C45    C46     1.405   .     S
C45    O106    1.407   .     S
C46    C47     1.401   .     D
C46    H53     1.083   .     S
C47    C48     1.412   .     S
C47    C50     1.477   .     S
C48    C49     1.405   .     D
C48    O104    1.408   .     S
C49    H54     1.083   .     S
C50    N51     1.297   .     D
C50    H55     1.083   .     S
N51    C56     1.432   .     S
C56    C57     1.404   .     D
C56    C61     1.396   .     S
C57    C58     1.393   .     S
C57    H82     1.081   .     S
C58    C59     1.410   .     D
C58    H83     1.080   .     S
C59    C60     1.411   .     S
C59    C62     1.496   .     S
C60    C61     1.396   .     D
C60    H84     1.080   .     S
C61    H85     1.083   .     S
C62    C63     1.406   .     S
C62    C67     1.407   .     D
C63    C64     1.403   .     D
C63    H86     1.079   .     S
C64    C65     1.401   .     S
C64    C68     1.486   .     S
C65    C66     1.401   .     D
C65    H87     1.082   .     S
C66    C67     1.405   .     S
C66    C69     1.486   .     S
C67    H88     1.077   .     S
C68    C70     1.408   .     D
C68    C74     1.407   .     S
C69    C75     1.408   .     D
C69    C79     1.407   .     S
C70    C71     1.394   .     S
C70    H89     1.082   .     S
C71    C72     1.396   .     D
C71    H90     1.083   .     S
C72    C73     1.405   .     S
C72    N81     1.431   .     S
C73    C74     1.394   .     D
C73    H91     1.081   .     S
C74    H92     1.082   .     S
C75    C76     1.393   .     S
C75    H93     1.082   .     S
C76    C77     1.396   .     D
C76    H94     1.083   .     S
C77    C78     1.407   .     S
C77    N80     1.432   .     S
C78    C79     1.396   .     D
C78    H95     1.081   .     S
C79    H96     1.082   .     S
N80    C113    1.297   .     D
N81    C97     1.296   .     D
C97    H98     1.083   .     S
C97    C117    1.476   .     S
C99    H100    1.080   .     S
C99    C114    1.475   .     S
C101   C102    1.479   .     S
C101   C108    1.401   1_545 D
C101   C112    1.412   .     S
C102   H103    1.081   .     S
O104   C105    1.431   .     S
C105   H128    1.107   .     S
C105   H129    1.110   .     S
C105   H130    1.109   .     S
O106   C107    1.431   .     S
C107   H131    1.109   .     S
C107   H132    1.110   .     S
C107   H133    1.107   .     S
C108   C101    1.401   1_565 D
C108   C109    1.411   .     S
C108   H134    1.081   1_565 S
C109   C110    1.413   .     D
C109   O122    1.415   .     S
C110   C111    1.399   .     S
C110   C113    1.475   .     S
C111   C112    1.402   1_565 D
C111   H135    1.084   .     S
C112   C111    1.402   1_545 D
C112   O120    1.407   .     S
C113   H136    1.082   .     S
C114   C115    1.400   .     D
C114   C119    1.411   .     S
C115   C116    1.405   1_655 S
C115   H137    1.083   .     S
C116   C115    1.405   1_455 S
C116   C117    1.412   .     D
C116   O124    1.408   .     S
C117   C118    1.400   .     S
C118   C119    1.404   1_455 D
C118   H138    1.083   .     S
C119   C118    1.404   1_655 D
C119   O126    1.408   .     S
O120   C121    1.431   .     S
C121   H139    1.107   .     S
C121   H140    1.111   1_545 S
C121   H141    1.109   .     S
O122   C123    1.429   .     S
C123   H142    1.109   .     S
C123   H143    1.105   .     S
C123   H144    1.103   .     S
O124   C125    1.431   .     S
C125   H145    1.109   .     S
C125   H146    1.110   .     S
C125   H147    1.107   .     S
O126   C127    1.431   .     S
C127   H148    1.107   .     S
C127   H149    1.110   .     S
C127   H150    1.109   .     S
H134   C108    1.081   1_545 S
H140   C121    1.111   1_565 S
C151   N176    1.298   .     D
C151   C194    1.476   .     S
C151   H202    1.081   .     S
C152   C153    1.405   .     S
C152   C157    1.408   .     D
C152   C159    1.495   .     S
C153   C154    1.402   .     D
C153   H179    1.080   .     S
C154   C155    1.399   .     S
C154   C160    1.483   .     S
C155   C156    1.402   .     D
C155   H180    1.082   .     S
C156   C157    1.406   .     S
C156   C158    1.487   .     S
C157   H181    1.078   .     S
C158   C161    1.407   .     D
C158   C165    1.407   .     S
C159   C171    1.410   .     D
C159   C175    1.411   .     S
C160   C166    1.402   .     S
C160   C170    1.480   .     D
C161   C162    1.393   .     S
C161   H182    1.082   .     S
C162   C163    1.406   .     D
C162   H183    1.080   .     S
C163   C164    1.398   .     S
C163   N176    1.433   .     S
C164   C165    1.396   .     D
C164   H184    1.083   .     S
C165   H185    1.082   .     S
C166   C167    1.393   .     D
C166   H186    1.082   .     S
C167   C168    1.409   .     S
C167   H187    1.079   .     S
C168   C169    1.398   .     D
C168   N178    1.433   .     S
C169   C170    1.390   .     S
C169   H188    1.083   .     S
C170   H189    1.082   .     S
C171   C172    1.392   .     S
C171   H190    1.081   .     S
C172   C173    1.394   .     D
C172   H191    1.083   .     S
C173   C174    1.406   .     S
C173   N177    1.432   .     S
C174   C175    1.397   .     D
C174   H192    1.080   .     S
C175   H193    1.080   .     S
N177   C252    1.296   .     D
N178   C249    1.297   .     D
C194   C195    1.411   .     D
C194   C199    1.401   .     S
C195   C196    1.405   .     S
C195   O256    1.407   .     S
C196   C197    1.401   .     D
C196   H203    1.083   .     S
C197   C198    1.412   .     S
C197   C200    1.477   .     S
C198   C199    1.405   .     D
C198   O254    1.408   .     S
C199   H204    1.083   .     S
C200   N201    1.297   .     D
C200   H205    1.083   .     S
N201   C206    1.432   .     S
C206   C207    1.404   .     D
C206   C211    1.396   .     S
C207   C208    1.393   .     S
C207   H232    1.081   .     S
C208   C209    1.410   .     D
C208   H233    1.080   .     S
C209   C210    1.411   .     S
C209   C212    1.496   .     S
C210   C211    1.396   .     D
C210   H234    1.080   .     S
C211   H235    1.083   .     S
C212   C213    1.406   .     D
C212   C217    1.407   .     S
C213   C214    1.403   .     S
C213   H236    1.079   .     S
C214   C215    1.401   .     D
C214   C218    1.486   .     S
C215   C216    1.401   .     S
C215   H237    1.082   .     S
C216   C217    1.405   .     D
C216   C219    1.486   .     S
C217   H238    1.078   .     S
C218   C220    1.408   .     S
C218   C224    1.407   .     D
C219   C225    1.408   .     D
C219   C229    1.407   .     S
C220   C221    1.394   .     D
C220   H239    1.082   .     S
C221   C222    1.396   .     S
C221   H240    1.083   .     S
C222   C223    1.405   .     D
C222   N231    1.431   .     S
C223   C224    1.394   .     S
C223   H241    1.081   .     S
C224   H242    1.082   .     S
C225   C226    1.393   .     S
C225   H243    1.082   .     S
C226   C227    1.396   .     D
C226   H244    1.083   .     S
C227   C228    1.406   .     S
C227   N230    1.432   .     S
C228   C229    1.396   .     D
C228   H245    1.081   .     S
C229   H246    1.082   .     S
N230   C263    1.297   .     D
N231   C247    1.297   .     D
C247   H248    1.083   .     S
C247   C267    1.476   .     S
C249   H250    1.080   .     S
C249   C264    1.475   .     S
C251   C252    1.479   .     S
C251   C258    1.401   1_545 D
C251   C262    1.412   .     S
C252   H253    1.081   .     S
O254   C255    1.431   .     S
C255   H278    1.107   .     S
C255   H279    1.110   .     S
C255   H280    1.109   .     S
O256   C257    1.431   .     S
C257   H281    1.109   .     S
C257   H282    1.110   .     S
C257   H283    1.107   .     S
C258   C251    1.401   1_565 D
C258   C259    1.411   .     S
C258   H284    1.081   1_565 S
C259   C260    1.412   .     D
C259   O272    1.414   .     S
C260   C261    1.399   .     S
C260   C263    1.476   .     S
C261   C262    1.402   1_565 D
C261   H285    1.083   .     S
C262   C261    1.402   1_545 D
C262   O270    1.407   .     S
C263   H286    1.082   .     S
C264   C265    1.400   .     S
C264   C269    1.411   .     D
C265   C266    1.405   1_655 D
C265   H287    1.083   .     S
C266   C265    1.405   1_455 D
C266   C267    1.412   .     S
C266   O274    1.408   .     S
C267   C268    1.400   .     D
C268   C269    1.404   1_455 S
C268   H288    1.083   .     S
C269   C268    1.404   1_655 S
C269   O276    1.408   .     S
O270   C271    1.431   .     S
C271   H289    1.107   .     S
C271   H290    1.111   1_545 S
C271   H291    1.109   .     S
O272   C273    1.429   .     S
C273   H292    1.109   .     S
C273   H293    1.105   .     S
C273   H294    1.103   .     S
O274   C275    1.431   .     S
C275   H295    1.109   .     S
C275   H296    1.110   .     S
C275   H297    1.107   .     S
O276   C277    1.431   .     S
C277   H298    1.107   .     S
C277   H299    1.110   .     S
C277   H300    1.109   .     S
H284   C258    1.081   1_545 S
H290   C271    1.111   1_565 S
