data_448
_audit_creation_date              2023-09-08
_audit_creation_method            'Materials Studio'
_symmetry_space_group_name_H-M    'P1'
_symmetry_Int_Tables_number       1
_symmetry_cell_setting            triclinic
loop_
_symmetry_equiv_pos_as_xyz
  x,y,z
_cell_length_a                    37.3249
_cell_length_b                    37.3249
_cell_length_c                    3.5317
_cell_angle_alpha                 90.0000
_cell_angle_beta                  90.0000
_cell_angle_gamma                 120.0000
loop_
_atom_site_label
_atom_site_type_symbol
_atom_site_fract_x
_atom_site_fract_y
_atom_site_fract_z
_atom_site_U_iso_or_equiv
_atom_site_adp_type
_atom_site_occupancy
C1     C     0.35193   0.64180   0.00000   0.00000  Uiso   1.00
C2     C     0.35820   0.71013   0.00000   0.00000  Uiso   1.00
C3     C     0.28987   0.64807   0.00000   0.00000  Uiso   1.00
C4     C     0.64807   0.35820   0.00000   0.00000  Uiso   1.00
C5     C     0.64180   0.28987   0.00000   0.00000  Uiso   1.00
C6     C     0.71013   0.35193   0.00000   0.00000  Uiso   1.00
C7     C     0.37630   0.68505   0.00000   0.00000  Uiso   1.00
C8     C     0.31495   0.69125   0.00000   0.00000  Uiso   1.00
C9     C     0.30875   0.62370   0.00000   0.00000  Uiso   1.00
C10    C     0.62370   0.31495   0.00000   0.00000  Uiso   1.00
C11    C     0.68505   0.30875   0.00000   0.00000  Uiso   1.00
C12    C     0.69125   0.37630   0.00000   0.00000  Uiso   1.00
C13    C     0.37146   0.61568   0.00000   0.00000  Uiso   1.00
C14    C     0.38432   0.75578   0.00000   0.00000  Uiso   1.00
C15    C     0.24422   0.62854   0.00000   0.00000  Uiso   1.00
C16    C     0.62854   0.38432   0.00000   0.00000  Uiso   1.00
C17    C     0.61568   0.24422   0.00000   0.00000  Uiso   1.00
C18    C     0.75578   0.37146   0.00000   0.00000  Uiso   1.00
C19    C     0.34706   0.57236   0.00000   0.00000  Uiso   1.00
C20    C     0.42764   0.77470   0.00000   0.00000  Uiso   1.00
C21    C     0.22530   0.65294   0.00000   0.00000  Uiso   1.00
C22    C     0.65294   0.42764   0.00000   0.00000  Uiso   1.00
C23    C     0.57236   0.22530   0.00000   0.00000  Uiso   1.00
C24    C     0.77470   0.34706   0.00000   0.00000  Uiso   1.00
C25    C     0.36546   0.54770   0.00000   0.00000  Uiso   1.00
C26    C     0.45230   0.81776   0.00000   0.00000  Uiso   1.00
C27    C     0.18224   0.63454   0.00000   0.00000  Uiso   1.00
C28    C     0.63454   0.45230   0.00000   0.00000  Uiso   1.00
C29    C     0.54770   0.18224   0.00000   0.00000  Uiso   1.00
C30    C     0.81776   0.36546   0.00000   0.00000  Uiso   1.00
C31    C     0.40852   0.56587   0.00000   0.00000  Uiso   1.00
C32    C     0.43413   0.84265   0.00000   0.00000  Uiso   1.00
C33    C     0.15735   0.59148   0.00000   0.00000  Uiso   1.00
C34    C     0.59148   0.43413   0.00000   0.00000  Uiso   1.00
C35    C     0.56587   0.15735   0.00000   0.00000  Uiso   1.00
C36    C     0.84265   0.40852   0.00000   0.00000  Uiso   1.00
C37    C     0.41470   0.63380   0.00000   0.00000  Uiso   1.00
C38    C     0.36620   0.78090   0.00000   0.00000  Uiso   1.00
C39    C     0.21910   0.58530   0.00000   0.00000  Uiso   1.00
C40    C     0.58530   0.36620   0.00000   0.00000  Uiso   1.00
C41    C     0.63380   0.21910   0.00000   0.00000  Uiso   1.00
C42    C     0.78090   0.41470   0.00000   0.00000  Uiso   1.00
C43    C     0.43312   0.60916   0.00000   0.00000  Uiso   1.00
C44    C     0.39084   0.82396   0.00000   0.00000  Uiso   1.00
C45    C     0.17604   0.56688   0.00000   0.00000  Uiso   1.00
C46    C     0.56688   0.39084   0.00000   0.00000  Uiso   1.00
C47    C     0.60916   0.17604   0.00000   0.00000  Uiso   1.00
C48    C     0.82396   0.43312   0.00000   0.00000  Uiso   1.00
N49    N     0.42642   0.53974   0.00000   0.00000  Uiso   1.00
N50    N     0.46026   0.88668   0.00000   0.00000  Uiso   1.00
N51    N     0.11332   0.57358   0.00000   0.00000  Uiso   1.00
N52    N     0.57358   0.46026   0.00000   0.00000  Uiso   1.00
N53    N     0.53974   0.11332   0.00000   0.00000  Uiso   1.00
N54    N     0.88668   0.42642   0.00000   0.00000  Uiso   1.00
C55    C     0.46598   0.55394   0.00000   0.00000  Uiso   1.00
C56    C     0.44606   0.91204   0.00000   0.00000  Uiso   1.00
C57    C     0.08796   0.53402   0.00000   0.00000  Uiso   1.00
C58    C     0.53402   0.44606   0.00000   0.00000  Uiso   1.00
C59    C     0.55394   0.08796   0.00000   0.00000  Uiso   1.00
C60    C     0.91204   0.46598   0.00000   0.00000  Uiso   1.00
C61    C     0.48302   0.52608   0.00000   0.00000  Uiso   1.00
C62    C     0.47392   0.95694   0.00000   0.00000  Uiso   1.00
C63    C     0.04306   0.51698   0.00000   0.00000  Uiso   1.00
C64    C     0.51698   0.47392   0.00000   0.00000  Uiso   1.00
C65    C     0.52608   0.04306   0.00000   0.00000  Uiso   1.00
C66    C     0.95694   0.48302   0.00000   0.00000  Uiso   1.00
C67    C     0.45709   0.48301   0.00000   0.00000  Uiso   1.00
C68    C     0.51699   0.97408   0.00000   0.00000  Uiso   1.00
C69    C     0.02592   0.54291   0.00000   0.00000  Uiso   1.00
C70    C     0.54291   0.51699   0.00000   0.00000  Uiso   1.00
C71    C     0.48301   0.02592   0.00000   0.00000  Uiso   1.00
C72    C     0.97408   0.45709   0.00000   0.00000  Uiso   1.00
C73    C     0.47406   0.45706   0.00000   0.00000  Uiso   1.00
C74    C     0.54294   0.01700   0.00000   0.00000  Uiso   1.00
C75    C     0.98300   0.52594   0.00000   0.00000  Uiso   1.00
C76    C     0.52594   0.54294   0.00000   0.00000  Uiso   1.00
C77    C     0.45706   0.98300   0.00000   0.00000  Uiso   1.00
C78    C     0.01700   0.47406   0.00000   0.00000  Uiso   1.00
H79    H     0.40849   0.69885   0.00000   0.00000  Uiso   1.00
H80    H     0.30115   0.70964   0.00000   0.00000  Uiso   1.00
H81    H     0.29036   0.59151   0.00000   0.00000  Uiso   1.00
H82    H     0.59151   0.30115   0.00000   0.00000  Uiso   1.00
H83    H     0.69885   0.29036   0.00000   0.00000  Uiso   1.00
H84    H     0.70964   0.40849   0.00000   0.00000  Uiso   1.00
H85    H     0.31396   0.55472   0.00000   0.00000  Uiso   1.00
H86    H     0.44528   0.75924   0.00000   0.00000  Uiso   1.00
H87    H     0.24076   0.68604   0.00000   0.00000  Uiso   1.00
H88    H     0.68604   0.44528   0.00000   0.00000  Uiso   1.00
H89    H     0.55472   0.24076   0.00000   0.00000  Uiso   1.00
H90    H     0.75924   0.31396   0.00000   0.00000  Uiso   1.00
H91    H     0.34647   0.51433   0.00000   0.00000  Uiso   1.00
H92    H     0.48567   0.83214   0.00000   0.00000  Uiso   1.00
H93    H     0.16786   0.65353   0.00000   0.00000  Uiso   1.00
H94    H     0.65353   0.48567   0.00000   0.00000  Uiso   1.00
H95    H     0.51433   0.16786   0.00000   0.00000  Uiso   1.00
H96    H     0.83214   0.34647   0.00000   0.00000  Uiso   1.00
H97    H     0.43666   0.66627   0.00000   0.00000  Uiso   1.00
H98    H     0.33373   0.77039   0.00000   0.00000  Uiso   1.00
H99    H     0.22961   0.56334   0.00000   0.00000  Uiso   1.00
H100   H     0.56334   0.33373   0.00000   0.00000  Uiso   1.00
H101   H     0.66627   0.22961   0.00000   0.00000  Uiso   1.00
H102   H     0.77039   0.43666   0.00000   0.00000  Uiso   1.00
H103   H     0.46633   0.62570   0.00000   0.00000  Uiso   1.00
H104   H     0.37431   0.84064   0.00000   0.00000  Uiso   1.00
H105   H     0.15936   0.53367   0.00000   0.00000  Uiso   1.00
H106   H     0.53367   0.37431   0.00000   0.00000  Uiso   1.00
H107   H     0.62570   0.15936   0.00000   0.00000  Uiso   1.00
H108   H     0.84064   0.46633   0.00000   0.00000  Uiso   1.00
H109   H     0.48851   0.58633   0.00000   0.00000  Uiso   1.00
H110   H     0.41367   0.90218   0.00000   0.00000  Uiso   1.00
H111   H     0.09782   0.51149   0.00000   0.00000  Uiso   1.00
H112   H     0.51149   0.41367   0.00000   0.00000  Uiso   1.00
H113   H     0.58633   0.09782   0.00000   0.00000  Uiso   1.00
H114   H     0.90218   0.48851   0.00000   0.00000  Uiso   1.00
H115   H     0.42379   0.46952   0.00000   0.00000  Uiso   1.00
H116   H     0.53048   0.95427   0.00000   0.00000  Uiso   1.00
H117   H     0.04573   0.57621   0.00000   0.00000  Uiso   1.00
H118   H     0.57621   0.53048   0.00000   0.00000  Uiso   1.00
H119   H     0.46952   0.04573   0.00000   0.00000  Uiso   1.00
H120   H     0.95427   0.42379   0.00000   0.00000  Uiso   1.00
H121   H     0.45352   0.42387   0.00000   0.00000  Uiso   1.00
H122   H     0.57613   0.02965   0.00000   0.00000  Uiso   1.00
H123   H     0.97035   0.54648   0.00000   0.00000  Uiso   1.00
H124   H     0.54648   0.57613   0.00000   0.00000  Uiso   1.00
H125   H     0.42387   0.97035   0.00000   0.00000  Uiso   1.00
H126   H     0.02965   0.45352   0.00000   0.00000  Uiso   1.00
loop_
_geom_bond_atom_site_label_1
_geom_bond_atom_site_label_2
_geom_bond_distance
_geom_bond_site_symmetry_2
_ccdc_geom_bond_type
C1     C7      1.402   .     D
C1     C9      1.402   .     S
C1     C13     1.481   .     S
C2     C7      1.402   .     S
C2     C8      1.402   .     D
C2     C14     1.481   .     S
C3     C8      1.402   .     S
C3     C9      1.402   .     D
C3     C15     1.481   .     S
C4     C10     1.402   .     D
C4     C12     1.402   .     S
C4     C16     1.481   .     S
C5     C10     1.402   .     S
C5     C11     1.402   .     D
C5     C17     1.481   .     S
C6     C11     1.402   .     S
C6     C12     1.402   .     D
C6     C18     1.481   .     S
C7     H79     1.044   .     S
C8     H80     1.044   .     S
C9     H81     1.044   .     S
C10    H82     1.044   .     S
C11    H83     1.044   .     S
C12    H84     1.044   .     S
C13    C19     1.404   .     D
C13    C37     1.404   .     S
C14    C20     1.404   .     D
C14    C38     1.404   .     S
C15    C21     1.404   .     S
C15    C39     1.404   .     D
C16    C22     1.404   .     D
C16    C40     1.404   .     S
C17    C23     1.404   .     D
C17    C41     1.404   .     S
C18    C24     1.404   .     S
C18    C42     1.404   .     D
C19    C25     1.397   .     S
C19    H85     1.071   .     S
C20    C26     1.397   .     S
C20    H86     1.071   .     S
C21    C27     1.397   .     D
C21    H87     1.071   .     S
C22    C28     1.397   .     S
C22    H88     1.071   .     S
C23    C29     1.397   .     S
C23    H89     1.071   .     S
C24    C30     1.397   .     D
C24    H90     1.071   .     S
C25    C31     1.398   .     D
C25    H91     1.082   .     S
C26    C32     1.398   .     D
C26    H92     1.082   .     S
C27    C33     1.398   .     S
C27    H93     1.082   .     S
C28    C34     1.398   .     D
C28    H94     1.082   .     S
C29    C35     1.398   .     D
C29    H95     1.082   .     S
C30    C36     1.398   .     S
C30    H96     1.082   .     S
C31    C43     1.404   .     S
C31    N49     1.432   .     S
C32    C44     1.404   .     S
C32    N50     1.432   .     S
C33    C45     1.404   .     D
C33    N51     1.432   .     S
C34    C46     1.404   .     S
C34    N52     1.432   .     S
C35    C47     1.404   .     S
C35    N53     1.432   .     S
C36    C48     1.404   .     D
C36    N54     1.432   .     S
C37    C43     1.397   .     D
C37    H97     1.071   .     S
C38    C44     1.397   .     D
C38    H98     1.071   .     S
C39    C45     1.397   .     S
C39    H99     1.071   .     S
C40    C46     1.397   .     D
C40    H100    1.071   .     S
C41    C47     1.397   .     D
C41    H101    1.071   .     S
C42    C48     1.397   .     S
C42    H102    1.071   .     S
C43    H103    1.074   .     S
C44    H104    1.074   .     S
C45    H105    1.074   .     S
C46    H106    1.074   .     S
C47    H107    1.074   .     S
C48    H108    1.074   .     S
N49    C55     1.296   .     D
N50    C56     1.296   .     D
N51    C57     1.296   .     D
N52    C58     1.296   .     D
N53    C59     1.296   .     D
N54    C60     1.296   .     D
C55    C61     1.465   .     S
C55    H109    1.073   .     S
C56    C62     1.465   .     S
C56    H110    1.073   .     S
C57    C63     1.465   .     S
C57    H111    1.073   .     S
C58    C64     1.465   .     S
C58    H112    1.073   .     S
C59    C65     1.465   .     S
C59    H113    1.073   .     S
C60    C66     1.465   .     S
C60    H114    1.073   .     S
C61    C67     1.402   .     S
C61    C76     1.398   .     D
C62    C68     1.402   .     D
C62    C77     1.398   .     S
C63    C69     1.402   .     S
C63    C78     1.398   .     D
C64    C70     1.402   .     D
C64    C73     1.398   .     S
C65    C71     1.402   .     S
C65    C74     1.398   .     D
C66    C72     1.402   .     D
C66    C75     1.398   .     S
C67    C73     1.397   .     D
C67    H115    1.083   .     S
C68    C74     1.397   1_565 S
C68    H116    1.083   .     S
C69    C75     1.397   1_455 D
C69    H117    1.083   .     S
C70    C76     1.397   .     S
C70    H118    1.083   .     S
C71    C77     1.397   1_545 D
C71    H119    1.083   .     S
C72    C78     1.397   1_655 S
C72    H120    1.083   .     S
C73    H121    1.083   .     S
C74    C68     1.397   1_545 S
C74    H122    1.083   .     S
C75    C69     1.397   1_655 D
C75    H123    1.083   .     S
C76    H124    1.083   .     S
C77    C71     1.397   1_565 D
C77    H125    1.083   .     S
C78    C72     1.397   1_455 S
C78    H126    1.083   .     S
