data_449
_audit_creation_date              2023-09-08
_audit_creation_method            'Materials Studio'
_symmetry_space_group_name_H-M    'P1'
_symmetry_Int_Tables_number       1
_symmetry_cell_setting            triclinic
loop_
_symmetry_equiv_pos_as_xyz
  x,y,z
_cell_length_a                    37.6143
_cell_length_b                    37.4655
_cell_length_c                    7.1844
_cell_angle_alpha                 90.0000
_cell_angle_beta                  90.0000
_cell_angle_gamma                 120.0000
loop_
_atom_site_label
_atom_site_type_symbol
_atom_site_fract_x
_atom_site_fract_y
_atom_site_fract_z
_atom_site_U_iso_or_equiv
_atom_site_adp_type
_atom_site_occupancy
C1     C     0.32363   0.79966   0.26725   0.00000  Uiso   1.00
C2     C     0.41433   0.61862   0.23629   0.00000  Uiso   1.00
C3     C     0.45730   0.64262   0.25031   0.00000  Uiso   1.00
C4     C     0.47726   0.68583   0.26352   0.00000  Uiso   1.00
C5     C     0.45323   0.70498   0.26128   0.00000  Uiso   1.00
C6     C     0.41012   0.68198   0.24837   0.00000  Uiso   1.00
C7     C     0.39125   0.63877   0.23653   0.00000  Uiso   1.00
C8     C     0.38494   0.70298   0.24734   0.00000  Uiso   1.00
C9     C     0.39351   0.57260   0.22112   0.00000  Uiso   1.00
C10    C     0.52308   0.71093   0.27983   0.00000  Uiso   1.00
C11    C     0.40031   0.74275   0.32395   0.00000  Uiso   1.00
C12    C     0.37713   0.76248   0.32061   0.00000  Uiso   1.00
C13    C     0.33739   0.74261   0.24442   0.00000  Uiso   1.00
C14    C     0.32148   0.70287   0.17267   0.00000  Uiso   1.00
C15    C     0.34503   0.68356   0.17061   0.00000  Uiso   1.00
C16    C     0.54577   0.69427   0.36095   0.00000  Uiso   1.00
C17    C     0.58852   0.71755   0.37463   0.00000  Uiso   1.00
C18    C     0.60974   0.75846   0.31009   0.00000  Uiso   1.00
C19    C     0.58741   0.77545   0.23313   0.00000  Uiso   1.00
C20    C     0.54480   0.75194   0.21503   0.00000  Uiso   1.00
C21    C     0.41381   0.55320   0.14187   0.00000  Uiso   1.00
C22    C     0.39436   0.51029   0.12895   0.00000  Uiso   1.00
C23    C     0.35383   0.48564   0.18865   0.00000  Uiso   1.00
C24    C     0.33332   0.50456   0.26876   0.00000  Uiso   1.00
C25    C     0.35306   0.54739   0.28645   0.00000  Uiso   1.00
N26    N     0.31180   0.76099   0.24105   0.00000  Uiso   1.00
H27    H     0.47534   0.62755   0.25098   0.00000  Uiso   1.00
H28    H     0.46834   0.73804   0.27006   0.00000  Uiso   1.00
H29    H     0.35835   0.62053   0.22708   0.00000  Uiso   1.00
H30    H     0.42969   0.75854   0.39330   0.00000  Uiso   1.00
H31    H     0.39001   0.79251   0.38462   0.00000  Uiso   1.00
H32    H     0.29096   0.68720   0.11291   0.00000  Uiso   1.00
H33    H     0.33190   0.65389   0.10312   0.00000  Uiso   1.00
H34    H     0.53065   0.66365   0.42028   0.00000  Uiso   1.00
H35    H     0.60436   0.70372   0.44201   0.00000  Uiso   1.00
H36    H     0.60330   0.80689   0.18250   0.00000  Uiso   1.00
H37    H     0.52933   0.76593   0.14546   0.00000  Uiso   1.00
H38    H     0.44435   0.57092   0.08440   0.00000  Uiso   1.00
H39    H     0.41058   0.49618   0.06703   0.00000  Uiso   1.00
H40    H     0.30265   0.48649   0.32442   0.00000  Uiso   1.00
H41    H     0.33673   0.56036   0.35691   0.00000  Uiso   1.00
C42    C     0.29377   0.81426   0.26156   0.00000  Uiso   1.00
C43    C     0.25177   0.78692   0.23061   0.00000  Uiso   1.00
C44    C     0.22406   0.80145   0.22597   0.00000  Uiso   1.00
C45    C     0.23775   0.84345   0.25197   0.00000  Uiso   1.00
C46    C     0.27975   0.87080   0.28291   0.00000  Uiso   1.00
C47    C     0.30747   0.85626   0.28772   0.00000  Uiso   1.00
C48    C     0.20784   0.85798   0.24636   0.00000  Uiso   1.00
N49    N     0.21975   0.89681   0.26749   0.00000  Uiso   1.00
H50    H     0.35563   0.82205   0.28994   0.00000  Uiso   1.00
H51    H     0.24030   0.75434   0.20974   0.00000  Uiso   1.00
H52    H     0.19185   0.77982   0.20160   0.00000  Uiso   1.00
H53    H     0.29121   0.90337   0.30384   0.00000  Uiso   1.00
H54    H     0.33967   0.87787   0.31217   0.00000  Uiso   1.00
H55    H     0.17580   0.83541   0.22713   0.00000  Uiso   1.00
C56    C     0.19417   0.91523   0.26395   0.00000  Uiso   1.00
C57    C     0.15318   0.89412   0.20158   0.00000  Uiso   1.00
C58    C     0.12989   0.91373   0.20041   0.00000  Uiso   1.00
C59    C     0.14689   0.95473   0.26138   0.00000  Uiso   1.00
C60    C     0.18793   0.97575   0.32204   0.00000  Uiso   1.00
C61    C     0.21127   0.95620   0.32201   0.00000  Uiso   1.00
C62    C     0.12196   0.97546   0.26105   0.00000  Uiso   1.00
C63    C     0.08004   0.95331   0.30529   0.00000  Uiso   1.00
C64    C     0.05568   0.97203   0.29868   0.00000  Uiso   1.00
C65    C     0.07478   1.01450   0.25999   0.00000  Uiso   1.00
C66    C     0.11711   1.03774   0.22181   0.00000  Uiso   1.00
C67    C     0.13997   1.01741   0.21637   0.00000  Uiso   1.00
C68    C     0.01031   0.94688   0.32649   0.00000  Uiso   1.00
C69    C     0.13783   1.08329   0.19305   0.00000  Uiso   1.00
C70    C    -0.01123   0.90520   0.27162   0.00000  Uiso   1.00
C71    C    -0.05379   0.88185   0.28995   0.00000  Uiso   1.00
C72    C    -0.07615   0.89962   0.35817   0.00000  Uiso   1.00
C73    C    -0.05500   0.94102   0.41628   0.00000  Uiso   1.00
C74    C    -0.01222   0.96429   0.40139   0.00000  Uiso   1.00
C75    C     0.11661   1.10206   0.11770   0.00000  Uiso   1.00
C76    C     0.13574   1.14494   0.10189   0.00000  Uiso   1.00
C77    C     0.17665   1.17000   0.15614   0.00000  Uiso   1.00
C78    C     0.19814   1.15151   0.23017   0.00000  Uiso   1.00
C79    C     0.17889   1.10877   0.24917   0.00000  Uiso   1.00
H80    H     0.13907   0.86296   0.14947   0.00000  Uiso   1.00
H81    H     0.09879   0.89701   0.14764   0.00000  Uiso   1.00
H82    H     0.20184   1.00708   0.37304   0.00000  Uiso   1.00
H83    H     0.24275   0.97288   0.37018   0.00000  Uiso   1.00
H84    H     0.06649   0.92143   0.34758   0.00000  Uiso   1.00
H85    H     0.05664   1.02949   0.25962   0.00000  Uiso   1.00
H86    H     0.17186   1.03413   0.17457   0.00000  Uiso   1.00
H87    H     0.00448   0.89071   0.20844   0.00000  Uiso   1.00
H88    H    -0.06966   0.85000   0.24493   0.00000  Uiso   1.00
H89    H    -0.07109   0.95534   0.47688   0.00000  Uiso   1.00
H90    H     0.00308   0.99570   0.45166   0.00000  Uiso   1.00
H91    H     0.08537   1.08379   0.06867   0.00000  Uiso   1.00
H92    H     0.11874   1.15872   0.04509   0.00000  Uiso   1.00
H93    H     0.22917   1.16988   0.28137   0.00000  Uiso   1.00
H94    H     0.19591   1.09597   0.31501   0.00000  Uiso   1.00
N95    N    -0.12003   0.87437   0.36731   0.00000  Uiso   1.00
C96    C    -0.14618   0.88731   0.37938   0.00000  Uiso   1.00
C97    C    -0.19071   0.85767   0.38051   0.00000  Uiso   1.00
C98    C    -0.20591   0.81498   0.39124   0.00000  Uiso   1.00
C99    C    -0.24813   0.78735   0.38545   0.00000  Uiso   1.00
C100   C     0.72409   0.80180   0.36800   0.00000  Uiso   1.00
C101   C    -0.26075   0.84451   0.35973   0.00000  Uiso   1.00
C102   C    -0.21851   0.87216   0.36642   0.00000  Uiso   1.00
C103   C     0.67971   0.77190   0.35677   0.00000  Uiso   1.00
N104   N     0.65353   0.78420   0.32499   0.00000  Uiso   1.00
N105   N     0.33509   0.44171   0.16998   0.00000  Uiso   1.00
C106   C     0.29588   0.41558   0.17042   0.00000  Uiso   1.00
C107   C     0.28026   0.37088   0.15554   0.00000  Uiso   1.00
C108   C     0.30707   0.35506   0.14193   0.00000  Uiso   1.00
C109   C     0.29158   0.31255   0.13352   0.00000  Uiso   1.00
C110   C     0.24912   0.28510   0.13849   0.00000  Uiso   1.00
C111   C     0.22228   0.30092   0.14958   0.00000  Uiso   1.00
C112   C     0.23778   0.34345   0.15799   0.00000  Uiso   1.00
C113   C     0.23373   1.24034   0.13798   0.00000  Uiso   1.00
N114   N     0.19460   1.21397   0.14378   0.00000  Uiso   1.00
H115   H    -0.13591   0.91993   0.37809   0.00000  Uiso   1.00
H116   H    -0.18521   0.80287   0.40312   0.00000  Uiso   1.00
H117   H    -0.25910   0.75459   0.39279   0.00000  Uiso   1.00
H118   H     0.71853   0.85657   0.34697   0.00000  Uiso   1.00
H119   H    -0.20751   0.90492   0.35808   0.00000  Uiso   1.00
H120   H     0.66969   0.73946   0.36905   0.00000  Uiso   1.00
H121   H     0.27391   0.42614   0.17935   0.00000  Uiso   1.00
H122   H     0.34000   0.37546   0.13940   0.00000  Uiso   1.00
H123   H     0.31285   0.30107   0.12504   0.00000  Uiso   1.00
H124   H     0.18937   0.28048   0.15388   0.00000  Uiso   1.00
H125   H     0.21653   0.35494   0.16834   0.00000  Uiso   1.00
H126   H     0.25586   1.22992   0.13327   0.00000  Uiso   1.00
C127   C     0.58568   0.53479   0.75895   0.00000  Uiso   1.00
C128   C     0.67638   0.35375   0.72799   0.00000  Uiso   1.00
C129   C     0.71935   0.37775   0.74201   0.00000  Uiso   1.00
C130   C     0.73931   0.42096   0.75522   0.00000  Uiso   1.00
C131   C     0.71528   0.44011   0.75298   0.00000  Uiso   1.00
C132   C     0.67217   0.41711   0.74007   0.00000  Uiso   1.00
C133   C     0.65330   0.37390   0.72823   0.00000  Uiso   1.00
C134   C     0.64699   0.43811   0.73904   0.00000  Uiso   1.00
C135   C     0.65556   0.30773   0.71282   0.00000  Uiso   1.00
C136   C     0.78513   0.44606   0.77153   0.00000  Uiso   1.00
C137   C     0.66236   0.47788   0.81565   0.00000  Uiso   1.00
C138   C     0.63918   0.49761   0.81231   0.00000  Uiso   1.00
C139   C     0.59944   0.47774   0.73613   0.00000  Uiso   1.00
C140   C     0.58353   0.43800   0.66438   0.00000  Uiso   1.00
C141   C     0.60708   0.41869   0.66231   0.00000  Uiso   1.00
C142   C     0.80782   0.42940   0.85266   0.00000  Uiso   1.00
C143   C     0.85057   0.45268   0.86633   0.00000  Uiso   1.00
C144   C     0.87179   0.49359   0.80179   0.00000  Uiso   1.00
C145   C     0.84946   0.51058   0.72484   0.00000  Uiso   1.00
C146   C     0.80685   0.48707   0.70673   0.00000  Uiso   1.00
C147   C     0.67586   0.28833   0.63357   0.00000  Uiso   1.00
C148   C     0.65641   0.24542   0.62065   0.00000  Uiso   1.00
C149   C     0.61588   0.22077   0.68035   0.00000  Uiso   1.00
C150   C     0.59537   0.23969   0.76046   0.00000  Uiso   1.00
C151   C     0.61511   0.28252   0.77815   0.00000  Uiso   1.00
N152   N     0.57385   0.49612   0.73275   0.00000  Uiso   1.00
H153   H     0.73739   0.36268   0.74268   0.00000  Uiso   1.00
H154   H     0.73039   0.47317   0.76177   0.00000  Uiso   1.00
H155   H     0.62040   0.35566   0.71878   0.00000  Uiso   1.00
H156   H     0.69174   0.49367   0.88500   0.00000  Uiso   1.00
H157   H     0.65206   0.52764   0.87632   0.00000  Uiso   1.00
H158   H     0.55301   0.42233   0.60462   0.00000  Uiso   1.00
H159   H     0.59395   0.38902   0.59482   0.00000  Uiso   1.00
H160   H     0.79270   0.39878   0.91198   0.00000  Uiso   1.00
H161   H     0.86641   0.43885   0.93371   0.00000  Uiso   1.00
H162   H     0.86535   0.54202   0.67421   0.00000  Uiso   1.00
H163   H     0.79138   0.50106   0.63716   0.00000  Uiso   1.00
H164   H     0.70640   0.30605   0.57610   0.00000  Uiso   1.00
H165   H     0.67263   0.23131   0.55873   0.00000  Uiso   1.00
H166   H     0.56470   0.22162   0.81612   0.00000  Uiso   1.00
H167   H     0.59878   0.29549   0.84861   0.00000  Uiso   1.00
C168   C     0.55582   0.54939   0.75326   0.00000  Uiso   1.00
C169   C     0.51382   0.52205   0.72231   0.00000  Uiso   1.00
C170   C     0.48611   0.53658   0.71767   0.00000  Uiso   1.00
C171   C     0.49980   0.57858   0.74367   0.00000  Uiso   1.00
C172   C     0.54180   0.60593   0.77461   0.00000  Uiso   1.00
C173   C     0.56952   0.59139   0.77942   0.00000  Uiso   1.00
C174   C     0.46989   0.59311   0.73806   0.00000  Uiso   1.00
N175   N     0.48180   0.63194   0.75919   0.00000  Uiso   1.00
H176   H     0.61768   0.55718   0.78164   0.00000  Uiso   1.00
H177   H     0.50235   0.48947   0.70144   0.00000  Uiso   1.00
H178   H     0.45390   0.51495   0.69330   0.00000  Uiso   1.00
H179   H     0.55326   0.63850   0.79554   0.00000  Uiso   1.00
H180   H     0.60172   0.61300   0.80388   0.00000  Uiso   1.00
H181   H     0.43785   0.57054   0.71884   0.00000  Uiso   1.00
C182   C     0.45622   0.65036   0.75565   0.00000  Uiso   1.00
C183   C     0.41523   0.62925   0.69329   0.00000  Uiso   1.00
C184   C     0.39194   0.64886   0.69212   0.00000  Uiso   1.00
C185   C     0.40894   0.68986   0.75308   0.00000  Uiso   1.00
C186   C     0.44998   0.71088   0.81374   0.00000  Uiso   1.00
C187   C     0.47332   0.69133   0.81371   0.00000  Uiso   1.00
C188   C     0.38401   0.71059   0.75275   0.00000  Uiso   1.00
C189   C     0.34209   0.68844   0.79699   0.00000  Uiso   1.00
C190   C     0.31773   0.70716   0.79038   0.00000  Uiso   1.00
C191   C     0.33683   0.74963   0.75169   0.00000  Uiso   1.00
C192   C     0.37916   0.77287   0.71351   0.00000  Uiso   1.00
C193   C     0.40202   0.75254   0.70808   0.00000  Uiso   1.00
C194   C     0.27236   0.68201   0.81819   0.00000  Uiso   1.00
C195   C     0.39988   0.81842   0.68476   0.00000  Uiso   1.00
C196   C     0.25082   0.64033   0.76332   0.00000  Uiso   1.00
C197   C     0.20826   0.61698   0.78165   0.00000  Uiso   1.00
C198   C     0.18590   0.63475   0.84987   0.00000  Uiso   1.00
C199   C     0.20705   0.67615   0.90799   0.00000  Uiso   1.00
C200   C     0.24983   0.69942   0.89309   0.00000  Uiso   1.00
C201   C     0.37866   0.83719   0.60940   0.00000  Uiso   1.00
C202   C     0.39779   0.88007   0.59359   0.00000  Uiso   1.00
C203   C     0.43870   0.90513   0.64784   0.00000  Uiso   1.00
C204   C     0.46019   0.88664   0.72187   0.00000  Uiso   1.00
C205   C     0.44094   0.84390   0.74087   0.00000  Uiso   1.00
H206   H     0.40112   0.59809   0.64117   0.00000  Uiso   1.00
H207   H     0.36084   0.63214   0.63934   0.00000  Uiso   1.00
H208   H     0.46389   0.74221   0.86474   0.00000  Uiso   1.00
H209   H     0.50480   0.70801   0.86188   0.00000  Uiso   1.00
H210   H     0.32854   0.65656   0.83928   0.00000  Uiso   1.00
H211   H     0.31869   0.76462   0.75133   0.00000  Uiso   1.00
H212   H     0.43391   0.76926   0.66627   0.00000  Uiso   1.00
H213   H     0.26653   0.62584   0.70015   0.00000  Uiso   1.00
H214   H     0.19239   0.58513   0.73663   0.00000  Uiso   1.00
H215   H     0.19096   0.69047   0.96858   0.00000  Uiso   1.00
H216   H     0.26513   0.73083   0.94336   0.00000  Uiso   1.00
H217   H     0.34742   0.81892   0.56037   0.00000  Uiso   1.00
H218   H     0.38079   0.89385   0.53680   0.00000  Uiso   1.00
H219   H     0.49122   0.90501   0.77307   0.00000  Uiso   1.00
H220   H     0.45796   0.83110   0.80671   0.00000  Uiso   1.00
N221   N     0.14202   0.60950   0.85901   0.00000  Uiso   1.00
C222   C     0.11587   0.62244   0.87108   0.00000  Uiso   1.00
C223   C     0.07134   0.59280   0.87221   0.00000  Uiso   1.00
C224   C     0.05614   0.55011   0.88294   0.00000  Uiso   1.00
C225   C     0.01392   0.52248   0.87716   0.00000  Uiso   1.00
C226   C     0.98614   0.53693   0.85970   0.00000  Uiso   1.00
C227   C     0.00130   0.57964   0.85143   0.00000  Uiso   1.00
C228   C     0.04354   0.60729   0.85813   0.00000  Uiso   1.00
C229   C     0.94176   0.50703   0.84847   0.00000  Uiso   1.00
N230   N     0.91558   0.51933   0.81669   0.00000  Uiso   1.00
N231   N     0.59714   0.17684   0.66168   0.00000  Uiso   1.00
C232   C     0.55793   0.15071   0.66212   0.00000  Uiso   1.00
C233   C     0.54231   0.10601   0.64724   0.00000  Uiso   1.00
C234   C     0.56912   0.09019   0.63363   0.00000  Uiso   1.00
C235   C     0.55363   0.04768   0.62522   0.00000  Uiso   1.00
C236   C     0.51117   0.02023   0.63019   0.00000  Uiso   1.00
C237   C     0.48433   0.03605   0.64128   0.00000  Uiso   1.00
C238   C     0.49983   0.07858   0.64970   0.00000  Uiso   1.00
C239   C     0.49578   0.97547   0.62968   0.00000  Uiso   1.00
N240   N     0.45665   0.94910   0.63548   0.00000  Uiso   1.00
H241   H     0.12614   0.65506   0.86979   0.00000  Uiso   1.00
H242   H     0.07684   0.53800   0.89482   0.00000  Uiso   1.00
H243   H     0.00295   0.48972   0.88450   0.00000  Uiso   1.00
H244   H     0.98058   0.59170   0.83867   0.00000  Uiso   1.00
H245   H     0.05454   0.64005   0.84978   0.00000  Uiso   1.00
H246   H     0.93174   0.47459   0.86076   0.00000  Uiso   1.00
H247   H     0.53596   0.16127   0.67105   0.00000  Uiso   1.00
H248   H     0.60205   0.11059   0.63110   0.00000  Uiso   1.00
H249   H     0.57490   0.03620   0.61674   0.00000  Uiso   1.00
H250   H     0.45142   0.01561   0.64558   0.00000  Uiso   1.00
H251   H     0.47858   0.09007   0.66004   0.00000  Uiso   1.00
H252   H     0.51791   0.96505   0.62497   0.00000  Uiso   1.00
loop_
_geom_bond_atom_site_label_1
_geom_bond_atom_site_label_2
_geom_bond_distance
_geom_bond_site_symmetry_2
_ccdc_geom_bond_type
C1     N26     1.299   .     D
C1     C42     1.475   .     S
C1     H50     1.081   .     S
C2     C3      1.406   .     S
C2     C7      1.407   .     D
C2     C9      1.499   .     S
C3     C4      1.406   .     D
C3     H27     1.078   .     S
C4     C5      1.407   .     S
C4     C10     1.499   .     S
C5     C6      1.408   .     D
C5     H28     1.076   .     S
C6     C7      1.408   .     S
C6     C8      1.504   .     S
C7     H29     1.076   .     S
C8     C11     1.413   .     D
C8     C15     1.412   .     S
C9     C21     1.411   .     S
C9     C25     1.411   .     D
C10    C16     1.411   .     D
C10    C20     1.411   .     S
C11    C12     1.397   .     S
C11    H30     1.080   .     S
C12    C13     1.406   .     D
C12    H31     1.080   .     S
C13    C14     1.396   .     S
C13    N26     1.437   .     S
C14    C15     1.396   .     D
C14    H32     1.083   .     S
C15    H33     1.080   .     S
C16    C17     1.398   .     S
C16    H34     1.081   .     S
C17    C18     1.406   .     D
C17    H35     1.080   .     S
C18    C19     1.397   .     S
C18    N104    1.437   .     S
C19    C20     1.396   .     D
C19    H36     1.083   .     S
C20    H37     1.081   .     S
C21    C22     1.397   .     D
C21    H38     1.081   .     S
C22    C23     1.398   .     S
C22    H39     1.083   .     S
C23    C24     1.406   .     D
C23    N105    1.437   .     S
C24    C25     1.397   .     S
C24    H40     1.081   .     S
C25    H41     1.081   .     S
C42    C43     1.406   .     D
C42    C47     1.402   .     S
C43    C44     1.397   .     S
C43    H51     1.083   .     S
C44    C45     1.402   .     D
C44    H52     1.083   .     S
C45    C46     1.406   .     S
C45    C48     1.475   .     S
C46    C47     1.398   .     D
C46    H53     1.082   .     S
C47    H54     1.083   .     S
C48    N49     1.299   .     D
C48    H55     1.080   .     S
N49    C56     1.438   .     S
C56    C57     1.409   .     D
C56    C61     1.399   .     S
C57    C58     1.397   .     S
C57    H80     1.079   .     S
C58    C59     1.406   .     D
C58    H81     1.082   .     S
C59    C60     1.406   .     S
C59    C62     1.487   .     S
C60    C61     1.397   .     D
C60    H82     1.082   .     S
C61    H83     1.083   .     S
C62    C63     1.403   .     S
C62    C67     1.403   .     D
C63    C64     1.406   .     D
C63    H84     1.082   .     S
C64    C65     1.408   .     S
C64    C68     1.494   .     S
C65    C66     1.408   .     D
C65    H85     1.079   .     S
C66    C67     1.406   .     S
C66    C69     1.494   .     S
C67    H86     1.082   .     S
C68    C70     1.409   .     D
C68    C74     1.409   .     S
C69    C75     1.409   .     S
C69    C79     1.409   .     D
C70    C71     1.395   .     S
C70    H87     1.082   .     S
C71    C72     1.397   .     D
C71    H88     1.083   .     S
C72    C73     1.407   .     S
C72    N95     1.436   .     S
C73    C74     1.399   .     D
C73    H89     1.081   .     S
C74    H90     1.081   .     S
C75    C76     1.398   .     D
C75    H91     1.081   .     S
C76    C77     1.399   .     S
C76    H92     1.083   .     S
C77    C78     1.406   .     D
C77    N114    1.437   .     S
C78    C79     1.396   .     S
C78    H93     1.081   .     S
C79    H94     1.082   .     S
N95    C96     1.299   .     D
C96    C97     1.476   .     S
C96    H115    1.082   .     S
C97    C98     1.406   .     D
C97    C102    1.402   .     S
C98    C99     1.397   .     S
C98    H116    1.083   .     S
C99    C100    1.402   1_455 D
C99    H117    1.083   .     S
C100   C99     1.402   1_655 D
C100   C101    1.406   1_655 S
C100   C103    1.476   .     S
C101   C100    1.406   1_455 S
C101   C102    1.398   .     D
C101   H118    1.083   1_455 S
C102   H119    1.083   .     S
C103   N104    1.299   .     D
C103   H120    1.081   .     S
N105   C106    1.300   .     D
C106   C107    1.476   .     S
C106   H121    1.082   .     S
C107   C108    1.406   .     S
C107   C112    1.403   .     D
C108   C109    1.397   .     D
C108   H122    1.083   .     S
C109   C110    1.403   .     S
C109   H123    1.083   .     S
C110   C111    1.405   .     D
C110   C113    1.475   1_545 S
C111   C112    1.398   .     S
C111   H124    1.082   .     S
C112   H125    1.083   .     S
C113   C110    1.475   1_565 S
C113   N114    1.300   .     D
C113   H126    1.082   .     S
H118   C101    1.083   1_655 S
C127   N152    1.299   .     D
C127   C168    1.475   .     S
C127   H176    1.081   .     S
C128   C129    1.406   .     D
C128   C133    1.407   .     S
C128   C135    1.499   .     S
C129   C130    1.406   .     S
C129   H153    1.078   .     S
C130   C131    1.407   .     D
C130   C136    1.499   .     S
C131   C132    1.408   .     S
C131   H154    1.076   .     S
C132   C133    1.408   .     D
C132   C134    1.504   .     S
C133   H155    1.076   .     S
C134   C137    1.413   .     D
C134   C141    1.412   .     S
C135   C147    1.411   .     D
C135   C151    1.411   .     S
C136   C142    1.411   .     D
C136   C146    1.411   .     S
C137   C138    1.397   .     S
C137   H156    1.080   .     S
C138   C139    1.405   .     D
C138   H157    1.080   .     S
C139   C140    1.396   .     S
C139   N152    1.437   .     S
C140   C141    1.396   .     D
C140   H158    1.083   .     S
C141   H159    1.080   .     S
C142   C143    1.398   .     S
C142   H160    1.081   .     S
C143   C144    1.406   .     D
C143   H161    1.080   .     S
C144   C145    1.397   .     S
C144   N230    1.437   .     S
C145   C146    1.396   .     D
C145   H162    1.083   .     S
C146   H163    1.081   .     S
C147   C148    1.397   .     S
C147   H164    1.081   .     S
C148   C149    1.398   .     D
C148   H165    1.083   .     S
C149   C150    1.406   .     S
C149   N231    1.437   .     S
C150   C151    1.397   .     D
C150   H166    1.081   .     S
C151   H167    1.081   .     S
C168   C169    1.406   .     D
C168   C173    1.402   .     S
C169   C170    1.397   .     S
C169   H177    1.083   .     S
C170   C171    1.402   .     D
C170   H178    1.083   .     S
C171   C172    1.406   .     S
C171   C174    1.475   .     S
C172   C173    1.398   .     D
C172   H179    1.082   .     S
C173   H180    1.083   .     S
C174   N175    1.299   .     D
C174   H181    1.080   .     S
N175   C182    1.438   .     S
C182   C183    1.409   .     D
C182   C187    1.399   .     S
C183   C184    1.397   .     S
C183   H206    1.079   .     S
C184   C185    1.406   .     D
C184   H207    1.083   .     S
C185   C186    1.406   .     S
C185   C188    1.487   .     S
C186   C187    1.397   .     D
C186   H208    1.082   .     S
C187   H209    1.083   .     S
C188   C189    1.403   .     S
C188   C193    1.403   .     D
C189   C190    1.406   .     D
C189   H210    1.082   .     S
C190   C191    1.408   .     S
C190   C194    1.494   .     S
C191   C192    1.408   .     D
C191   H211    1.079   .     S
C192   C193    1.406   .     S
C192   C195    1.494   .     S
C193   H212    1.082   .     S
C194   C196    1.409   .     D
C194   C200    1.409   .     S
C195   C201    1.409   .     D
C195   C205    1.409   .     S
C196   C197    1.395   .     S
C196   H213    1.082   .     S
C197   C198    1.397   .     D
C197   H214    1.083   .     S
C198   C199    1.407   .     S
C198   N221    1.436   .     S
C199   C200    1.399   .     D
C199   H215    1.081   .     S
C200   H216    1.081   .     S
C201   C202    1.398   .     S
C201   H217    1.081   .     S
C202   C203    1.399   .     D
C202   H218    1.083   .     S
C203   C204    1.406   .     S
C203   N240    1.437   .     S
C204   C205    1.396   .     D
C204   H219    1.081   .     S
C205   H220    1.082   .     S
N221   C222    1.299   .     D
C222   C223    1.476   .     S
C222   H241    1.082   .     S
C223   C224    1.406   .     D
C223   C228    1.402   .     S
C224   C225    1.397   .     S
C224   H242    1.083   .     S
C225   C226    1.402   1_455 D
C225   H243    1.083   .     S
C226   C225    1.402   1_655 D
C226   C227    1.406   1_655 S
C226   C229    1.476   .     S
C227   C226    1.406   1_455 S
C227   C228    1.398   .     D
C227   H244    1.083   1_455 S
C228   H245    1.083   .     S
C229   N230    1.299   .     D
C229   H246    1.081   .     S
N231   C232    1.300   .     D
C232   C233    1.476   .     S
C232   H247    1.082   .     S
C233   C234    1.406   .     D
C233   C238    1.403   .     S
C234   C235    1.397   .     S
C234   H248    1.083   .     S
C235   C236    1.403   .     D
C235   H249    1.083   .     S
C236   C237    1.405   .     S
C236   C239    1.475   1_545 S
C237   C238    1.398   .     D
C237   H250    1.082   .     S
C238   H251    1.083   .     S
C239   C236    1.475   1_565 S
C239   N240    1.300   .     D
C239   H252    1.082   .     S
H244   C227    1.083   1_655 S
