data_45
_audit_creation_date              2023-09-08
_audit_creation_method            'Materials Studio'
_symmetry_space_group_name_H-M    'P1'
_symmetry_Int_Tables_number       1
_symmetry_cell_setting            triclinic
loop_
_symmetry_equiv_pos_as_xyz
  x,y,z
_cell_length_a                    28.7523
_cell_length_b                    31.1789
_cell_length_c                    4.3296
_cell_angle_alpha                 89.9959
_cell_angle_beta                  63.2101
_cell_angle_gamma                 89.9998
loop_
_atom_site_label
_atom_site_type_symbol
_atom_site_fract_x
_atom_site_fract_y
_atom_site_fract_z
_atom_site_U_iso_or_equiv
_atom_site_adp_type
_atom_site_occupancy
C1     C     0.08111   0.88072   0.70997   0.00000  Uiso   1.00
C2     C     0.09457   0.92391   0.73740   0.00000  Uiso   1.00
C3     C     0.06782   0.95829   0.67952   0.00000  Uiso   1.00
C4     C     0.02876   0.94931   0.58320   0.00000  Uiso   1.00
C5     C     0.01484   0.90746   0.56471   0.00000  Uiso   1.00
C6     C     0.03988   0.87265   0.62518   0.00000  Uiso   1.00
C7     C     0.03123   0.09075   0.40584   0.00000  Uiso   1.00
C8     C     0.04433   0.04789   0.35320   0.00000  Uiso   1.00
C9     C     0.06837   0.12328   0.29916   0.00000  Uiso   1.00
C10    C     0.12150   0.11163   0.12962   0.00000  Uiso   1.00
C11    C     0.13499   0.06781   0.05265   0.00000  Uiso   1.00
C12    C     0.09649   0.03576   0.16246   0.00000  Uiso   1.00
C13    C     0.10879   0.84451   0.78046   0.00000  Uiso   1.00
C14    C     0.16237   0.14440   0.06474   0.00000  Uiso   1.00
C15    C     0.15693   0.18654  -0.03030   0.00000  Uiso   1.00
C16    C     0.19220   0.21847  -0.04771   0.00000  Uiso   1.00
C17    C     0.23388   0.20887   0.02410   0.00000  Uiso   1.00
C18    C     0.24035   0.16648   0.10910   0.00000  Uiso   1.00
C19    C     0.20497   0.13465   0.12897   0.00000  Uiso   1.00
C20    C     0.08226   0.80631   0.93336   0.00000  Uiso   1.00
C21    C     0.10804   0.77259   1.00348   0.00000  Uiso   1.00
C22    C     0.16078   0.77626   0.92438   0.00000  Uiso   1.00
C23    C     0.18751   0.81427   0.77210   0.00000  Uiso   1.00
C24    C     0.16186   0.84791   0.69934   0.00000  Uiso   1.00
N25    N     0.50140   0.47720   0.48933   0.00000  Uiso   1.00
C26    C     0.31234   0.23952   0.01234   0.00000  Uiso   1.00
N27    N     0.26535   0.24343   0.04510   0.00000  Uiso   1.00
C28    C     0.89021   0.11980   0.86005   0.00000  Uiso   1.00
C29    C     0.87221   0.07703   0.94602   0.00000  Uiso   1.00
C30    C     0.90720   0.04240   0.84277   0.00000  Uiso   1.00
C31    C     0.96044   0.05084   0.64979   0.00000  Uiso   1.00
C32    C     0.97797   0.09263   0.58763   0.00000  Uiso   1.00
C33    C     0.94434   0.12768   0.68761   0.00000  Uiso   1.00
C34    C     0.97420   0.90907   0.48119   0.00000  Uiso   1.00
C35    C     0.96532   0.95183   0.44744   0.00000  Uiso   1.00
C36    C     0.94507   0.87644   0.43336   0.00000  Uiso   1.00
C37    C     0.90503   0.88780   0.34467   0.00000  Uiso   1.00
C38    C     0.89685   0.93187   0.30122   0.00000  Uiso   1.00
C39    C     0.92756   0.96390   0.34730   0.00000  Uiso   1.00
C40    C     0.85281   0.15543   0.92064   0.00000  Uiso   1.00
C41    C     0.87311   0.85409   0.28619   0.00000  Uiso   1.00
C42    C     0.89464   0.81371   0.15113   0.00000  Uiso   1.00
C43    C     0.86488   0.78243   0.09130   0.00000  Uiso   1.00
C44    C     0.81342   0.79085   0.15914   0.00000  Uiso   1.00
C45    C     0.79141   0.83090   0.29718   0.00000  Uiso   1.00
C46    C     0.82091   0.86207   0.36116   0.00000  Uiso   1.00
C47    C     0.86239   0.19662   1.01149   0.00000  Uiso   1.00
C48    C     0.83007   0.23104   1.02941   0.00000  Uiso   1.00
C49    C     0.78751   0.22490   0.95850   0.00000  Uiso   1.00
C50    C     0.77669   0.18346   0.88094   0.00000  Uiso   1.00
C51    C     0.80910   0.14916   0.86095   0.00000  Uiso   1.00
N52    N     0.49900   0.52272   0.49522   0.00000  Uiso   1.00
C53    C     0.74304   0.76223   0.05538   0.00000  Uiso   1.00
N54    N     0.78357   0.75704   0.10991   0.00000  Uiso   1.00
C55    C     0.41889   0.38071   0.29009   0.00000  Uiso   1.00
C56    C     0.40542   0.42391   0.26262   0.00000  Uiso   1.00
C57    C     0.43218   0.45829   0.32048   0.00000  Uiso   1.00
C58    C     0.47123   0.44931   0.41681   0.00000  Uiso   1.00
C59    C     0.48516   0.40746   0.43532   0.00000  Uiso   1.00
C60    C     0.46012   0.37265   0.37488   0.00000  Uiso   1.00
C61    C     0.46877   0.59075   0.59406   0.00000  Uiso   1.00
C62    C     0.45567   0.54789   0.64671   0.00000  Uiso   1.00
C63    C     0.43163   0.62328   0.70075   0.00000  Uiso   1.00
C64    C     0.37851   0.61163   0.87031   0.00000  Uiso   1.00
C65    C     0.36502   0.56780   0.94728   0.00000  Uiso   1.00
C66    C     0.40351   0.53576   0.83746   0.00000  Uiso   1.00
C67    C     0.39121   0.34451   0.21962   0.00000  Uiso   1.00
C68    C     0.33763   0.64440   0.93521   0.00000  Uiso   1.00
C69    C     0.34308   0.68654   1.03024   0.00000  Uiso   1.00
C70    C     0.30781   0.71846   1.04767   0.00000  Uiso   1.00
C71    C     0.26613   0.70887   0.97589   0.00000  Uiso   1.00
C72    C     0.25965   0.66648   0.89090   0.00000  Uiso   1.00
C73    C     0.29503   0.63465   0.87102   0.00000  Uiso   1.00
C74    C     0.41774   0.30631   0.06677   0.00000  Uiso   1.00
C75    C     0.39196   0.27259  -0.00336   0.00000  Uiso   1.00
C76    C     0.33922   0.27626   0.07571   0.00000  Uiso   1.00
C77    C     0.31249   0.31426   0.22796   0.00000  Uiso   1.00
C78    C     0.33814   0.34791   0.30072   0.00000  Uiso   1.00
N79    N     0.99860   0.97720   0.51065   0.00000  Uiso   1.00
C80    C     0.18766   0.73952   0.98775   0.00000  Uiso   1.00
N81    N     0.23465   0.74343   0.95492   0.00000  Uiso   1.00
C82    C     0.60980   0.61980   0.13987   0.00000  Uiso   1.00
C83    C     0.62780   0.57704   0.05391   0.00000  Uiso   1.00
C84    C     0.59280   0.54241   0.15715   0.00000  Uiso   1.00
C85    C     0.53956   0.55084   0.35012   0.00000  Uiso   1.00
C86    C     0.52204   0.59263   0.41227   0.00000  Uiso   1.00
C87    C     0.55566   0.62768   0.31229   0.00000  Uiso   1.00
C88    C     0.52580   0.40907   0.51884   0.00000  Uiso   1.00
C89    C     0.53467   0.45183   0.55256   0.00000  Uiso   1.00
C90    C     0.55493   0.37644   0.56668   0.00000  Uiso   1.00
C91    C     0.59497   0.38780   0.65536   0.00000  Uiso   1.00
C92    C     0.60315   0.43188   0.69878   0.00000  Uiso   1.00
C93    C     0.57244   0.46390   0.65269   0.00000  Uiso   1.00
C94    C     0.64719   0.65543   0.07930   0.00000  Uiso   1.00
C95    C     0.62688   0.35409   0.71385   0.00000  Uiso   1.00
C96    C     0.60536   0.31371   0.84895   0.00000  Uiso   1.00
C97    C     0.63511   0.28243   0.90879   0.00000  Uiso   1.00
C98    C     0.68657   0.29086   0.84090   0.00000  Uiso   1.00
C99    C     0.70859   0.33090   0.70283   0.00000  Uiso   1.00
C100   C     0.67909   0.36207   0.63886   0.00000  Uiso   1.00
C101   C     0.63761   0.69662  -0.01153   0.00000  Uiso   1.00
C102   C     0.66993   0.73104  -0.02941   0.00000  Uiso   1.00
C103   C     0.71249   0.72491   0.04151   0.00000  Uiso   1.00
C104   C     0.72331   0.68346   0.11905   0.00000  Uiso   1.00
C105   C     0.69090   0.64916   0.13902   0.00000  Uiso   1.00
N106   N     0.00100   0.02272   0.50471   0.00000  Uiso   1.00
C107   C     0.75696   0.26223   0.94465   0.00000  Uiso   1.00
N108   N     0.71643   0.25704   0.89012   0.00000  Uiso   1.00
H109   H     0.12448   0.93113   0.81605   0.00000  Uiso   1.00
H110   H     0.07706   0.99078   0.71300   0.00000  Uiso   1.00
H111   H     0.02781   0.84042   0.60396   0.00000  Uiso   1.00
H112   H     0.05640   0.15629   0.36547   0.00000  Uiso   1.00
H113   H     0.17544   0.05831  -0.08619   0.00000  Uiso   1.00
H114   H     0.10805   0.00270   0.10453   0.00000  Uiso   1.00
H115   H     0.12493   0.19498  -0.08569   0.00000  Uiso   1.00
H116   H     0.18653   0.25100  -0.11157   0.00000  Uiso   1.00
H117   H     0.27081   0.15823   0.17990   0.00000  Uiso   1.00
H118   H     0.20948   0.10289   0.21307   0.00000  Uiso   1.00
H119   H     0.04117   0.80267   1.00701   0.00000  Uiso   1.00
H120   H     0.08664   0.74358   1.12113   0.00000  Uiso   1.00
H121   H     0.22848   0.81776   0.70355   0.00000  Uiso   1.00
H122   H     0.18397   0.87630   0.57424   0.00000  Uiso   1.00
H123   H     0.33245   0.20903  -0.05907   0.00000  Uiso   1.00
H124   H     0.83092   0.07038   1.08739   0.00000  Uiso   1.00
H125   H     0.89218   0.01027   0.90817   0.00000  Uiso   1.00
H126   H     0.95967   0.15980   0.61489   0.00000  Uiso   1.00
H127   H     0.95316   0.84340   0.46719   0.00000  Uiso   1.00
H128   H     0.86800   0.94150   0.21928   0.00000  Uiso   1.00
H129   H     0.92224   0.99698   0.30253   0.00000  Uiso   1.00
H130   H     0.93487   0.80642   0.08367   0.00000  Uiso   1.00
H131   H     0.88215   0.75155  -0.01138   0.00000  Uiso   1.00
H132   H     0.75105   0.83777   0.36636   0.00000  Uiso   1.00
H133   H     0.80234   0.89212   0.47576   0.00000  Uiso   1.00
H134   H     0.89522   0.20232   1.06483   0.00000  Uiso   1.00
H135   H     0.83889   0.26265   1.09262   0.00000  Uiso   1.00
H136   H     0.74439   0.17777   0.82207   0.00000  Uiso   1.00
H137   H     0.80121   0.11810   0.78298   0.00000  Uiso   1.00
H138   H     0.73055   0.79406   0.02532   0.00000  Uiso   1.00
H139   H     0.37552   0.43113   0.18396   0.00000  Uiso   1.00
H140   H     0.42293   0.49077   0.28697   0.00000  Uiso   1.00
H141   H     0.47219   0.34042   0.39613   0.00000  Uiso   1.00
H142   H     0.44360   0.65629   0.63443   0.00000  Uiso   1.00
H143   H     0.32456   0.55830   1.08613   0.00000  Uiso   1.00
H144   H     0.39194   0.50270   0.89541   0.00000  Uiso   1.00
H145   H     0.37508   0.69498   1.08561   0.00000  Uiso   1.00
H146   H     0.31348   0.75100   1.11152   0.00000  Uiso   1.00
H147   H     0.22919   0.65823   0.82010   0.00000  Uiso   1.00
H148   H     0.29052   0.60289   0.78694   0.00000  Uiso   1.00
H149   H     0.45882   0.30267  -0.00685   0.00000  Uiso   1.00
H150   H     0.41336   0.24358  -0.12099   0.00000  Uiso   1.00
H151   H     0.27152   0.31775   0.29648   0.00000  Uiso   1.00
H152   H     0.31603   0.37630   0.42580   0.00000  Uiso   1.00
H153   H     0.16754   0.70903   1.05920   0.00000  Uiso   1.00
H154   H     0.66909   0.57039  -0.08745   0.00000  Uiso   1.00
H155   H     0.60782   0.51027   0.09177   0.00000  Uiso   1.00
H156   H     0.54033   0.65980   0.38502   0.00000  Uiso   1.00
H157   H     0.54684   0.34340   0.53288   0.00000  Uiso   1.00
H158   H     0.63200   0.44151   0.78069   0.00000  Uiso   1.00
H159   H     0.57776   0.49698   0.69743   0.00000  Uiso   1.00
H160   H     0.56513   0.30642   0.91644   0.00000  Uiso   1.00
H161   H     0.61785   0.25155   1.01151   0.00000  Uiso   1.00
H162   H     0.74895   0.33777   0.63362   0.00000  Uiso   1.00
H163   H     0.69766   0.39213   0.52422   0.00000  Uiso   1.00
H164   H     0.60478   0.70233  -0.06489   0.00000  Uiso   1.00
H165   H     0.66111   0.76266  -0.09260   0.00000  Uiso   1.00
H166   H     0.75561   0.67777   0.17794   0.00000  Uiso   1.00
H167   H     0.69879   0.61810   0.21698   0.00000  Uiso   1.00
H168   H     0.76944   0.29406   0.97473   0.00000  Uiso   1.00
loop_
_geom_bond_atom_site_label_1
_geom_bond_atom_site_label_2
_geom_bond_distance
_geom_bond_site_symmetry_2
_ccdc_geom_bond_type
C1     C2      1.421   .     S
C1     C6      1.413   .     D
C1     C13     1.490   .     S
C2     C3      1.406   .     D
C2     H109    1.082   .     S
C3     C4      1.391   .     S
C3     H110    1.074   .     S
C4     C5      1.378   .     D
C4     N79     1.361   1_455 S
C5     C6      1.391   .     S
C5     C34     1.371   1_455 S
C6     H111    1.080   .     S
C7     C8      1.379   .     D
C7     C9      1.392   .     S
C7     C32     1.372   1_455 S
C8     C12     1.399   .     S
C8     N106    1.364   .     S
C9     C10     1.412   .     D
C9     H112    1.082   .     S
C10    C11     1.418   .     S
C10    C14     1.485   .     S
C11    C12     1.406   .     D
C11    H113    1.082   .     S
C12    H114    1.077   .     S
C13    C20     1.408   .     D
C13    C24     1.407   .     S
C14    C15     1.406   .     D
C14    C19     1.406   .     S
C15    C16     1.399   .     S
C15    H115    1.083   .     S
C16    C17     1.399   .     D
C16    H116    1.083   .     S
C17    C18     1.407   .     S
C17    N27     1.436   .     S
C18    C19     1.396   .     D
C18    H117    1.081   .     S
C19    H118    1.083   .     S
C20    C21     1.396   .     S
C20    H119    1.082   .     S
C21    C22     1.401   .     D
C21    H120    1.083   .     S
C22    C23     1.405   .     S
C22    C80     1.475   .     S
C23    C24     1.397   .     D
C23    H121    1.083   .     S
C24    H122    1.082   .     S
N25    N52     1.421   .     S
N25    C58     1.361   .     S
N25    C89     1.361   .     S
C26    N27     1.299   .     D
C26    C76     1.475   .     S
C26    H123    1.083   .     S
C28    C29     1.418   .     D
C28    C33     1.412   .     S
C28    C40     1.485   .     S
C29    C30     1.404   .     S
C29    H124    1.083   .     S
C30    C31     1.399   .     D
C30    H125    1.077   .     S
C31    C32     1.379   .     S
C31    N106    1.365   1_655 S
C32    C7      1.372   1_655 S
C32    C33     1.393   .     D
C33    H126    1.082   .     S
C34    C5      1.371   1_655 S
C34    C35     1.378   .     D
C34    C36     1.391   .     S
C35    C39     1.390   .     S
C35    N79     1.361   .     S
C36    C37     1.413   .     D
C36    H127    1.080   .     S
C37    C38     1.421   .     S
C37    C41     1.490   .     S
C38    C39     1.406   .     D
C38    H128    1.081   .     S
C39    H129    1.073   .     S
C40    C47     1.406   .     D
C40    C51     1.406   .     S
C41    C42     1.409   .     D
C41    C46     1.407   .     S
C42    C43     1.397   .     S
C42    H130    1.082   .     S
C43    C44     1.397   .     D
C43    H131    1.083   .     S
C44    C45     1.406   .     S
C44    N54     1.435   .     S
C45    C46     1.397   .     D
C45    H132    1.081   .     S
C46    H133    1.082   .     S
C47    C48     1.399   .     S
C47    H134    1.083   .     S
C48    C49     1.403   .     D
C48    H135    1.083   .     S
C49    C50     1.405   .     S
C49    C107    1.476   .     S
C50    C51     1.395   .     D
C50    H136    1.083   .     S
C51    H137    1.083   .     S
N52    C62     1.364   .     S
N52    C85     1.365   .     S
C53    N54     1.299   .     D
C53    C103    1.475   .     S
C53    H138    1.083   .     S
C55    C56     1.421   .     D
C55    C60     1.413   .     S
C55    C67     1.490   .     S
C56    C57     1.406   .     S
C56    H139    1.082   .     S
C57    C58     1.391   .     D
C57    H140    1.073   .     S
C58    C59     1.378   .     S
C59    C60     1.391   .     D
C59    C88     1.371   .     S
C60    H141    1.081   .     S
C61    C62     1.379   .     D
C61    C63     1.392   .     S
C61    C86     1.372   .     S
C62    C66     1.399   .     S
C63    C64     1.412   .     D
C63    H142    1.082   .     S
C64    C65     1.419   .     S
C64    C68     1.486   .     S
C65    C66     1.405   .     D
C65    H143    1.083   .     S
C66    H144    1.077   .     S
C67    C74     1.408   .     D
C67    C78     1.407   .     S
C68    C69     1.407   .     D
C68    C73     1.406   .     S
C69    C70     1.398   .     S
C69    H145    1.083   .     S
C70    C71     1.399   .     D
C70    H146    1.083   .     S
C71    C72     1.407   .     S
C71    N81     1.436   .     S
C72    C73     1.396   .     D
C72    H147    1.081   .     S
C73    H148    1.083   .     S
C74    C75     1.396   .     S
C74    H149    1.082   .     S
C75    C76     1.401   .     D
C75    H150    1.083   .     S
C76    C77     1.404   .     S
C77    C78     1.398   .     D
C77    H151    1.083   .     S
C78    H152    1.082   .     S
N79    C4      1.361   1_655 S
N79    N106    1.421   1_665 S
C80    N81     1.299   .     D
C80    H153    1.083   .     S
C82    C83     1.418   .     S
C82    C87     1.412   .     D
C82    C94     1.485   .     S
C83    C84     1.405   .     D
C83    H154    1.083   .     S
C84    C85     1.399   .     S
C84    H155    1.077   .     S
C85    C86     1.379   .     D
C86    C87     1.392   .     S
C87    H156    1.082   .     S
C88    C89     1.377   .     D
C88    C90     1.391   .     S
C89    C93     1.390   .     S
C90    C91     1.413   .     D
C90    H157    1.080   .     S
C91    C92     1.421   .     S
C91    C95     1.490   .     S
C92    C93     1.405   .     D
C92    H158    1.081   .     S
C93    H159    1.073   .     S
C94    C101    1.406   .     D
C94    C105    1.406   .     S
C95    C96     1.408   .     D
C95    C100    1.408   .     S
C96    C97     1.396   .     S
C96    H160    1.082   .     S
C97    C98     1.397   .     D
C97    H161    1.083   .     S
C98    C99     1.406   .     S
C98    N108    1.435   .     S
C99    C100    1.397   .     D
C99    H162    1.081   .     S
C100   H163    1.082   .     S
C101   C102    1.399   .     S
C101   H164    1.083   .     S
C102   C103    1.402   .     D
C102   H165    1.083   .     S
C103   C104    1.405   .     S
C104   C105    1.395   .     D
C104   H166    1.083   .     S
C105   H167    1.083   .     S
N106   C31     1.365   1_455 S
N106   N79     1.421   1_445 S
C107   N108    1.299   .     D
C107   H168    1.083   .     S
