data_451
_audit_creation_date              2023-09-08
_audit_creation_method            'Materials Studio'
_symmetry_space_group_name_H-M    'P1'
_symmetry_Int_Tables_number       1
_symmetry_cell_setting            triclinic
loop_
_symmetry_equiv_pos_as_xyz
  x,y,z
_cell_length_a                    23.4887
_cell_length_b                    23.4887
_cell_length_c                    3.8004
_cell_angle_alpha                 90.0000
_cell_angle_beta                  90.0000
_cell_angle_gamma                 120.0000
loop_
_atom_site_label
_atom_site_type_symbol
_atom_site_fract_x
_atom_site_fract_y
_atom_site_fract_z
_atom_site_U_iso_or_equiv
_atom_site_adp_type
_atom_site_occupancy
C1     C     0.29959   0.70131  -0.07637   0.00000  Uiso   1.00
C2     C     0.26383   0.63236  -0.07588   0.00000  Uiso   1.00
C3     C     0.40551   0.80870  -0.06789   0.00000  Uiso   1.00
C4     C     0.37572   0.53114  -0.21392   0.00000  Uiso   1.00
C5     C     0.40866   0.49588  -0.19879   0.00000  Uiso   1.00
C6     C     0.47047   0.52217  -0.03469   0.00000  Uiso   1.00
C7     C     0.49904   0.58639   0.10411   0.00000  Uiso   1.00
C8     C     0.46577   0.62129   0.08886   0.00000  Uiso   1.00
C9     C     0.54897   0.49538   0.16388   0.00000  Uiso   1.00
C10    C     0.57806   0.45340   0.16589   0.00000  Uiso   1.00
C11    C     0.54703   0.39111   0.00422   0.00000  Uiso   1.00
C12    C     0.57583   0.35217   0.00714   0.00000  Uiso   1.00
C13    C     0.63720   0.37348   0.17020   0.00000  Uiso   1.00
C14    C     0.66814   0.43571   0.33162   0.00000  Uiso   1.00
C15    C     0.63896   0.47455   0.33046   0.00000  Uiso   1.00
N16    N     0.49842   0.48177  -0.02796   0.00000  Uiso   1.00
H17    H     0.27308   0.72837  -0.07423   0.00000  Uiso   1.00
H18    H     0.32873   0.51017  -0.35120   0.00000  Uiso   1.00
H19    H     0.38779   0.44721  -0.31721   0.00000  Uiso   1.00
H20    H     0.54701   0.60880   0.23168   0.00000  Uiso   1.00
H21    H     0.48776   0.66978   0.21059   0.00000  Uiso   1.00
H22    H     0.57309   0.53892   0.33698   0.00000  Uiso   1.00
H23    H     0.50016   0.37467  -0.12784   0.00000  Uiso   1.00
H24    H     0.55061   0.30408  -0.11636   0.00000  Uiso   1.00
H25    H     0.71560   0.45373   0.45707   0.00000  Uiso   1.00
H26    H     0.66341   0.52210   0.46379   0.00000  Uiso   1.00
C27    C     0.29869   0.59828  -0.07637   0.00000  Uiso   1.00
C28    C     0.36764   0.63147  -0.07588   0.00000  Uiso   1.00
C29    C     0.19130   0.59681  -0.06789   0.00000  Uiso   1.00
C30    C     0.46886   0.84458  -0.21392   0.00000  Uiso   1.00
C31    C     0.50412   0.91278  -0.19879   0.00000  Uiso   1.00
C32    C     0.47783   0.94830  -0.03469   0.00000  Uiso   1.00
C33    C     0.41361   0.91265   0.10411   0.00000  Uiso   1.00
C34    C     0.37871   0.84448   0.08886   0.00000  Uiso   1.00
C35    C     0.50462   0.05359   0.16388   0.00000  Uiso   1.00
C36    C     0.54660   0.12466   0.16589   0.00000  Uiso   1.00
C37    C     0.60889   0.15592   0.00422   0.00000  Uiso   1.00
C38    C     0.64783   0.22366   0.00714   0.00000  Uiso   1.00
C39    C     0.62652   0.26372   0.17020   0.00000  Uiso   1.00
C40    C     0.56429   0.23243   0.33162   0.00000  Uiso   1.00
C41    C     0.52545   0.16441   0.33046   0.00000  Uiso   1.00
N42    N     0.51823   0.01665  -0.02796   0.00000  Uiso   1.00
H43    H     0.27163   0.54471  -0.07423   0.00000  Uiso   1.00
H44    H     0.48983   0.81856  -0.35120   0.00000  Uiso   1.00
H45    H     0.55279   0.94058  -0.31721   0.00000  Uiso   1.00
H46    H     0.39120   0.93821   0.23168   0.00000  Uiso   1.00
H47    H     0.33022   0.81798   0.21059   0.00000  Uiso   1.00
H48    H     0.46108   0.03417   0.33698   0.00000  Uiso   1.00
H49    H     0.62533   0.12549  -0.12784   0.00000  Uiso   1.00
H50    H     0.69592   0.24653  -0.11636   0.00000  Uiso   1.00
H51    H     0.54627   0.26187   0.45707   0.00000  Uiso   1.00
H52    H     0.47790   0.14131   0.46379   0.00000  Uiso   1.00
C53    C     0.40172   0.70041  -0.07637   0.00000  Uiso   1.00
C54    C     0.36853   0.73617  -0.07588   0.00000  Uiso   1.00
C55    C     0.40319   0.59449  -0.06789   0.00000  Uiso   1.00
C56    C     0.15542   0.62428  -0.21392   0.00000  Uiso   1.00
C57    C     0.08722   0.59134  -0.19879   0.00000  Uiso   1.00
C58    C     0.05170   0.52953  -0.03469   0.00000  Uiso   1.00
C59    C     0.08735   0.50096   0.10411   0.00000  Uiso   1.00
C60    C     0.15552   0.53423   0.08886   0.00000  Uiso   1.00
C61    C     0.94641   0.45103   0.16388   0.00000  Uiso   1.00
C62    C     0.87534   0.42194   0.16589   0.00000  Uiso   1.00
C63    C     0.84408   0.45297   0.00422   0.00000  Uiso   1.00
C64    C     0.77634   0.42417   0.00714   0.00000  Uiso   1.00
C65    C     0.73628   0.36280   0.17020   0.00000  Uiso   1.00
C66    C     0.76757   0.33186   0.33162   0.00000  Uiso   1.00
C67    C     0.83559   0.36104   0.33046   0.00000  Uiso   1.00
N68    N     0.98335   0.50158  -0.02796   0.00000  Uiso   1.00
H69    H     0.45529   0.72692  -0.07423   0.00000  Uiso   1.00
H70    H     0.18144   0.67127  -0.35120   0.00000  Uiso   1.00
H71    H     0.05942   0.61221  -0.31721   0.00000  Uiso   1.00
H72    H     0.06179   0.45299   0.23168   0.00000  Uiso   1.00
H73    H     0.18202   0.51224   0.21059   0.00000  Uiso   1.00
H74    H     0.96583   0.42691   0.33698   0.00000  Uiso   1.00
H75    H     0.87451   0.49984  -0.12784   0.00000  Uiso   1.00
H76    H     0.75347   0.44939  -0.11636   0.00000  Uiso   1.00
H77    H     0.73813   0.28440   0.45707   0.00000  Uiso   1.00
H78    H     0.85869   0.33659   0.46379   0.00000  Uiso   1.00
N79    N     0.66667   0.33333   0.17031   0.00000  Uiso   1.00
loop_
_geom_bond_atom_site_label_1
_geom_bond_atom_site_label_2
_geom_bond_distance
_geom_bond_site_symmetry_2
_ccdc_geom_bond_type
C1     C2      1.403   .     D
C1     H17     1.090   .     S
C1     C54     1.402   .     S
C2     C27     1.402   .     S
C2     C29     1.476   .     S
C3     C30     1.407   .     S
C3     C34     1.409   .     D
C3     C54     1.476   .     S
C4     C5      1.389   .     D
C4     H18     1.091   .     S
C4     C55     1.407   .     S
C5     C6      1.408   .     S
C5     H19     1.091   .     S
C6     C7      1.411   .     D
C6     N16     1.398   .     S
C7     C8      1.388   .     S
C7     H20     1.090   .     S
C8     H21     1.091   .     S
C8     C55     1.409   .     D
C9     C10     1.454   .     S
C9     N16     1.290   .     D
C9     H22     1.105   .     S
C10    C11     1.408   .     D
C10    C15     1.405   .     S
C11    C12     1.383   .     S
C11    H23     1.090   .     S
C12    C13     1.411   .     D
C12    H24     1.085   .     S
C13    C14     1.407   .     S
C13    N79     1.422   .     S
C14    C15     1.388   .     D
C14    H25     1.085   .     S
C15    H26     1.092   .     S
C27    C28     1.403   .     D
C27    H43     1.090   .     S
C28    C53     1.402   .     S
C28    C55     1.476   .     S
C29    C56     1.407   .     D
C29    C60     1.409   .     S
C30    C31     1.389   .     D
C30    H44     1.091   .     S
C31    C32     1.408   .     S
C31    H45     1.091   .     S
C32    C33     1.411   .     D
C32    N42     1.398   1_565 S
C33    C34     1.388   .     S
C33    H46     1.090   .     S
C34    H47     1.091   .     S
C35    C36     1.454   .     S
C35    N42     1.290   .     D
C35    H48     1.105   .     S
C36    C37     1.408   .     S
C36    C41     1.405   .     D
C37    C38     1.383   .     D
C37    H49     1.090   .     S
C38    C39     1.411   .     S
C38    H50     1.085   .     S
C39    C40     1.407   .     D
C39    N79     1.422   .     S
C40    C41     1.388   .     S
C40    H51     1.085   .     S
C41    H52     1.092   .     S
N42    C32     1.398   1_545 S
C53    C54     1.403   .     D
C53    H69     1.090   .     S
C56    C57     1.389   .     S
C56    H70     1.091   .     S
C57    C58     1.408   .     D
C57    H71     1.091   .     S
C58    C59     1.411   .     S
C58    N68     1.398   1_455 S
C59    C60     1.388   .     D
C59    H72     1.090   .     S
C60    H73     1.091   .     S
C61    C62     1.454   .     S
C61    N68     1.290   .     D
C61    H74     1.105   .     S
C62    C63     1.408   .     D
C62    C67     1.405   .     S
C63    C64     1.383   .     S
C63    H75     1.090   .     S
C64    C65     1.411   .     D
C64    H76     1.085   .     S
C65    C66     1.407   .     S
C65    N79     1.422   .     S
C66    C67     1.388   .     D
C66    H77     1.085   .     S
C67    H78     1.092   .     S
N68    C58     1.398   1_655 S
