data_453
_audit_creation_date              2023-09-08
_audit_creation_method            'Materials Studio'
_symmetry_space_group_name_H-M    'P1'
_symmetry_Int_Tables_number       1
_symmetry_cell_setting            triclinic
loop_
_symmetry_equiv_pos_as_xyz
  x,y,z
_cell_length_a                    46.4965
_cell_length_b                    46.4965
_cell_length_c                    3.5590
_cell_angle_alpha                 90.0000
_cell_angle_beta                  90.0000
_cell_angle_gamma                 120.0000
loop_
_atom_site_label
_atom_site_type_symbol
_atom_site_fract_x
_atom_site_fract_y
_atom_site_fract_z
_atom_site_U_iso_or_equiv
_atom_site_adp_type
_atom_site_occupancy
H1     H     0.60091   0.59816  -0.22530   0.00000  Uiso   1.00
H2     H     0.40184   0.00275  -0.22530   0.00000  Uiso   1.00
H3     H     0.99725   0.39909  -0.22530   0.00000  Uiso   1.00
H4     H     0.39909   0.40184  -0.22530   0.00000  Uiso   1.00
H5     H     0.59816   0.99725  -0.22530   0.00000  Uiso   1.00
H6     H     0.00275   0.60091  -0.22530   0.00000  Uiso   1.00
H7     H     0.39909   0.40184   0.22530   0.00000  Uiso   1.00
H8     H     0.59816   0.99725   0.22530   0.00000  Uiso   1.00
H9     H     0.00275   0.60091   0.22530   0.00000  Uiso   1.00
H10    H     0.60091   0.59816   0.22530   0.00000  Uiso   1.00
H11    H     0.40184   0.00275   0.22530   0.00000  Uiso   1.00
H12    H     0.99725   0.39909   0.22530   0.00000  Uiso   1.00
H13    H     0.64010   0.57380  -0.23070   0.00000  Uiso   1.00
H14    H     0.42621   0.06630  -0.23070   0.00000  Uiso   1.00
H15    H     0.93370   0.35990  -0.23070   0.00000  Uiso   1.00
H16    H     0.35991   0.42620  -0.23070   0.00000  Uiso   1.00
H17    H     0.57380   0.93370  -0.23070   0.00000  Uiso   1.00
H18    H     0.06630   0.64010  -0.23070   0.00000  Uiso   1.00
H19    H     0.35991   0.42620   0.23070   0.00000  Uiso   1.00
H20    H     0.57380   0.93370   0.23070   0.00000  Uiso   1.00
H21    H     0.06630   0.64010   0.23070   0.00000  Uiso   1.00
H22    H     0.64010   0.57380   0.23070   0.00000  Uiso   1.00
H23    H     0.42621   0.06630   0.23070   0.00000  Uiso   1.00
H24    H     0.93370   0.35990   0.23070   0.00000  Uiso   1.00
H25    H     0.66220   0.63712  -0.22712   0.00000  Uiso   1.00
H26    H     0.36288   0.02508  -0.22712   0.00000  Uiso   1.00
H27    H     0.97492   0.33780  -0.22712   0.00000  Uiso   1.00
H28    H     0.33780   0.36288  -0.22712   0.00000  Uiso   1.00
H29    H     0.63712   0.97492  -0.22712   0.00000  Uiso   1.00
H30    H     0.02508   0.66220  -0.22712   0.00000  Uiso   1.00
H31    H     0.33780   0.36288   0.22712   0.00000  Uiso   1.00
H32    H     0.63712   0.97492   0.22712   0.00000  Uiso   1.00
H33    H     0.02508   0.66220   0.22712   0.00000  Uiso   1.00
H34    H     0.66220   0.63712   0.22712   0.00000  Uiso   1.00
H35    H     0.36288   0.02508   0.22712   0.00000  Uiso   1.00
H36    H     0.97492   0.33780   0.22712   0.00000  Uiso   1.00
H37    H     0.70204   0.61266  -0.22704   0.00000  Uiso   1.00
H38    H     0.38734   0.08937  -0.22704   0.00000  Uiso   1.00
H39    H     0.91063   0.29796  -0.22704   0.00000  Uiso   1.00
H40    H     0.29796   0.38734  -0.22704   0.00000  Uiso   1.00
H41    H     0.61266   0.91063  -0.22704   0.00000  Uiso   1.00
H42    H     0.08937   0.70204  -0.22704   0.00000  Uiso   1.00
H43    H     0.29796   0.38734   0.22704   0.00000  Uiso   1.00
H44    H     0.61266   0.91063   0.22704   0.00000  Uiso   1.00
H45    H     0.08937   0.70204   0.22704   0.00000  Uiso   1.00
H46    H     0.70204   0.61266   0.22704   0.00000  Uiso   1.00
H47    H     0.38734   0.08937   0.22704   0.00000  Uiso   1.00
H48    H     0.91063   0.29796   0.22704   0.00000  Uiso   1.00
C49    C     0.35197   0.70166   0.00000   0.00000  Uiso   1.00
C50    C     0.29834   0.65031   0.00000   0.00000  Uiso   1.00
C51    C     0.34969   0.64803   0.00000   0.00000  Uiso   1.00
C52    C     0.64803   0.29834   0.00000   0.00000  Uiso   1.00
C53    C     0.70166   0.34969   0.00000   0.00000  Uiso   1.00
C54    C     0.65031   0.35197   0.00000   0.00000  Uiso   1.00
C55    C     0.31717   0.68509   0.00000   0.00000  Uiso   1.00
C56    C     0.31491   0.63208   0.00000   0.00000  Uiso   1.00
C57    C     0.36792   0.68283   0.00000   0.00000  Uiso   1.00
C58    C     0.68283   0.31491   0.00000   0.00000  Uiso   1.00
C59    C     0.68509   0.36792   0.00000   0.00000  Uiso   1.00
C60    C     0.63208   0.31717   0.00000   0.00000  Uiso   1.00
C61    C     0.40510   0.48908   0.00000   0.00000  Uiso   1.00
C62    C     0.51092   0.91602   0.00000   0.00000  Uiso   1.00
C63    C     0.08398   0.59490   0.00000   0.00000  Uiso   1.00
C64    C     0.59490   0.51092   0.00000   0.00000  Uiso   1.00
C65    C     0.48908   0.08398   0.00000   0.00000  Uiso   1.00
C66    C     0.91602   0.40510   0.00000   0.00000  Uiso   1.00
C67    C     0.42918   0.48047   0.00000   0.00000  Uiso   1.00
C68    C     0.51953   0.94871   0.00000   0.00000  Uiso   1.00
C69    C     0.05129   0.57082   0.00000   0.00000  Uiso   1.00
C70    C     0.57082   0.51953   0.00000   0.00000  Uiso   1.00
C71    C     0.48047   0.05129   0.00000   0.00000  Uiso   1.00
C72    C     0.94871   0.42918   0.00000   0.00000  Uiso   1.00
C73    C     0.46068   0.50579   0.00000   0.00000  Uiso   1.00
C74    C     0.49421   0.95489   0.00000   0.00000  Uiso   1.00
C75    C     0.04511   0.53932   0.00000   0.00000  Uiso   1.00
C76    C     0.53932   0.49421   0.00000   0.00000  Uiso   1.00
C77    C     0.50579   0.04511   0.00000   0.00000  Uiso   1.00
C78    C     0.95489   0.46068   0.00000   0.00000  Uiso   1.00
S79    S     0.46413   0.54393   0.00000   0.00000  Uiso   1.00
S80    S     0.45607   0.92020   0.00000   0.00000  Uiso   1.00
S81    S     0.07980   0.53587   0.00000   0.00000  Uiso   1.00
S82    S     0.53587   0.45607   0.00000   0.00000  Uiso   1.00
S83    S     0.54393   0.07980   0.00000   0.00000  Uiso   1.00
S84    S     0.92020   0.46413   0.00000   0.00000  Uiso   1.00
C85    C     0.39734   0.41659   0.00000   0.00000  Uiso   1.00
C86    C     0.58341   0.98075   0.00000   0.00000  Uiso   1.00
C87    C     0.01925   0.60266   0.00000   0.00000  Uiso   1.00
C88    C     0.60266   0.58341   0.00000   0.00000  Uiso   1.00
C89    C     0.41659   0.01925   0.00000   0.00000  Uiso   1.00
C90    C     0.98075   0.39734   0.00000   0.00000  Uiso   1.00
C91    C     0.36686   0.62846   0.00000   0.00000  Uiso   1.00
C92    C     0.37154   0.73840   0.00000   0.00000  Uiso   1.00
C93    C     0.26160   0.63314   0.00000   0.00000  Uiso   1.00
C94    C     0.63314   0.37154   0.00000   0.00000  Uiso   1.00
C95    C     0.62846   0.26160   0.00000   0.00000  Uiso   1.00
C96    C     0.73840   0.36686   0.00000   0.00000  Uiso   1.00
C97    C     0.40168   0.64443   0.00000   0.00000  Uiso   1.00
C98    C     0.35557   0.75725   0.00000   0.00000  Uiso   1.00
C99    C     0.24275   0.59832   0.00000   0.00000  Uiso   1.00
C100   C     0.59832   0.35557   0.00000   0.00000  Uiso   1.00
C101   C     0.64443   0.24275   0.00000   0.00000  Uiso   1.00
C102   C     0.75725   0.40168   0.00000   0.00000  Uiso   1.00
C103   C     0.41791   0.62599   0.00000   0.00000  Uiso   1.00
C104   C     0.37401   0.79192   0.00000   0.00000  Uiso   1.00
C105   C     0.20808   0.58209   0.00000   0.00000  Uiso   1.00
C106   C     0.58209   0.37401   0.00000   0.00000  Uiso   1.00
C107   C     0.62599   0.20808   0.00000   0.00000  Uiso   1.00
C108   C     0.79192   0.41791   0.00000   0.00000  Uiso   1.00
C109   C     0.39963   0.59130   0.00000   0.00000  Uiso   1.00
C110   C     0.40870   0.80833   0.00000   0.00000  Uiso   1.00
C111   C     0.19167   0.60037   0.00000   0.00000  Uiso   1.00
C112   C     0.60037   0.40870   0.00000   0.00000  Uiso   1.00
C113   C     0.59130   0.19167   0.00000   0.00000  Uiso   1.00
C114   C     0.80833   0.39963   0.00000   0.00000  Uiso   1.00
C115   C     0.36480   0.57515   0.00000   0.00000  Uiso   1.00
C116   C     0.42485   0.78965   0.00000   0.00000  Uiso   1.00
C117   C     0.21035   0.63520   0.00000   0.00000  Uiso   1.00
C118   C     0.63520   0.42485   0.00000   0.00000  Uiso   1.00
C119   C     0.57515   0.21035   0.00000   0.00000  Uiso   1.00
C120   C     0.78965   0.36480   0.00000   0.00000  Uiso   1.00
C121   C     0.34860   0.59361   0.00000   0.00000  Uiso   1.00
C122   C     0.40639   0.75499   0.00000   0.00000  Uiso   1.00
C123   C     0.24501   0.65140   0.00000   0.00000  Uiso   1.00
C124   C     0.65140   0.40639   0.00000   0.00000  Uiso   1.00
C125   C     0.59361   0.24501   0.00000   0.00000  Uiso   1.00
C126   C     0.75499   0.34860   0.00000   0.00000  Uiso   1.00
N127   N     0.41698   0.57313   0.00000   0.00000  Uiso   1.00
N128   N     0.42687   0.84385   0.00000   0.00000  Uiso   1.00
N129   N     0.15615   0.58302   0.00000   0.00000  Uiso   1.00
N130   N     0.58302   0.42687   0.00000   0.00000  Uiso   1.00
N131   N     0.57313   0.15615   0.00000   0.00000  Uiso   1.00
N132   N     0.84385   0.41698   0.00000   0.00000  Uiso   1.00
C133   C     0.40215   0.54100   0.00000   0.00000  Uiso   1.00
C134   C     0.45900   0.86115   0.00000   0.00000  Uiso   1.00
C135   C     0.13885   0.59785   0.00000   0.00000  Uiso   1.00
C136   C     0.59785   0.45900   0.00000   0.00000  Uiso   1.00
C137   C     0.54100   0.13885   0.00000   0.00000  Uiso   1.00
C138   C     0.86115   0.40215   0.00000   0.00000  Uiso   1.00
C139   C     0.42107   0.52355   0.00000   0.00000  Uiso   1.00
C140   C     0.47645   0.89752   0.00000   0.00000  Uiso   1.00
C141   C     0.10248   0.57893   0.00000   0.00000  Uiso   1.00
C142   C     0.57893   0.47645   0.00000   0.00000  Uiso   1.00
C143   C     0.52355   0.10248   0.00000   0.00000  Uiso   1.00
C144   C     0.89752   0.42107   0.00000   0.00000  Uiso   1.00
C145   C     0.48320   0.49201   0.00000   0.00000  Uiso   1.00
C146   C     0.50799   0.99119   0.00000   0.00000  Uiso   1.00
C147   C     0.00881   0.51680   0.00000   0.00000  Uiso   1.00
C148   C     0.51680   0.50799   0.00000   0.00000  Uiso   1.00
C149   C     0.49201   0.00881   0.00000   0.00000  Uiso   1.00
C150   C     0.99119   0.48320   0.00000   0.00000  Uiso   1.00
C151   C     0.45905   0.45570   0.00000   0.00000  Uiso   1.00
C152   C     0.54430   0.00335   0.00000   0.00000  Uiso   1.00
C153   C     0.99665   0.54095   0.00000   0.00000  Uiso   1.00
C154   C     0.54095   0.54430   0.00000   0.00000  Uiso   1.00
C155   C     0.45570   0.99665   0.00000   0.00000  Uiso   1.00
C156   C     0.00335   0.45905   0.00000   0.00000  Uiso   1.00
N157   N     0.42706   0.44912   0.00000   0.00000  Uiso   1.00
N158   N     0.55088   0.97794   0.00000   0.00000  Uiso   1.00
N159   N     0.02206   0.57294   0.00000   0.00000  Uiso   1.00
N160   N     0.57294   0.55088   0.00000   0.00000  Uiso   1.00
N161   N     0.44912   0.02206   0.00000   0.00000  Uiso   1.00
N162   N     0.97794   0.42706   0.00000   0.00000  Uiso   1.00
O163   O     0.46598   0.43379   0.00000   0.00000  Uiso   1.00
O164   O     0.56621   0.03219   0.00000   0.00000  Uiso   1.00
O165   O     0.96781   0.53402   0.00000   0.00000  Uiso   1.00
O166   O     0.53402   0.56621   0.00000   0.00000  Uiso   1.00
O167   O     0.43379   0.96781   0.00000   0.00000  Uiso   1.00
O168   O     0.03219   0.46598   0.00000   0.00000  Uiso   1.00
H169   H     0.30508   0.69891   0.00000   0.00000  Uiso   1.00
H170   H     0.30109   0.60617   0.00000   0.00000  Uiso   1.00
H171   H     0.39383   0.69492   0.00000   0.00000  Uiso   1.00
H172   H     0.69492   0.30109   0.00000   0.00000  Uiso   1.00
H173   H     0.69891   0.39383   0.00000   0.00000  Uiso   1.00
H174   H     0.60617   0.30508   0.00000   0.00000  Uiso   1.00
H175   H     0.37864   0.47425   0.00000   0.00000  Uiso   1.00
H176   H     0.52575   0.90439   0.00000   0.00000  Uiso   1.00
H177   H     0.09561   0.62136   0.00000   0.00000  Uiso   1.00
H178   H     0.62136   0.52575   0.00000   0.00000  Uiso   1.00
H179   H     0.47425   0.09561   0.00000   0.00000  Uiso   1.00
H180   H     0.90439   0.37864   0.00000   0.00000  Uiso   1.00
H181   H     0.41846   0.67069   0.00000   0.00000  Uiso   1.00
H182   H     0.32931   0.74777   0.00000   0.00000  Uiso   1.00
H183   H     0.25223   0.58154   0.00000   0.00000  Uiso   1.00
H184   H     0.58154   0.32931   0.00000   0.00000  Uiso   1.00
H185   H     0.67069   0.25223   0.00000   0.00000  Uiso   1.00
H186   H     0.74777   0.41846   0.00000   0.00000  Uiso   1.00
H187   H     0.44478   0.63838   0.00000   0.00000  Uiso   1.00
H188   H     0.36162   0.80639   0.00000   0.00000  Uiso   1.00
H189   H     0.19361   0.55522   0.00000   0.00000  Uiso   1.00
H190   H     0.55522   0.36162   0.00000   0.00000  Uiso   1.00
H191   H     0.63839   0.19361   0.00000   0.00000  Uiso   1.00
H192   H     0.80639   0.44478   0.00000   0.00000  Uiso   1.00
H193   H     0.34889   0.54866   0.00000   0.00000  Uiso   1.00
H194   H     0.45134   0.80023   0.00000   0.00000  Uiso   1.00
H195   H     0.19977   0.65111   0.00000   0.00000  Uiso   1.00
H196   H     0.65111   0.45134   0.00000   0.00000  Uiso   1.00
H197   H     0.54866   0.19977   0.00000   0.00000  Uiso   1.00
H198   H     0.80023   0.34889   0.00000   0.00000  Uiso   1.00
H199   H     0.32209   0.57851   0.00000   0.00000  Uiso   1.00
H200   H     0.42149   0.74358   0.00000   0.00000  Uiso   1.00
H201   H     0.25642   0.67791   0.00000   0.00000  Uiso   1.00
H202   H     0.67791   0.42149   0.00000   0.00000  Uiso   1.00
H203   H     0.57851   0.25642   0.00000   0.00000  Uiso   1.00
H204   H     0.74358   0.32209   0.00000   0.00000  Uiso   1.00
H205   H     0.37565   0.52527   0.00000   0.00000  Uiso   1.00
H206   H     0.47473   0.85037   0.00000   0.00000  Uiso   1.00
H207   H     0.14963   0.62435   0.00000   0.00000  Uiso   1.00
H208   H     0.62435   0.47473   0.00000   0.00000  Uiso   1.00
H209   H     0.52527   0.14963   0.00000   0.00000  Uiso   1.00
H210   H     0.85037   0.37565   0.00000   0.00000  Uiso   1.00
C211   C     0.63699   0.58669   0.00000   0.00000  Uiso   1.00
C212   C     0.41331   0.05030   0.00000   0.00000  Uiso   1.00
C213   C     0.94970   0.36301   0.00000   0.00000  Uiso   1.00
C214   C     0.36301   0.41331   0.00000   0.00000  Uiso   1.00
C215   C     0.58669   0.94970   0.00000   0.00000  Uiso   1.00
C216   C     0.05030   0.63699   0.00000   0.00000  Uiso   1.00
C217   C     0.66473   0.62310   0.00000   0.00000  Uiso   1.00
C218   C     0.37691   0.04164   0.00000   0.00000  Uiso   1.00
C219   C     0.95836   0.33527   0.00000   0.00000  Uiso   1.00
C220   C     0.33527   0.37691   0.00000   0.00000  Uiso   1.00
C221   C     0.62310   0.95836   0.00000   0.00000  Uiso   1.00
C222   C     0.04164   0.66473   0.00000   0.00000  Uiso   1.00
C223   C     0.69900   0.62627   0.00000   0.00000  Uiso   1.00
C224   C     0.37373   0.07273   0.00000   0.00000  Uiso   1.00
C225   C     0.92727   0.30100   0.00000   0.00000  Uiso   1.00
C226   C     0.30100   0.37373   0.00000   0.00000  Uiso   1.00
C227   C     0.62627   0.92727   0.00000   0.00000  Uiso   1.00
C228   C     0.07273   0.69900   0.00000   0.00000  Uiso   1.00
H229   H     0.71920   0.65264   0.00000   0.00000  Uiso   1.00
H230   H     0.34736   0.06656   0.00000   0.00000  Uiso   1.00
H231   H     0.93344   0.28080   0.00000   0.00000  Uiso   1.00
H232   H     0.28080   0.34736   0.00000   0.00000  Uiso   1.00
H233   H     0.65264   0.93344   0.00000   0.00000  Uiso   1.00
H234   H     0.06656   0.71920   0.00000   0.00000  Uiso   1.00
loop_
_geom_bond_atom_site_label_1
_geom_bond_atom_site_label_2
_geom_bond_distance
_geom_bond_site_symmetry_2
_ccdc_geom_bond_type
H1     C88     1.084   .     S
H2     C89     1.084   .     S
H3     C90     1.084   .     S
H4     C85     1.084   .     S
H5     C86     1.084   .     S
H6     C87     1.084   .     S
H7     C85     1.084   .     S
H8     C86     1.084   .     S
H9     C87     1.084   .     S
H10    C88     1.084   .     S
H11    C89     1.084   .     S
H12    C90     1.084   .     S
H13    C211    1.068   .     S
H14    C212    1.068   .     S
H15    C213    1.068   .     S
H16    C214    1.068   .     S
H17    C215    1.068   .     S
H18    C216    1.068   .     S
H19    C214    1.068   .     S
H20    C215    1.068   .     S
H21    C216    1.068   .     S
H22    C211    1.068   .     S
H23    C212    1.068   .     S
H24    C213    1.068   .     S
H25    C217    1.081   .     S
H26    C218    1.081   .     S
H27    C219    1.081   .     S
H28    C220    1.081   .     S
H29    C221    1.081   .     S
H30    C222    1.081   .     S
H31    C220    1.081   .     S
H32    C221    1.081   .     S
H33    C222    1.081   .     S
H34    C217    1.081   .     S
H35    C218    1.081   .     S
H36    C219    1.081   .     S
H37    C223    1.078   .     S
H38    C224    1.078   .     S
H39    C225    1.078   .     S
H40    C226    1.078   .     S
H41    C227    1.078   .     S
H42    C228    1.078   .     S
H43    C226    1.078   .     S
H44    C227    1.078   .     S
H45    C228    1.078   .     S
H46    C223    1.078   .     S
H47    C224    1.078   .     S
H48    C225    1.078   .     S
C49    C55     1.402   .     D
C49    C57     1.402   .     S
C49    C92     1.480   .     S
C50    C55     1.402   .     S
C50    C56     1.402   .     D
C50    C93     1.480   .     S
C51    C56     1.402   .     S
C51    C57     1.402   .     D
C51    C91     1.480   .     S
C52    C58     1.402   .     S
C52    C60     1.402   .     D
C52    C95     1.480   .     S
C53    C58     1.402   .     D
C53    C59     1.402   .     S
C53    C96     1.480   .     S
C54    C59     1.402   .     D
C54    C60     1.402   .     S
C54    C94     1.480   .     S
C55    H169    1.044   .     S
C56    H170    1.044   .     S
C57    H171    1.044   .     S
C58    H172    1.044   .     S
C59    H173    1.044   .     S
C60    H174    1.044   .     S
C61    C67     1.365   .     S
C61    C139    1.389   .     D
C61    H175    1.068   .     S
C62    C68     1.365   .     S
C62    C140    1.389   .     D
C62    H176    1.068   .     S
C63    C69     1.365   .     S
C63    C141    1.389   .     D
C63    H177    1.068   .     S
C64    C70     1.365   .     S
C64    C142    1.389   .     D
C64    H178    1.068   .     S
C65    C71     1.365   .     S
C65    C143    1.389   .     D
C65    H179    1.068   .     S
C66    C72     1.365   .     S
C66    C144    1.389   .     D
C66    H180    1.068   .     S
C67    C73     1.344   .     D
C67    N157    1.411   .     S
C68    C74     1.344   .     D
C68    N158    1.411   .     S
C69    C75     1.344   .     D
C69    N159    1.411   .     S
C70    C76     1.344   .     D
C70    N160    1.411   .     S
C71    C77     1.344   .     D
C71    N161    1.411   .     S
C72    C78     1.344   .     D
C72    N162    1.411   .     S
C73    S79     1.699   .     S
C73    C145    1.476   .     S
C74    S80     1.699   .     S
C74    C146    1.476   .     S
C75    S81     1.699   .     S
C75    C147    1.476   .     S
C76    S82     1.699   .     S
C76    C148    1.476   .     S
C77    S83     1.699   .     S
C77    C149    1.476   .     S
C78    S84     1.699   .     S
C78    C150    1.476   .     S
S79    C139    1.735   .     S
S80    C140    1.735   .     S
S81    C141    1.735   .     S
S82    C142    1.735   .     S
S83    C143    1.735   .     S
S84    C144    1.735   .     S
C85    N157    1.452   .     S
C85    C214    1.526   .     S
C86    N158    1.452   .     S
C86    C215    1.526   .     S
C87    N159    1.452   .     S
C87    C216    1.526   .     S
C88    N160    1.452   .     S
C88    C211    1.526   .     S
C89    N161    1.452   .     S
C89    C212    1.526   .     S
C90    N162    1.452   .     S
C90    C213    1.526   .     S
C91    C97     1.404   .     D
C91    C121    1.404   .     S
C92    C98     1.404   .     D
C92    C122    1.404   .     S
C93    C99     1.404   .     S
C93    C123    1.404   .     D
C94    C100    1.404   .     D
C94    C124    1.404   .     S
C95    C101    1.404   .     D
C95    C125    1.404   .     S
C96    C102    1.404   .     S
C96    C126    1.404   .     D
C97    C103    1.397   .     S
C97    H181    1.071   .     S
C98    C104    1.397   .     S
C98    H182    1.071   .     S
C99    C105    1.397   .     D
C99    H183    1.071   .     S
C100   C106    1.397   .     S
C100   H184    1.071   .     S
C101   C107    1.397   .     S
C101   H185    1.071   .     S
C102   C108    1.397   .     D
C102   H186    1.071   .     S
C103   C109    1.398   .     D
C103   H187    1.083   .     S
C104   C110    1.398   .     D
C104   H188    1.083   .     S
C105   C111    1.398   .     S
C105   H189    1.083   .     S
C106   C112    1.398   .     D
C106   H190    1.083   .     S
C107   C113    1.398   .     D
C107   H191    1.083   .     S
C108   C114    1.398   .     S
C108   H192    1.083   .     S
C109   C115    1.404   .     S
C109   N127    1.430   .     S
C110   C116    1.404   .     S
C110   N128    1.430   .     S
C111   C117    1.404   .     D
C111   N129    1.430   .     S
C112   C118    1.404   .     S
C112   N130    1.430   .     S
C113   C119    1.404   .     S
C113   N131    1.430   .     S
C114   C120    1.404   .     D
C114   N132    1.430   .     S
C115   C121    1.397   .     D
C115   H193    1.074   .     S
C116   C122    1.397   .     D
C116   H194    1.074   .     S
C117   C123    1.397   .     S
C117   H195    1.074   .     S
C118   C124    1.397   .     D
C118   H196    1.074   .     S
C119   C125    1.397   .     D
C119   H197    1.074   .     S
C120   C126    1.397   .     S
C120   H198    1.074   .     S
C121   H199    1.071   .     S
C122   H200    1.071   .     S
C123   H201    1.071   .     S
C124   H202    1.071   .     S
C125   H203    1.071   .     S
C126   H204    1.071   .     S
N127   C133    1.295   .     D
N128   C134    1.295   .     D
N129   C135    1.295   .     D
N130   C136    1.295   .     D
N131   C137    1.295   .     D
N132   C138    1.295   .     D
C133   C139    1.465   .     S
C133   H205    1.073   .     S
C134   C140    1.465   .     S
C134   H206    1.073   .     S
C135   C141    1.465   .     S
C135   H207    1.073   .     S
C136   C142    1.465   .     S
C136   H208    1.073   .     S
C137   C143    1.465   .     S
C137   H209    1.073   .     S
C138   C144    1.465   .     S
C138   H210    1.073   .     S
C145   C148    1.354   .     D
C145   C151    1.488   .     S
C146   C149    1.354   1_565 D
C146   C152    1.488   1_565 S
C147   C150    1.354   1_455 D
C147   C153    1.488   1_455 S
C148   C154    1.488   .     S
C149   C146    1.354   1_545 D
C149   C155    1.488   1_545 S
C150   C147    1.354   1_655 D
C150   C156    1.488   1_655 S
C151   N157    1.360   .     S
C151   O163    1.212   .     D
C152   C146    1.488   1_545 S
C152   N158    1.360   1_545 S
C152   O164    1.212   .     D
C153   C147    1.488   1_655 S
C153   N159    1.360   1_655 S
C153   O165    1.212   .     D
C154   N160    1.360   .     S
C154   O166    1.212   .     D
C155   C149    1.488   1_565 S
C155   N161    1.360   1_565 S
C155   O167    1.212   .     D
C156   C150    1.488   1_455 S
C156   N162    1.360   1_455 S
C156   O168    1.212   .     D
N158   C152    1.360   1_565 S
N159   C153    1.360   1_455 S
N161   C155    1.360   1_545 S
N162   C156    1.360   1_655 S
C211   C217    1.532   .     S
C212   C218    1.532   .     S
C213   C219    1.532   .     S
C214   C220    1.532   .     S
C215   C221    1.532   .     S
C216   C222    1.532   .     S
C217   C223    1.525   .     S
C218   C224    1.525   .     S
C219   C225    1.525   .     S
C220   C226    1.525   .     S
C221   C227    1.525   .     S
C222   C228    1.525   .     S
C223   H229    1.111   .     S
C224   H230    1.111   .     S
C225   H231    1.111   .     S
C226   H232    1.111   .     S
C227   H233    1.111   .     S
C228   H234    1.111   .     S
