data_454
_audit_creation_date              2023-09-08
_audit_creation_method            'Materials Studio'
_symmetry_space_group_name_H-M    'P1'
_symmetry_Int_Tables_number       1
_symmetry_cell_setting            triclinic
loop_
_symmetry_equiv_pos_as_xyz
  x,y,z
_cell_length_a                    27.0500
_cell_length_b                    27.0500
_cell_length_c                    4.3200
_cell_angle_alpha                 90.0000
_cell_angle_beta                  90.0000
_cell_angle_gamma                 90.0000
loop_
_atom_site_label
_atom_site_type_symbol
_atom_site_fract_x
_atom_site_fract_y
_atom_site_fract_z
_atom_site_U_iso_or_equiv
_atom_site_adp_type
_atom_site_occupancy
C1     C     0.87600   0.86709   0.48831   0.00000  Uiso   1.00
C2     C     0.88203   0.82460   0.67085   0.00000  Uiso   1.00
C3     C     0.84730   0.78639   0.66197   0.00000  Uiso   1.00
C4     C     0.80506   0.79041   0.47293   0.00000  Uiso   1.00
C5     C     0.79870   0.83310   0.29489   0.00000  Uiso   1.00
C6     C     0.83390   0.87082   0.30030   0.00000  Uiso   1.00
N7     N     0.24717   0.76755   0.54451   0.00000  Uiso   1.00
C8     C     0.35589   0.38922   0.51823   0.00000  Uiso   1.00
C9     C     0.35461   0.34564   0.34164   0.00000  Uiso   1.00
C10    C     0.31473   0.31300   0.36494   0.00000  Uiso   1.00
C11    C     0.27474   0.32390   0.56078   0.00000  Uiso   1.00
C12    C     0.27518   0.36815   0.72916   0.00000  Uiso   1.00
C13    C     0.31549   0.40021   0.70980   0.00000  Uiso   1.00
C14    C     0.71047   0.23277   0.40289   0.00000  Uiso   1.00
C15    C     0.08626   0.09246   0.49315   0.00000  Uiso   1.00
C16    C     0.42287   0.60021   0.49161   0.00000  Uiso   1.00
C17    C     0.40289   0.55276   0.43715   0.00000  Uiso   1.00
N18    N     0.42636   0.50958   0.49777   0.00000  Uiso   1.00
C19    C     0.39246   0.47361   0.44707   0.00000  Uiso   1.00
C20    C     0.34819   0.49400   0.34957   0.00000  Uiso   1.00
C21    C     0.35491   0.54391   0.34030   0.00000  Uiso   1.00
C22    C     0.89555   0.03621   0.56168   0.00000  Uiso   1.00
C23    C     0.95642   0.10179   0.44629   0.00000  Uiso   1.00
C24    C     0.96935   0.14879   0.34886   0.00000  Uiso   1.00
C25    C     0.01970   0.15039   0.34216   0.00000  Uiso   1.00
N26    N     0.99742   0.07421   0.49775   0.00000  Uiso   1.00
H27    H     0.91382   0.82100   0.82021   0.00000  Uiso   1.00
H28    H     0.85379   0.75459   0.80686   0.00000  Uiso   1.00
H29    H     0.76650   0.83687   0.14809   0.00000  Uiso   1.00
H30    H     0.82828   0.90307   0.15806   0.00000  Uiso   1.00
H31    H     0.38486   0.33660   0.18865   0.00000  Uiso   1.00
H32    H     0.31523   0.27938   0.22920   0.00000  Uiso   1.00
H33    H     0.24480   0.37743   0.88159   0.00000  Uiso   1.00
H34    H     0.31537   0.43356   0.84606   0.00000  Uiso   1.00
H35    H     0.69965   0.20286   0.25211   0.00000  Uiso   1.00
H36    H     0.31390   0.47526   0.29853   0.00000  Uiso   1.00
H37    H     0.32687   0.57050   0.27737   0.00000  Uiso   1.00
H38    H     0.94528   0.17949   0.29588   0.00000  Uiso   1.00
H39    H     0.04140   0.18248   0.28158   0.00000  Uiso   1.00
C40    C     0.12400   0.13291   0.48831   0.00000  Uiso   1.00
C41    C     0.11797   0.17540   0.67085   0.00000  Uiso   1.00
C42    C     0.15270   0.21361   0.66197   0.00000  Uiso   1.00
C43    C     0.19494   0.20959   0.47293   0.00000  Uiso   1.00
C44    C     0.20130   0.16690   0.29489   0.00000  Uiso   1.00
C45    C     0.16610   0.12918   0.30030   0.00000  Uiso   1.00
N46    N     0.75283   0.23245   0.54451   0.00000  Uiso   1.00
C47    C     0.64411   0.61078   0.51823   0.00000  Uiso   1.00
C48    C     0.64539   0.65436   0.34164   0.00000  Uiso   1.00
C49    C     0.68527   0.68700   0.36494   0.00000  Uiso   1.00
C50    C     0.72526   0.67610   0.56078   0.00000  Uiso   1.00
C51    C     0.72482   0.63185   0.72916   0.00000  Uiso   1.00
C52    C     0.68451   0.59979   0.70980   0.00000  Uiso   1.00
C53    C     0.28953   0.76723   0.40289   0.00000  Uiso   1.00
C54    C     0.91374   0.90754   0.49315   0.00000  Uiso   1.00
C55    C     0.57713   0.39979   0.49161   0.00000  Uiso   1.00
C56    C     0.59711   0.44724   0.43715   0.00000  Uiso   1.00
N57    N     0.57364   0.49042   0.49777   0.00000  Uiso   1.00
C58    C     0.60754   0.52639   0.44707   0.00000  Uiso   1.00
C59    C     0.65181   0.50600   0.34957   0.00000  Uiso   1.00
C60    C     0.64509   0.45609   0.34030   0.00000  Uiso   1.00
C61    C     0.10445   0.96379   0.56168   0.00000  Uiso   1.00
C62    C     0.04358   0.89821   0.44629   0.00000  Uiso   1.00
C63    C     0.03065   0.85121   0.34886   0.00000  Uiso   1.00
C64    C     0.98030   0.84961   0.34216   0.00000  Uiso   1.00
N65    N     0.00258   0.92579   0.49775   0.00000  Uiso   1.00
H66    H     0.08618   0.17900   0.82021   0.00000  Uiso   1.00
H67    H     0.14621   0.24541   0.80686   0.00000  Uiso   1.00
H68    H     0.23350   0.16313   0.14809   0.00000  Uiso   1.00
H69    H     0.17172   0.09693   0.15806   0.00000  Uiso   1.00
H70    H     0.61514   0.66340   0.18865   0.00000  Uiso   1.00
H71    H     0.68477   0.72062   0.22920   0.00000  Uiso   1.00
H72    H     0.75520   0.62257   0.88159   0.00000  Uiso   1.00
H73    H     0.68463   0.56644   0.84606   0.00000  Uiso   1.00
H74    H     0.30035   0.79714   0.25211   0.00000  Uiso   1.00
H75    H     0.68610   0.52474   0.29853   0.00000  Uiso   1.00
H76    H     0.67313   0.42950   0.27737   0.00000  Uiso   1.00
H77    H     0.05472   0.82051   0.29588   0.00000  Uiso   1.00
H78    H     0.95860   0.81752   0.28158   0.00000  Uiso   1.00
C79    C     0.13291   0.87600   0.48831   0.00000  Uiso   1.00
C80    C     0.17540   0.88203   0.67085   0.00000  Uiso   1.00
C81    C     0.21361   0.84730   0.66197   0.00000  Uiso   1.00
C82    C     0.20959   0.80506   0.47293   0.00000  Uiso   1.00
C83    C     0.16690   0.79870   0.29489   0.00000  Uiso   1.00
C84    C     0.12918   0.83390   0.30030   0.00000  Uiso   1.00
N85    N     0.23245   0.24717   0.54451   0.00000  Uiso   1.00
C86    C     0.61078   0.35589   0.51823   0.00000  Uiso   1.00
C87    C     0.65436   0.35461   0.34164   0.00000  Uiso   1.00
C88    C     0.68700   0.31473   0.36494   0.00000  Uiso   1.00
C89    C     0.67610   0.27474   0.56078   0.00000  Uiso   1.00
C90    C     0.63185   0.27518   0.72916   0.00000  Uiso   1.00
C91    C     0.59979   0.31549   0.70980   0.00000  Uiso   1.00
C92    C     0.76723   0.71047   0.40289   0.00000  Uiso   1.00
C93    C     0.90754   0.08626   0.49315   0.00000  Uiso   1.00
C94    C     0.39979   0.42287   0.49161   0.00000  Uiso   1.00
C95    C     0.44724   0.40289   0.43715   0.00000  Uiso   1.00
N96    N     0.49042   0.42636   0.49777   0.00000  Uiso   1.00
C97    C     0.52639   0.39246   0.44707   0.00000  Uiso   1.00
C98    C     0.50600   0.34819   0.34957   0.00000  Uiso   1.00
C99    C     0.45609   0.35491   0.34030   0.00000  Uiso   1.00
C100   C     0.96379   0.89555   0.56168   0.00000  Uiso   1.00
C101   C     0.89821   0.95642   0.44629   0.00000  Uiso   1.00
C102   C     0.85121   0.96935   0.34886   0.00000  Uiso   1.00
C103   C     0.84961   0.01970   0.34216   0.00000  Uiso   1.00
N104   N     0.92579   0.99742   0.49775   0.00000  Uiso   1.00
H105   H     0.17900   0.91382   0.82021   0.00000  Uiso   1.00
H106   H     0.24541   0.85379   0.80686   0.00000  Uiso   1.00
H107   H     0.16313   0.76650   0.14809   0.00000  Uiso   1.00
H108   H     0.09693   0.82828   0.15806   0.00000  Uiso   1.00
H109   H     0.66340   0.38486   0.18865   0.00000  Uiso   1.00
H110   H     0.72062   0.31523   0.22920   0.00000  Uiso   1.00
H111   H     0.62257   0.24480   0.88159   0.00000  Uiso   1.00
H112   H     0.56644   0.31537   0.84606   0.00000  Uiso   1.00
H113   H     0.79714   0.69965   0.25211   0.00000  Uiso   1.00
H114   H     0.52474   0.31390   0.29853   0.00000  Uiso   1.00
H115   H     0.42950   0.32687   0.27737   0.00000  Uiso   1.00
H116   H     0.82051   0.94528   0.29588   0.00000  Uiso   1.00
H117   H     0.81752   0.04140   0.28158   0.00000  Uiso   1.00
C118   C     0.86709   0.12400   0.48831   0.00000  Uiso   1.00
C119   C     0.82460   0.11797   0.67085   0.00000  Uiso   1.00
C120   C     0.78639   0.15270   0.66197   0.00000  Uiso   1.00
C121   C     0.79041   0.19494   0.47293   0.00000  Uiso   1.00
C122   C     0.83310   0.20130   0.29489   0.00000  Uiso   1.00
C123   C     0.87082   0.16610   0.30030   0.00000  Uiso   1.00
N124   N     0.76755   0.75283   0.54451   0.00000  Uiso   1.00
C125   C     0.38922   0.64411   0.51823   0.00000  Uiso   1.00
C126   C     0.34564   0.64539   0.34164   0.00000  Uiso   1.00
C127   C     0.31300   0.68527   0.36494   0.00000  Uiso   1.00
C128   C     0.32390   0.72526   0.56078   0.00000  Uiso   1.00
C129   C     0.36815   0.72482   0.72916   0.00000  Uiso   1.00
C130   C     0.40021   0.68451   0.70980   0.00000  Uiso   1.00
C131   C     0.23277   0.28953   0.40289   0.00000  Uiso   1.00
C132   C     0.09246   0.91374   0.49315   0.00000  Uiso   1.00
C133   C     0.60021   0.57713   0.49161   0.00000  Uiso   1.00
C134   C     0.55276   0.59711   0.43715   0.00000  Uiso   1.00
N135   N     0.50958   0.57364   0.49777   0.00000  Uiso   1.00
C136   C     0.47361   0.60754   0.44707   0.00000  Uiso   1.00
C137   C     0.49400   0.65181   0.34957   0.00000  Uiso   1.00
C138   C     0.54391   0.64509   0.34030   0.00000  Uiso   1.00
C139   C     0.03621   0.10445   0.56168   0.00000  Uiso   1.00
C140   C     0.10179   0.04358   0.44629   0.00000  Uiso   1.00
C141   C     0.14879   0.03065   0.34886   0.00000  Uiso   1.00
C142   C     0.15039   0.98030   0.34216   0.00000  Uiso   1.00
N143   N     0.07421   0.00258   0.49775   0.00000  Uiso   1.00
H144   H     0.82100   0.08618   0.82021   0.00000  Uiso   1.00
H145   H     0.75459   0.14621   0.80686   0.00000  Uiso   1.00
H146   H     0.83687   0.23350   0.14809   0.00000  Uiso   1.00
H147   H     0.90307   0.17172   0.15806   0.00000  Uiso   1.00
H148   H     0.33660   0.61514   0.18865   0.00000  Uiso   1.00
H149   H     0.27938   0.68477   0.22920   0.00000  Uiso   1.00
H150   H     0.37743   0.75520   0.88159   0.00000  Uiso   1.00
H151   H     0.43356   0.68463   0.84606   0.00000  Uiso   1.00
H152   H     0.20286   0.30035   0.25211   0.00000  Uiso   1.00
H153   H     0.47526   0.68610   0.29853   0.00000  Uiso   1.00
H154   H     0.57050   0.67313   0.27737   0.00000  Uiso   1.00
H155   H     0.17949   0.05472   0.29588   0.00000  Uiso   1.00
H156   H     0.18248   0.95860   0.28158   0.00000  Uiso   1.00
Zn157  Zn    0.50000   0.50000   0.50000   0.00000  Uiso   1.00
Zn158  Zn    0.00000   0.00000   0.50000   0.00000  Uiso   1.00
loop_
_geom_bond_atom_site_label_1
_geom_bond_atom_site_label_2
_geom_bond_distance
_geom_bond_site_symmetry_2
_ccdc_geom_bond_type
C1     C2      1.403   .     S
C1     C6      1.402   .     D
C1     C54     1.497   .     S
C2     C3      1.397   .     D
C2     H27     1.079   .     S
C3     C4      1.409   .     S
C3     H28     1.078   .     S
C4     C5      1.398   .     D
C4     N124    1.469   .     S
C5     C6      1.396   .     S
C5     H29     1.082   .     S
C6     H30     1.078   .     S
N7     C53     1.299   .     D
N7     C82     1.469   .     S
C8     C9      1.405   .     S
C8     C13     1.403   .     D
C8     C94     1.501   .     S
C9     C10     1.398   .     D
C9     H31     1.080   .     S
C10    C11     1.405   .     S
C10    H32     1.082   .     S
C11    C12     1.401   .     D
C11    C131    1.618   .     S
C12    C13     1.396   .     S
C12    H33     1.083   .     S
C13    H34     1.077   .     S
C14    H35     1.079   .     S
C14    N46     1.299   .     D
C14    C89     1.618   .     S
C15    C40     1.497   .     S
C15    C139    1.423   .     S
C15    C140    1.402   .     D
C16    C17     1.412   .     D
C16    C125    1.501   .     S
C16    C136    1.400   .     S
C17    N18     1.355   .     S
C17    C21     1.384   .     S
N18    C19     1.355   .     D
N18    Zn157   2.009   .     S
C19    C20     1.384   .     S
C19    C94     1.400   .     S
C20    C21     1.363   .     D
C20    H36     1.080   .     S
C21    H37     1.080   .     S
C22    C93     1.423   .     S
C22    C103    1.626   .     S
C22    N104    1.359   1_545 D
C23    C24     1.384   .     S
C23    N26     1.355   .     S
C23    C93     1.402   .     D
C24    C25     1.363   1_655 D
C24    H38     1.080   .     S
C25    C24     1.363   1_455 D
C25    H39     1.080   .     S
C25    C139    1.626   .     S
N26    C139    1.359   1_655 D
N26    Zn158   2.009   1_655 S
C40    C41     1.403   .     S
C40    C45     1.402   .     D
C41    C42     1.397   .     D
C41    H66     1.079   .     S
C42    C43     1.409   .     S
C42    H67     1.078   .     S
C43    C44     1.398   .     D
C43    N85     1.469   .     S
C44    C45     1.396   .     S
C44    H68     1.082   .     S
C45    H69     1.078   .     S
N46    C121    1.469   .     S
C47    C48     1.405   .     S
C47    C52     1.403   .     D
C47    C133    1.501   .     S
C48    C49     1.398   .     D
C48    H70     1.080   .     S
C49    C50     1.405   .     S
C49    H71     1.082   .     S
C50    C51     1.401   .     D
C50    C92     1.618   .     S
C51    C52     1.396   .     S
C51    H72     1.083   .     S
C52    H73     1.077   .     S
C53    H74     1.079   .     S
C53    C128    1.618   .     S
C54    C100    1.423   .     S
C54    C101    1.402   .     D
C55    C56     1.412   .     D
C55    C86     1.501   .     S
C55    C97     1.400   .     S
C56    N57     1.355   .     S
C56    C60     1.384   .     S
N57    C58     1.355   .     D
N57    Zn157   2.009   .     S
C58    C59     1.384   .     S
C58    C133    1.400   .     S
C59    C60     1.363   .     D
C59    H75     1.080   .     S
C60    H76     1.080   .     S
C61    C132    1.423   .     S
C61    C142    1.626   .     S
C61    N143    1.359   1_565 D
C62    C63     1.384   .     S
C62    N65     1.355   .     S
C62    C132    1.402   .     D
C63    C64     1.363   1_455 D
C63    H77     1.080   .     S
C64    C63     1.363   1_655 D
C64    H78     1.080   .     S
C64    C100    1.626   .     S
N65    C100    1.359   1_455 D
N65    Zn158   2.009   1_565 S
C79    C80     1.403   .     D
C79    C84     1.402   .     S
C79    C132    1.497   .     S
C80    C81     1.397   .     S
C80    H105    1.079   .     S
C81    C82     1.409   .     D
C81    H106    1.078   .     S
C82    C83     1.398   .     S
C83    C84     1.396   .     D
C83    H107    1.082   .     S
C84    H108    1.078   .     S
N85    C131    1.299   .     D
C86    C87     1.405   .     D
C86    C91     1.403   .     S
C87    C88     1.398   .     S
C87    H109    1.080   .     S
C88    C89     1.405   .     D
C88    H110    1.082   .     S
C89    C90     1.401   .     S
C90    C91     1.396   .     D
C90    H111    1.083   .     S
C91    H112    1.077   .     S
C92    H113    1.079   .     S
C92    N124    1.299   .     D
C93    C118    1.497   .     S
C94    C95     1.412   .     D
C95    N96     1.355   .     S
C95    C99     1.384   .     S
N96    C97     1.355   .     D
N96    Zn157   2.009   .     S
C97    C98     1.384   .     S
C98    C99     1.363   .     D
C98    H114    1.080   .     S
C99    H115    1.080   .     S
C100   N65     1.359   1_655 D
C101   C102    1.384   .     S
C101   N104    1.355   .     S
C102   C103    1.363   1_565 D
C102   H116    1.080   .     S
C103   C102    1.363   1_545 D
C103   H117    1.080   .     S
N104   C22     1.359   1_565 D
N104   Zn158   2.009   1_665 S
C118   C119    1.403   .     D
C118   C123    1.402   .     S
C119   C120    1.397   .     S
C119   H144    1.079   .     S
C120   C121    1.409   .     D
C120   H145    1.078   .     S
C121   C122    1.398   .     S
C122   C123    1.396   .     D
C122   H146    1.082   .     S
C123   H147    1.078   .     S
C125   C126    1.405   .     D
C125   C130    1.403   .     S
C126   C127    1.398   .     S
C126   H148    1.080   .     S
C127   C128    1.405   .     D
C127   H149    1.082   .     S
C128   C129    1.401   .     S
C129   C130    1.396   .     D
C129   H150    1.083   .     S
C130   H151    1.077   .     S
C131   H152    1.079   .     S
C133   C134    1.412   .     D
C134   N135    1.355   .     S
C134   C138    1.384   .     S
N135   C136    1.355   .     D
N135   Zn157   2.009   .     S
C136   C137    1.384   .     S
C137   C138    1.363   .     D
C137   H153    1.080   .     S
C138   H154    1.080   .     S
C139   N26     1.359   1_455 D
C140   C141    1.384   .     S
C140   N143    1.355   .     S
C141   C142    1.363   1_545 D
C141   H155    1.080   .     S
C142   C141    1.363   1_565 D
C142   H156    1.080   .     S
N143   C61     1.359   1_545 D
N143   Zn158   2.009   .     S
Zn158  N26     2.009   1_455 S
Zn158  N65     2.009   1_545 S
Zn158  N104    2.009   1_445 S
