data_455
_audit_creation_date              2023-09-08
_audit_creation_method            'Materials Studio'
_symmetry_space_group_name_H-M    'P1'
_symmetry_Int_Tables_number       1
_symmetry_cell_setting            triclinic
loop_
_symmetry_equiv_pos_as_xyz
  x,y,z
_cell_length_a                    35.5600
_cell_length_b                    35.5600
_cell_length_c                    3.5000
_cell_angle_alpha                 90.0000
_cell_angle_beta                  90.0000
_cell_angle_gamma                 120.0000
loop_
_atom_site_label
_atom_site_type_symbol
_atom_site_fract_x
_atom_site_fract_y
_atom_site_fract_z
_atom_site_U_iso_or_equiv
_atom_site_adp_type
_atom_site_occupancy
H1     H     0.38851   0.38200   0.27248   0.00000  Uiso   1.00
H2     H     0.61800   0.00651   0.27248   0.00000  Uiso   1.00
H3     H     0.99349   0.61149   0.27248   0.00000  Uiso   1.00
H4     H     0.61149   0.61800   0.27248   0.00000  Uiso   1.00
H5     H     0.38200   0.99349   0.27248   0.00000  Uiso   1.00
H6     H     0.00651   0.38851   0.27248   0.00000  Uiso   1.00
H7     H     0.61149   0.61800   0.72752   0.00000  Uiso   1.00
H8     H     0.38200   0.99349   0.72752   0.00000  Uiso   1.00
H9     H     0.00651   0.38851   0.72752   0.00000  Uiso   1.00
H10    H     0.38851   0.38200   0.72752   0.00000  Uiso   1.00
H11    H     0.61800   0.00651   0.72752   0.00000  Uiso   1.00
H12    H     0.99349   0.61149   0.72752   0.00000  Uiso   1.00
C13    C     0.29050   0.64360   0.50000   0.00000  Uiso   1.00
N14    N     0.31332   0.62350   0.50000   0.00000  Uiso   1.00
C15    C     0.38061   0.62590   0.50000   0.00000  Uiso   1.00
C16    C     0.42592   0.65070   0.50000   0.00000  Uiso   1.00
C17    C     0.44893   0.62960   0.50000   0.00000  Uiso   1.00
C18    C     0.42658   0.58480   0.50000   0.00000  Uiso   1.00
C19    C     0.38133   0.55990   0.50000   0.00000  Uiso   1.00
C20    C     0.35828   0.58070   0.50000   0.00000  Uiso   1.00
N21    N     0.45209   0.56620   0.50000   0.00000  Uiso   1.00
C22    C     0.45548   0.47040   0.50000   0.00000  Uiso   1.00
C23    C     0.48283   0.45410   0.50000   0.00000  Uiso   1.00
C24    C     0.52823   0.48520   0.50000   0.00000  Uiso   1.00
C25    C     0.56075   0.47380   0.50000   0.00000  Uiso   1.00
S26    S     0.45941   0.39410   0.50000   0.00000  Uiso   1.00
C27    C     0.40009   0.37060   0.50000   0.00000  Uiso   1.00
H28    H     0.44325   0.68590   0.50000   0.00000  Uiso   1.00
H29    H     0.48412   0.64750   0.50000   0.00000  Uiso   1.00
H30    H     0.36319   0.52500   0.50000   0.00000  Uiso   1.00
H31    H     0.32313   0.56140   0.50000   0.00000  Uiso   1.00
H32    H     0.42100   0.44900   0.50000   0.00000  Uiso   1.00
H33    H     0.59459   0.49850   0.50000   0.00000  Uiso   1.00
H34    H     0.38372   0.33460   0.50000   0.00000  Uiso   1.00
C35    C     0.35640   0.64690   0.50000   0.00000  Uiso   1.00
N36    N     0.37650   0.68982   0.50000   0.00000  Uiso   1.00
C37    C     0.37410   0.75471   0.50000   0.00000  Uiso   1.00
C38    C     0.34930   0.77522   0.50000   0.00000  Uiso   1.00
C39    C     0.37040   0.81933   0.50000   0.00000  Uiso   1.00
C40    C     0.41520   0.84178   0.50000   0.00000  Uiso   1.00
C41    C     0.44010   0.82143   0.50000   0.00000  Uiso   1.00
C42    C     0.41930   0.77758   0.50000   0.00000  Uiso   1.00
N43    N     0.43380   0.88589   0.50000   0.00000  Uiso   1.00
C44    C     0.52960   0.98508   0.50000   0.00000  Uiso   1.00
C45    C     0.54590   0.02873   0.50000   0.00000  Uiso   1.00
C46    C     0.51480   0.04303   0.50000   0.00000  Uiso   1.00
C47    C     0.52620   0.08695   0.50000   0.00000  Uiso   1.00
S48    S     0.60590   0.06531   0.50000   0.00000  Uiso   1.00
C49    C     0.62940   0.02949   0.50000   0.00000  Uiso   1.00
H50    H     0.31410   0.75735   0.50000   0.00000  Uiso   1.00
H51    H     0.35250   0.83662   0.50000   0.00000  Uiso   1.00
H52    H     0.47500   0.83819   0.50000   0.00000  Uiso   1.00
H53    H     0.43860   0.76173   0.50000   0.00000  Uiso   1.00
H54    H     0.55100   0.97200   0.50000   0.00000  Uiso   1.00
H55    H     0.50150   0.09609   0.50000   0.00000  Uiso   1.00
H56    H     0.66540   0.04912   0.50000   0.00000  Uiso   1.00
C57    C     0.35310   0.70950   0.50000   0.00000  Uiso   1.00
N58    N     0.31018   0.68668   0.50000   0.00000  Uiso   1.00
C59    C     0.24529   0.61939   0.50000   0.00000  Uiso   1.00
C60    C     0.22478   0.57408   0.50000   0.00000  Uiso   1.00
C61    C     0.18067   0.55107   0.50000   0.00000  Uiso   1.00
C62    C     0.15822   0.57342   0.50000   0.00000  Uiso   1.00
C63    C     0.17857   0.61867   0.50000   0.00000  Uiso   1.00
C64    C     0.22242   0.64172   0.50000   0.00000  Uiso   1.00
N65    N     0.11411   0.54791   0.50000   0.00000  Uiso   1.00
C66    C     0.01492   0.54452   0.50000   0.00000  Uiso   1.00
C67    C     0.97127   0.51717   0.50000   0.00000  Uiso   1.00
C68    C     0.95697   0.47177   0.50000   0.00000  Uiso   1.00
C69    C     0.91305   0.43925   0.50000   0.00000  Uiso   1.00
S70    S     0.93469   0.54059   0.50000   0.00000  Uiso   1.00
C71    C     0.97051   0.59991   0.50000   0.00000  Uiso   1.00
H72    H     0.24265   0.55675   0.50000   0.00000  Uiso   1.00
H73    H     0.16338   0.51588   0.50000   0.00000  Uiso   1.00
H74    H     0.16181   0.63681   0.50000   0.00000  Uiso   1.00
H75    H     0.23827   0.67687   0.50000   0.00000  Uiso   1.00
H76    H     0.02800   0.57900   0.50000   0.00000  Uiso   1.00
H77    H     0.90391   0.40541   0.50000   0.00000  Uiso   1.00
H78    H     0.95088   0.61628   0.50000   0.00000  Uiso   1.00
C79    C     0.70950   0.35640   0.50000   0.00000  Uiso   1.00
N80    N     0.68668   0.37650   0.50000   0.00000  Uiso   1.00
C81    C     0.61939   0.37410   0.50000   0.00000  Uiso   1.00
C82    C     0.57408   0.34930   0.50000   0.00000  Uiso   1.00
C83    C     0.55107   0.37040   0.50000   0.00000  Uiso   1.00
C84    C     0.57342   0.41520   0.50000   0.00000  Uiso   1.00
C85    C     0.61867   0.44010   0.50000   0.00000  Uiso   1.00
C86    C     0.64172   0.41930   0.50000   0.00000  Uiso   1.00
N87    N     0.54791   0.43380   0.50000   0.00000  Uiso   1.00
C88    C     0.54452   0.52960   0.50000   0.00000  Uiso   1.00
C89    C     0.51717   0.54590   0.50000   0.00000  Uiso   1.00
C90    C     0.47177   0.51480   0.50000   0.00000  Uiso   1.00
C91    C     0.43925   0.52620   0.50000   0.00000  Uiso   1.00
S92    S     0.54059   0.60590   0.50000   0.00000  Uiso   1.00
C93    C     0.59991   0.62940   0.50000   0.00000  Uiso   1.00
H94    H     0.55675   0.31410   0.50000   0.00000  Uiso   1.00
H95    H     0.51588   0.35250   0.50000   0.00000  Uiso   1.00
H96    H     0.63681   0.47500   0.50000   0.00000  Uiso   1.00
H97    H     0.67687   0.43860   0.50000   0.00000  Uiso   1.00
H98    H     0.57900   0.55100   0.50000   0.00000  Uiso   1.00
H99    H     0.40541   0.50150   0.50000   0.00000  Uiso   1.00
H100   H     0.61628   0.66540   0.50000   0.00000  Uiso   1.00
C101   C     0.64360   0.35310   0.50000   0.00000  Uiso   1.00
N102   N     0.62350   0.31018   0.50000   0.00000  Uiso   1.00
C103   C     0.62590   0.24529   0.50000   0.00000  Uiso   1.00
C104   C     0.65070   0.22478   0.50000   0.00000  Uiso   1.00
C105   C     0.62960   0.18067   0.50000   0.00000  Uiso   1.00
C106   C     0.58480   0.15822   0.50000   0.00000  Uiso   1.00
C107   C     0.55990   0.17857   0.50000   0.00000  Uiso   1.00
C108   C     0.58070   0.22242   0.50000   0.00000  Uiso   1.00
N109   N     0.56620   0.11411   0.50000   0.00000  Uiso   1.00
C110   C     0.47040   0.01492   0.50000   0.00000  Uiso   1.00
C111   C     0.45410   0.97127   0.50000   0.00000  Uiso   1.00
C112   C     0.48520   0.95697   0.50000   0.00000  Uiso   1.00
C113   C     0.47380   0.91305   0.50000   0.00000  Uiso   1.00
S114   S     0.39410   0.93469   0.50000   0.00000  Uiso   1.00
C115   C     0.37060   0.97051   0.50000   0.00000  Uiso   1.00
H116   H     0.68590   0.24265   0.50000   0.00000  Uiso   1.00
H117   H     0.64750   0.16338   0.50000   0.00000  Uiso   1.00
H118   H     0.52500   0.16181   0.50000   0.00000  Uiso   1.00
H119   H     0.56140   0.23827   0.50000   0.00000  Uiso   1.00
H120   H     0.44900   0.02800   0.50000   0.00000  Uiso   1.00
H121   H     0.49850   0.90391   0.50000   0.00000  Uiso   1.00
H122   H     0.33460   0.95088   0.50000   0.00000  Uiso   1.00
C123   C     0.64690   0.29050   0.50000   0.00000  Uiso   1.00
N124   N     0.68982   0.31332   0.50000   0.00000  Uiso   1.00
C125   C     0.75471   0.38061   0.50000   0.00000  Uiso   1.00
C126   C     0.77522   0.42592   0.50000   0.00000  Uiso   1.00
C127   C     0.81933   0.44893   0.50000   0.00000  Uiso   1.00
C128   C     0.84178   0.42658   0.50000   0.00000  Uiso   1.00
C129   C     0.82143   0.38133   0.50000   0.00000  Uiso   1.00
C130   C     0.77758   0.35828   0.50000   0.00000  Uiso   1.00
N131   N     0.88589   0.45209   0.50000   0.00000  Uiso   1.00
C132   C     0.98508   0.45548   0.50000   0.00000  Uiso   1.00
C133   C     0.02873   0.48283   0.50000   0.00000  Uiso   1.00
C134   C     0.04303   0.52823   0.50000   0.00000  Uiso   1.00
C135   C     0.08695   0.56075   0.50000   0.00000  Uiso   1.00
S136   S     0.06531   0.45941   0.50000   0.00000  Uiso   1.00
C137   C     0.02949   0.40009   0.50000   0.00000  Uiso   1.00
H138   H     0.75735   0.44325   0.50000   0.00000  Uiso   1.00
H139   H     0.83662   0.48412   0.50000   0.00000  Uiso   1.00
H140   H     0.83819   0.36319   0.50000   0.00000  Uiso   1.00
H141   H     0.76173   0.32313   0.50000   0.00000  Uiso   1.00
H142   H     0.97200   0.42100   0.50000   0.00000  Uiso   1.00
H143   H     0.09609   0.59459   0.50000   0.00000  Uiso   1.00
H144   H     0.04912   0.38372   0.50000   0.00000  Uiso   1.00
loop_
_geom_bond_atom_site_label_1
_geom_bond_atom_site_label_2
_geom_bond_distance
_geom_bond_site_symmetry_2
_ccdc_geom_bond_type
H1     C27     1.065   .     S
H2     C49     1.065   .     S
H3     C71     1.065   .     S
H4     C93     1.065   .     S
H5     C115    1.065   .     S
H6     C137    1.065   .     S
H7     C93     1.065   .     S
H8     C115    1.065   .     S
H9     C137    1.065   .     S
H10    C27     1.065   .     S
H11    C49     1.065   .     S
H12    C71     1.065   .     S
C13    N14     1.323   .     S
C13    N58     1.328   .     D
C13    C59     1.393   .     S
N14    C35     1.328   .     D
C15    C16     1.397   .     S
C15    C20     1.392   .     D
C15    C35     1.393   .     S
C16    C17     1.359   .     D
C16    H28     1.084   .     S
C17    C18     1.380   .     S
C17    H29     1.084   .     S
C18    C19     1.396   .     D
C18    N21     1.364   .     S
C19    C20     1.351   .     S
C19    H30     1.075   .     S
C20    H31     1.084   .     S
N21    C91     1.258   .     D
C22    C23     1.359   .     S
C22    H32     1.072   .     S
C22    C90     1.383   .     D
C23    C24     1.430   .     D
C23    S26     1.863   .     S
C24    C25     1.404   .     S
C24    C88     1.383   .     S
C25    H33     1.078   .     S
C25    N87     1.258   .     D
S26    C27     1.840   .     S
C27    H34     1.110   .     S
C35    N36     1.323   .     S
N36    C57     1.328   .     D
C37    C38     1.397   .     D
C37    C42     1.392   .     S
C37    C57     1.393   .     S
C38    C39     1.359   .     S
C38    H50     1.084   .     S
C39    C40     1.380   .     D
C39    H51     1.084   .     S
C40    C41     1.396   .     S
C40    N43     1.364   .     S
C41    C42     1.351   .     D
C41    H52     1.075   .     S
C42    H53     1.084   .     S
N43    C113    1.258   .     D
C44    C45     1.359   1_565 S
C44    H54     1.072   .     S
C44    C112    1.383   .     D
C45    C44     1.359   1_545 S
C45    C46     1.430   .     D
C45    S48     1.863   .     S
C46    C47     1.404   .     S
C46    C110    1.383   .     S
C47    H55     1.078   .     S
C47    N109    1.258   .     D
S48    C49     1.840   .     S
C49    H56     1.110   .     S
C57    N58     1.323   .     S
C59    C60     1.397   .     D
C59    C64     1.392   .     S
C60    C61     1.359   .     S
C60    H72     1.084   .     S
C61    C62     1.380   .     D
C61    H73     1.084   .     S
C62    C63     1.396   .     S
C62    N65     1.364   .     S
C63    C64     1.351   .     D
C63    H74     1.075   .     S
C64    H75     1.084   .     S
N65    C135    1.258   .     D
C66    C67     1.359   1_455 S
C66    H76     1.072   .     S
C66    C134    1.383   .     D
C67    C66     1.359   1_655 S
C67    C68     1.430   .     D
C67    S70     1.863   .     S
C68    C69     1.404   .     S
C68    C132    1.383   .     S
C69    H77     1.078   .     S
C69    N131    1.258   .     D
S70    C71     1.840   .     S
C71    H78     1.110   .     S
C79    N80     1.323   .     D
C79    N124    1.328   .     S
C79    C125    1.393   .     S
N80    C101    1.328   .     S
C81    C82     1.397   .     S
C81    C86     1.392   .     D
C81    C101    1.393   .     S
C82    C83     1.359   .     D
C82    H94     1.084   .     S
C83    C84     1.380   .     S
C83    H95     1.084   .     S
C84    C85     1.396   .     D
C84    N87     1.364   .     S
C85    C86     1.351   .     S
C85    H96     1.075   .     S
C86    H97     1.084   .     S
C88    C89     1.359   .     D
C88    H98     1.072   .     S
C89    C90     1.430   .     S
C89    S92     1.863   .     S
C90    C91     1.404   .     S
C91    H99     1.078   .     S
S92    C93     1.840   .     S
C93    H100    1.110   .     S
C101   N102    1.323   .     D
N102   C123    1.328   .     S
C103   C104    1.397   .     D
C103   C108    1.392   .     S
C103   C123    1.393   .     S
C104   C105    1.359   .     S
C104   H116    1.084   .     S
C105   C106    1.380   .     D
C105   H117    1.084   .     S
C106   C107    1.396   .     S
C106   N109    1.364   .     S
C107   C108    1.351   .     D
C107   H118    1.075   .     S
C108   H119    1.084   .     S
C110   C111    1.359   1_545 D
C110   H120    1.072   .     S
C111   C110    1.359   1_565 D
C111   C112    1.430   .     S
C111   S114    1.863   .     S
C112   C113    1.404   .     S
C113   H121    1.078   .     S
S114   C115    1.840   .     S
C115   H122    1.110   .     S
C123   N124    1.323   .     D
C125   C126    1.397   .     D
C125   C130    1.392   .     S
C126   C127    1.359   .     S
C126   H138    1.084   .     S
C127   C128    1.380   .     D
C127   H139    1.084   .     S
C128   C129    1.396   .     S
C128   N131    1.364   .     S
C129   C130    1.351   .     D
C129   H140    1.075   .     S
C130   H141    1.084   .     S
C132   C133    1.359   1_655 D
C132   H142    1.072   .     S
C133   C132    1.359   1_455 D
C133   C134    1.430   .     S
C133   S136    1.863   .     S
C134   C135    1.404   .     S
C135   H143    1.078   .     S
S136   C137    1.840   .     S
C137   H144    1.110   .     S
