data_456
_audit_creation_date              2023-09-08
_audit_creation_method            'Materials Studio'
_symmetry_space_group_name_H-M    'P1'
_symmetry_Int_Tables_number       1
_symmetry_cell_setting            triclinic
loop_
_symmetry_equiv_pos_as_xyz
  x,y,z
_cell_length_a                    18.7121
_cell_length_b                    18.7121
_cell_length_c                    6.8832
_cell_angle_alpha                 90.0000
_cell_angle_beta                  90.0000
_cell_angle_gamma                 120.0000
loop_
_atom_site_label
_atom_site_type_symbol
_atom_site_fract_x
_atom_site_fract_y
_atom_site_fract_z
_atom_site_U_iso_or_equiv
_atom_site_adp_type
_atom_site_occupancy
C1     C     0.95049  -0.07593  -0.02620   0.00000  Uiso   1.00
N2     N     1.03419  -0.03042  -0.02620   0.00000  Uiso   1.00
C3     C     0.89498   0.08917  -0.02620   0.00000  Uiso   1.00
C4     C     0.93421   0.17578  -0.02620   0.00000  Uiso   1.00
C5     C     0.88794   0.21567  -0.02620   0.00000  Uiso   1.00
C6     C     0.80106   0.16944  -0.02620   0.00000  Uiso   1.00
C7     C     0.76212   0.08325  -0.02620   0.00000  Uiso   1.00
C8     C     0.80831   0.04333  -0.02620   0.00000  Uiso   1.00
N9     N     0.74974   0.20649  -0.02620   0.00000  Uiso   1.00
C10    C     0.77379   0.28477  -0.02620   0.00000  Uiso   1.00
C11    C     0.71293   0.31307  -0.02620   0.00000  Uiso   1.00
C12    C     0.62769   0.25668  -0.02620   0.00000  Uiso   1.00
H13    H     1.00086   0.21303  -0.02620   0.00000  Uiso   1.00
H14    H     0.92106   0.28224  -0.02620   0.00000  Uiso   1.00
H15    H     0.69540   0.04676  -0.02620   0.00000  Uiso   1.00
H16    H     0.77595  -0.02346  -0.02620   0.00000  Uiso   1.00
H17    H     0.83849   0.33088  -0.02620   0.00000  Uiso   1.00
H18    H     0.60543   0.19095  -0.02620   0.00000  Uiso   1.00
C19    C     1.07338   0.05333  -0.02620   0.00000  Uiso   1.00
N20    N     1.02787   0.09152  -0.02620   0.00000  Uiso   1.00
C21    C     0.90828  -0.16727  -0.02620   0.00000  Uiso   1.00
C22    C     0.82167  -0.21466  -0.02620   0.00000  Uiso   1.00
C23    C     0.78177  -0.30082  -0.02620   0.00000  Uiso   1.00
C24    C     0.82800   0.65853  -0.02620   0.00000  Uiso   1.00
C25    C     0.91420  -0.29421  -0.02620   0.00000  Uiso   1.00
C26    C     0.95412  -0.20811  -0.02620   0.00000  Uiso   1.00
N27    N     0.79096   0.57016  -0.02620   0.00000  Uiso   1.00
C28    C     0.71268   0.51593  -0.02620   0.00000  Uiso   1.00
C29    C     0.68438   0.42678  -0.02620   0.00000  Uiso   1.00
C30    C     0.74077   0.39792  -0.02620   0.00000  Uiso   1.00
H31    H     0.78442  -0.18525  -0.02620   0.00000  Uiso   1.00
H32    H     0.71521   0.66573  -0.02620   0.00000  Uiso   1.00
H33    H     0.95068  -0.32445  -0.02620   0.00000  Uiso   1.00
H34    H     1.02091  -0.17368  -0.02620   0.00000  Uiso   1.00
H35    H     0.66657   0.53453  -0.02620   0.00000  Uiso   1.00
H36    H     0.80650   0.44140  -0.02620   0.00000  Uiso   1.00
C37    C     0.94412   0.04696  -0.02620   0.00000  Uiso   1.00
N38    N     0.90592  -0.03674  -0.02620   0.00000  Uiso   1.00
C39    C     1.16472   0.10247  -0.02620   0.00000  Uiso   1.00
C40    C     1.21211   0.06324  -0.02620   0.00000  Uiso   1.00
C41    C     1.29827   0.10951  -0.02620   0.00000  Uiso   1.00
C42    C     0.33892   0.19639  -0.02620   0.00000  Uiso   1.00
C43    C     1.29166   0.23532  -0.02620   0.00000  Uiso   1.00
C44    C     1.20556   0.18914  -0.02620   0.00000  Uiso   1.00
N45    N     0.42728   0.24771  -0.02620   0.00000  Uiso   1.00
C46    C     0.48152   0.22366  -0.02620   0.00000  Uiso   1.00
C47    C     0.57067   0.28452  -0.02620   0.00000  Uiso   1.00
C48    C     0.59953   0.36976  -0.02620   0.00000  Uiso   1.00
H49    H     1.18270  -0.00342  -0.02620   0.00000  Uiso   1.00
H50    H     0.33172   0.07639  -0.02620   0.00000  Uiso   1.00
H51    H     1.32190   0.30205  -0.02620   0.00000  Uiso   1.00
H52    H     1.17113   0.22150  -0.02620   0.00000  Uiso   1.00
H53    H     0.46292   0.15896  -0.02620   0.00000  Uiso   1.00
H54    H     0.55605   0.39201  -0.02620   0.00000  Uiso   1.00
C55    C     0.62783   0.24928   0.50000   0.00000  Uiso   1.00
N56    N     0.71153   0.29479   0.50000   0.00000  Uiso   1.00
C57    C     0.57232   0.41438   0.50000   0.00000  Uiso   1.00
C58    C     0.61155   0.50099   0.50000   0.00000  Uiso   1.00
C59    C     0.56528   0.54089   0.50000   0.00000  Uiso   1.00
C60    C     0.47840   0.49466   0.50000   0.00000  Uiso   1.00
C61    C     0.43946   0.40846   0.50000   0.00000  Uiso   1.00
C62    C     0.48565   0.36855   0.50000   0.00000  Uiso   1.00
N63    N     0.42708   0.53170   0.50000   0.00000  Uiso   1.00
C64    C     0.45112   0.60998   0.50000   0.00000  Uiso   1.00
C65    C     0.39027   0.63828   0.50000   0.00000  Uiso   1.00
C66    C     0.30502   0.58189   0.50000   0.00000  Uiso   1.00
H67    H     0.67820   0.53824   0.50000   0.00000  Uiso   1.00
H68    H     0.59840   0.60745   0.50000   0.00000  Uiso   1.00
H69    H     0.37274   0.37198   0.50000   0.00000  Uiso   1.00
H70    H     0.45328   0.30175   0.50000   0.00000  Uiso   1.00
H71    H     0.51583   0.65609   0.50000   0.00000  Uiso   1.00
H72    H     0.28277   0.51616   0.50000   0.00000  Uiso   1.00
C73    C     0.75072   0.37855   0.50000   0.00000  Uiso   1.00
N74    N     0.70521   0.41674   0.50000   0.00000  Uiso   1.00
C75    C     0.58562   0.15794   0.50000   0.00000  Uiso   1.00
C76    C     0.49901   0.11055   0.50000   0.00000  Uiso   1.00
C77    C     0.45911   0.02439   0.50000   0.00000  Uiso   1.00
C78    C     0.50534   0.98374   0.50000   0.00000  Uiso   1.00
C79    C     0.59154   0.03100   0.50000   0.00000  Uiso   1.00
C80    C     0.63145   0.11710   0.50000   0.00000  Uiso   1.00
N81    N     0.46830   0.89538   0.50000   0.00000  Uiso   1.00
C82    C     0.39002   0.84114   0.50000   0.00000  Uiso   1.00
C83    C     0.36172   0.75199   0.50000   0.00000  Uiso   1.00
C84    C     0.41811   0.72314   0.50000   0.00000  Uiso   1.00
H85    H     0.46176   0.13996   0.50000   0.00000  Uiso   1.00
H86    H     0.39255   0.99094   0.50000   0.00000  Uiso   1.00
H87    H     0.62802   0.00076   0.50000   0.00000  Uiso   1.00
H88    H     0.69825   0.15153   0.50000   0.00000  Uiso   1.00
H89    H     0.34391   0.85974   0.50000   0.00000  Uiso   1.00
H90    H     0.48384   0.76661   0.50000   0.00000  Uiso   1.00
C91    C     0.62145   0.37217   0.50000   0.00000  Uiso   1.00
N92    N     0.58326   0.28847   0.50000   0.00000  Uiso   1.00
C93    C     0.84206   0.42768   0.50000   0.00000  Uiso   1.00
C94    C     0.88945   0.38845   0.50000   0.00000  Uiso   1.00
C95    C     0.97561   0.43472   0.50000   0.00000  Uiso   1.00
C96    C     0.01626   0.52160   0.50000   0.00000  Uiso   1.00
C97    C     0.96900   0.56054   0.50000   0.00000  Uiso   1.00
C98    C     0.88290   0.51435   0.50000   0.00000  Uiso   1.00
N99    N     0.10462   0.57292   0.50000   0.00000  Uiso   1.00
C100   C     0.15886   0.54888   0.50000   0.00000  Uiso   1.00
C101   C     0.24801   0.60973   0.50000   0.00000  Uiso   1.00
C102   C     0.27686   0.69498   0.50000   0.00000  Uiso   1.00
H103   H     0.86004   0.32180   0.50000   0.00000  Uiso   1.00
H104   H     0.00906   0.40160   0.50000   0.00000  Uiso   1.00
H105   H     0.99924   0.62726   0.50000   0.00000  Uiso   1.00
H106   H     0.84847   0.54672   0.50000   0.00000  Uiso   1.00
H107   H     0.14026   0.48417   0.50000   0.00000  Uiso   1.00
H108   H     0.23339   0.71723   0.50000   0.00000  Uiso   1.00
loop_
_geom_bond_atom_site_label_1
_geom_bond_atom_site_label_2
_geom_bond_distance
_geom_bond_site_symmetry_2
_ccdc_geom_bond_type
C1     N2      1.358   .     D
C1     C21     1.482   .     S
C1     N38     1.358   .     S
N2     C19     1.358   .     S
C3     C4      1.406   .     D
C3     C8      1.405   .     S
C3     C37     1.482   .     S
C4     C5      1.398   .     S
C4     H13     1.083   .     S
C5     C6      1.409   .     D
C5     H14     1.079   .     S
C6     C7      1.399   .     S
C6     N9      1.438   .     S
C7     C8      1.397   .     D
C7     H15     1.083   .     S
C8     H16     1.083   .     S
N9     C10     1.300   .     D
C10    C11     1.477   .     S
C10    H17     1.080   .     S
C11    C12     1.405   .     S
C11    C30     1.402   .     D
C12    H18     1.083   .     S
C12    C47     1.402   .     D
C19    N20     1.358   .     D
C19    C39     1.482   .     S
N20    C37     1.358   .     S
C21    C22     1.406   .     D
C21    C26     1.405   .     S
C22    C23     1.398   .     S
C22    H31     1.083   .     S
C23    C24     1.409   1_545 D
C23    H32     1.079   1_545 S
C24    C23     1.409   1_565 D
C24    C25     1.399   1_565 S
C24    N27     1.438   .     S
C25    C24     1.399   1_545 S
C25    C26     1.396   .     D
C25    H33     1.083   .     S
C26    H34     1.083   .     S
N27    C28     1.300   .     D
C28    C29     1.476   .     S
C28    H35     1.080   .     S
C29    C30     1.405   .     S
C29    C48     1.402   .     D
C30    H36     1.084   .     S
H32    C23     1.079   1_565 S
C37    N38     1.358   .     D
C39    C40     1.406   .     D
C39    C44     1.405   .     S
C40    C41     1.398   .     S
C40    H49     1.083   .     S
C41    C42     1.409   1_655 D
C41    H50     1.079   1_655 S
C42    C41     1.409   1_455 D
C42    C43     1.399   1_455 S
C42    N45     1.438   .     S
C43    C42     1.399   1_655 S
C43    C44     1.396   .     D
C43    H51     1.083   .     S
C44    H52     1.083   .     S
N45    C46     1.300   .     D
C46    C47     1.476   .     S
C46    H53     1.080   .     S
C47    C48     1.405   .     S
C48    H54     1.084   .     S
H50    C41     1.079   1_455 S
C55    N56     1.358   .     S
C55    C75     1.482   .     S
C55    N92     1.358   .     D
N56    C73     1.358   .     D
C57    C58     1.406   .     D
C57    C62     1.405   .     S
C57    C91     1.482   .     S
C58    C59     1.398   .     S
C58    H67     1.083   .     S
C59    C60     1.409   .     D
C59    H68     1.079   .     S
C60    C61     1.399   .     S
C60    N63     1.438   .     S
C61    C62     1.397   .     D
C61    H69     1.083   .     S
C62    H70     1.083   .     S
N63    C64     1.300   .     D
C64    C65     1.476   .     S
C64    H71     1.080   .     S
C65    C66     1.405   .     S
C65    C84     1.402   .     D
C66    H72     1.084   .     S
C66    C101    1.402   .     D
C73    N74     1.358   .     S
C73    C93     1.482   .     S
N74    C91     1.358   .     D
C75    C76     1.406   .     S
C75    C80     1.405   .     D
C76    C77     1.398   .     D
C76    H85     1.083   .     S
C77    C78     1.409   1_545 S
C77    H86     1.079   1_545 S
C78    C77     1.409   1_565 S
C78    C79     1.399   1_565 D
C78    N81     1.438   .     S
C79    C78     1.399   1_545 D
C79    C80     1.397   .     S
C79    H87     1.083   .     S
C80    H88     1.083   .     S
N81    C82     1.300   .     D
C82    C83     1.476   .     S
C82    H89     1.080   .     S
C83    C84     1.405   .     S
C83    C102    1.402   .     D
C84    H90     1.083   .     S
H86    C77     1.079   1_565 S
C91    N92     1.358   .     S
C93    C94     1.406   .     D
C93    C98     1.405   .     S
C94    C95     1.398   .     S
C94    H103    1.083   .     S
C95    C96     1.409   1_655 D
C95    H104    1.079   1_655 S
C96    C95     1.409   1_455 D
C96    C97     1.399   1_455 S
C96    N99     1.438   .     S
C97    C96     1.399   1_655 S
C97    C98     1.397   .     D
C97    H105    1.083   .     S
C98    H106    1.083   .     S
N99    C100    1.300   .     D
C100   C101    1.476   .     S
C100   H107    1.080   .     S
C101   C102    1.405   .     S
C102   H108    1.083   .     S
H104   C95     1.079   1_455 S
