data_457
_audit_creation_date              2023-09-08
_audit_creation_method            'Materials Studio'
_symmetry_space_group_name_H-M    'P1'
_symmetry_Int_Tables_number       1
_symmetry_cell_setting            triclinic
loop_
_symmetry_equiv_pos_as_xyz
  x,y,z
_cell_length_a                    37.1453
_cell_length_b                    37.1453
_cell_length_c                    3.4951
_cell_angle_alpha                 90.0000
_cell_angle_beta                  90.0000
_cell_angle_gamma                 120.0000
loop_
_atom_site_label
_atom_site_type_symbol
_atom_site_fract_x
_atom_site_fract_y
_atom_site_fract_z
_atom_site_U_iso_or_equiv
_atom_site_adp_type
_atom_site_occupancy
C1     C     0.29220   0.64329   0.49211   0.00000  Uiso   1.00
N2     N     0.31502   0.62426   0.49198   0.00000  Uiso   1.00
C3     C     0.24645   0.61732   0.49533   0.00000  Uiso   1.00
C4     C     0.36498   0.58628   0.42002   0.00000  Uiso   1.00
C5     C     0.38917   0.56728   0.42527   0.00000  Uiso   1.00
C6     C     0.43207   0.59090   0.51263   0.00000  Uiso   1.00
C7     C     0.45002   0.63402   0.58076   0.00000  Uiso   1.00
C8     C     0.42563   0.65278   0.57325   0.00000  Uiso   1.00
N9     N     0.45873   0.57437   0.51900   0.00000  Uiso   1.00
C10    C     0.44612   0.53560   0.58708   0.00000  Uiso   1.00
C11    C     0.47434   0.51882   0.58307   0.00000  Uiso   1.00
C12    C     0.45677   0.47516   0.58808   0.00000  Uiso   1.00
C13    C     0.48135   0.45625   0.58038   0.00000  Uiso   1.00
H14    H     0.33161   0.56781   0.35218   0.00000  Uiso   1.00
H15    H     0.37467   0.53402   0.35473   0.00000  Uiso   1.00
H16    H     0.48338   0.65255   0.64811   0.00000  Uiso   1.00
H17    H     0.43973   0.68629   0.63103   0.00000  Uiso   1.00
H18    H     0.41275   0.51260   0.65553   0.00000  Uiso   1.00
O19    O     0.46061   0.41369   0.57763   0.00000  Uiso   1.00
H20    H     0.57724   0.54494   0.59034   0.00000  Uiso   1.00
H21    H     0.51959   0.59677   0.57403   0.00000  Uiso   1.00
C22    C     0.35671   0.64891   0.49211   0.00000  Uiso   1.00
N23    N     0.37574   0.69076   0.49198   0.00000  Uiso   1.00
C24    C     0.38268   0.62913   0.49533   0.00000  Uiso   1.00
C25    C     0.41372   0.77870   0.42002   0.00000  Uiso   1.00
C26    C     0.43272   0.82189   0.42527   0.00000  Uiso   1.00
C27    C     0.40910   0.84117   0.51263   0.00000  Uiso   1.00
C28    C     0.36598   0.81600   0.58076   0.00000  Uiso   1.00
C29    C     0.34722   0.77285   0.57325   0.00000  Uiso   1.00
N30    N     0.42563   0.88436   0.51900   0.00000  Uiso   1.00
C31    C     0.46440   0.91052   0.58708   0.00000  Uiso   1.00
C32    C     0.48118   0.95552   0.58307   0.00000  Uiso   1.00
C33    C     0.52484   0.98161   0.58808   0.00000  Uiso   1.00
C34    C     0.54375   0.02510   0.58038   0.00000  Uiso   1.00
H35    H     0.43219   0.76380   0.35218   0.00000  Uiso   1.00
H36    H     0.46598   0.84065   0.35473   0.00000  Uiso   1.00
H37    H     0.34745   0.83083   0.64811   0.00000  Uiso   1.00
H38    H     0.31371   0.75344   0.63103   0.00000  Uiso   1.00
H39    H     0.48740   0.90015   0.65553   0.00000  Uiso   1.00
O40    O     0.58631   0.04692   0.57763   0.00000  Uiso   1.00
H41    H     0.45506   0.03230   0.59034   0.00000  Uiso   1.00
H42    H     0.40323   0.92282   0.57403   0.00000  Uiso   1.00
C43    C     0.35109   0.70780   0.49211   0.00000  Uiso   1.00
N44    N     0.30924   0.68498   0.49198   0.00000  Uiso   1.00
C45    C     0.37087   0.75355   0.49533   0.00000  Uiso   1.00
C46    C     0.22130   0.63502   0.42002   0.00000  Uiso   1.00
C47    C     0.17811   0.61083   0.42527   0.00000  Uiso   1.00
C48    C     0.15883   0.56793   0.51263   0.00000  Uiso   1.00
C49    C     0.18400   0.54998   0.58076   0.00000  Uiso   1.00
C50    C     0.22715   0.57437   0.57325   0.00000  Uiso   1.00
N51    N     0.11564   0.54127   0.51900   0.00000  Uiso   1.00
C52    C     0.08948   0.55388   0.58708   0.00000  Uiso   1.00
C53    C     0.04448   0.52566   0.58307   0.00000  Uiso   1.00
C54    C     0.01839   0.54323   0.58808   0.00000  Uiso   1.00
C55    C     0.97490   0.51865   0.58038   0.00000  Uiso   1.00
H56    H     0.23620   0.66839   0.35218   0.00000  Uiso   1.00
H57    H     0.15935   0.62533   0.35473   0.00000  Uiso   1.00
H58    H     0.16917   0.51662   0.64811   0.00000  Uiso   1.00
H59    H     0.24656   0.56027   0.63103   0.00000  Uiso   1.00
H60    H     0.09985   0.58725   0.65553   0.00000  Uiso   1.00
O61    O     0.95308   0.53939   0.57763   0.00000  Uiso   1.00
H62    H     0.96770   0.42276   0.59034   0.00000  Uiso   1.00
H63    H     0.07718   0.48041   0.57403   0.00000  Uiso   1.00
C64    C     0.70780   0.35671   0.49211   0.00000  Uiso   1.00
N65    N     0.68498   0.37574   0.49198   0.00000  Uiso   1.00
C66    C     0.75355   0.38268   0.49533   0.00000  Uiso   1.00
C67    C     0.63502   0.41372   0.42002   0.00000  Uiso   1.00
C68    C     0.61083   0.43272   0.42527   0.00000  Uiso   1.00
C69    C     0.56793   0.40910   0.51263   0.00000  Uiso   1.00
C70    C     0.54998   0.36598   0.58076   0.00000  Uiso   1.00
C71    C     0.57437   0.34722   0.57325   0.00000  Uiso   1.00
N72    N     0.54127   0.42563   0.51900   0.00000  Uiso   1.00
C73    C     0.55388   0.46440   0.58708   0.00000  Uiso   1.00
C74    C     0.52566   0.48118   0.58307   0.00000  Uiso   1.00
C75    C     0.54323   0.52484   0.58808   0.00000  Uiso   1.00
C76    C     0.51865   0.54375   0.58038   0.00000  Uiso   1.00
H77    H     0.66839   0.43219   0.35218   0.00000  Uiso   1.00
H78    H     0.62533   0.46598   0.35473   0.00000  Uiso   1.00
H79    H     0.51662   0.34745   0.64811   0.00000  Uiso   1.00
H80    H     0.56027   0.31371   0.63103   0.00000  Uiso   1.00
H81    H     0.58725   0.48740   0.65553   0.00000  Uiso   1.00
O82    O     0.53939   0.58631   0.57763   0.00000  Uiso   1.00
H83    H     0.42276   0.45506   0.59034   0.00000  Uiso   1.00
H84    H     0.48041   0.40323   0.57403   0.00000  Uiso   1.00
C85    C     0.64329   0.35109   0.49211   0.00000  Uiso   1.00
N86    N     0.62426   0.30924   0.49198   0.00000  Uiso   1.00
C87    C     0.61732   0.37087   0.49533   0.00000  Uiso   1.00
C88    C     0.58628   0.22130   0.42002   0.00000  Uiso   1.00
C89    C     0.56728   0.17811   0.42527   0.00000  Uiso   1.00
C90    C     0.59090   0.15883   0.51263   0.00000  Uiso   1.00
C91    C     0.63402   0.18400   0.58076   0.00000  Uiso   1.00
C92    C     0.65278   0.22715   0.57325   0.00000  Uiso   1.00
N93    N     0.57437   0.11564   0.51900   0.00000  Uiso   1.00
C94    C     0.53560   0.08948   0.58708   0.00000  Uiso   1.00
C95    C     0.51882   0.04448   0.58307   0.00000  Uiso   1.00
C96    C     0.47516   0.01839   0.58808   0.00000  Uiso   1.00
C97    C     0.45625   0.97490   0.58038   0.00000  Uiso   1.00
H98    H     0.56781   0.23620   0.35218   0.00000  Uiso   1.00
H99    H     0.53402   0.15935   0.35473   0.00000  Uiso   1.00
H100   H     0.65255   0.16917   0.64811   0.00000  Uiso   1.00
H101   H     0.68629   0.24656   0.63103   0.00000  Uiso   1.00
H102   H     0.51260   0.09985   0.65553   0.00000  Uiso   1.00
O103   O     0.41369   0.95308   0.57763   0.00000  Uiso   1.00
H104   H     0.54494   0.96770   0.59034   0.00000  Uiso   1.00
H105   H     0.59677   0.07718   0.57403   0.00000  Uiso   1.00
C106   C     0.64891   0.29220   0.49211   0.00000  Uiso   1.00
N107   N     0.69076   0.31502   0.49198   0.00000  Uiso   1.00
C108   C     0.62913   0.24645   0.49533   0.00000  Uiso   1.00
C109   C     0.77870   0.36498   0.42002   0.00000  Uiso   1.00
C110   C     0.82189   0.38917   0.42527   0.00000  Uiso   1.00
C111   C     0.84117   0.43207   0.51263   0.00000  Uiso   1.00
C112   C     0.81600   0.45002   0.58076   0.00000  Uiso   1.00
C113   C     0.77285   0.42563   0.57325   0.00000  Uiso   1.00
N114   N     0.88436   0.45873   0.51900   0.00000  Uiso   1.00
C115   C     0.91052   0.44612   0.58708   0.00000  Uiso   1.00
C116   C     0.95552   0.47434   0.58307   0.00000  Uiso   1.00
C117   C     0.98161   0.45677   0.58808   0.00000  Uiso   1.00
C118   C     0.02510   0.48135   0.58038   0.00000  Uiso   1.00
H119   H     0.76380   0.33161   0.35218   0.00000  Uiso   1.00
H120   H     0.84065   0.37467   0.35473   0.00000  Uiso   1.00
H121   H     0.83083   0.48338   0.64811   0.00000  Uiso   1.00
H122   H     0.75344   0.43973   0.63103   0.00000  Uiso   1.00
H123   H     0.90015   0.41275   0.65553   0.00000  Uiso   1.00
O124   O     0.04692   0.46061   0.57763   0.00000  Uiso   1.00
H125   H     0.03230   0.57724   0.59034   0.00000  Uiso   1.00
H126   H     0.92282   0.51959   0.57403   0.00000  Uiso   1.00
loop_
_geom_bond_atom_site_label_1
_geom_bond_atom_site_label_2
_geom_bond_distance
_geom_bond_site_symmetry_2
_ccdc_geom_bond_type
C1     N2      1.348   .     S
C1     C3      1.476   .     S
C1     N44     1.349   .     D
N2     C22     1.349   .     D
C3     C46     1.410   .     S
C3     C50     1.411   .     D
C4     C5      1.393   .     S
C4     H14     1.101   .     S
C4     C24     1.410   .     D
C5     C6      1.416   .     D
C5     H15     1.101   .     S
C6     C7      1.414   .     S
C6     N9      1.402   .     S
C7     C8      1.392   .     D
C7     H16     1.101   .     S
C8     H17     1.101   .     S
C8     C24     1.411   .     S
N9     C10     1.294   .     D
C10    C11     1.463   .     S
C10    H18     1.125   .     S
C11    C12     1.413   .     D
C11    C76     1.429   .     S
C12    C13     1.403   .     S
C12    H83     1.100   .     S
C13    O19     1.369   .     S
C13    C74     1.429   .     D
O19    H84     0.989   .     S
H20    C75     1.100   .     S
H21    O82     0.989   .     S
C22    N23     1.348   .     S
C22    C24     1.476   .     S
N23    C43     1.349   .     D
C25    C26     1.393   .     S
C25    H35     1.101   .     S
C25    C45     1.410   .     D
C26    C27     1.416   .     D
C26    H36     1.101   .     S
C27    C28     1.414   .     S
C27    N30     1.402   .     S
C28    C29     1.392   .     D
C28    H37     1.101   .     S
C29    H38     1.101   .     S
C29    C45     1.411   .     S
N30    C31     1.294   .     D
C31    C32     1.463   .     S
C31    H39     1.125   .     S
C32    C33     1.413   .     D
C32    C97     1.429   .     S
C33    C34     1.403   1_565 S
C33    H104    1.100   .     S
C34    C33     1.403   1_545 S
C34    O40     1.369   .     S
C34    C95     1.429   .     D
O40    H105    0.989   .     S
H41    C96     1.100   .     S
H42    O103    0.989   .     S
C43    N44     1.348   .     S
C43    C45     1.476   .     S
C46    C47     1.393   .     D
C46    H56     1.101   .     S
C47    C48     1.416   .     S
C47    H57     1.101   .     S
C48    C49     1.414   .     D
C48    N51     1.402   .     S
C49    C50     1.392   .     S
C49    H58     1.101   .     S
C50    H59     1.101   .     S
N51    C52     1.294   .     D
C52    C53     1.463   .     S
C52    H60     1.125   .     S
C53    C54     1.413   .     S
C53    C118    1.429   .     D
C54    C55     1.403   1_455 D
C54    H125    1.100   .     S
C55    C54     1.403   1_655 D
C55    O61     1.369   .     S
C55    C116    1.429   .     S
O61    H126    0.989   .     S
H62    C117    1.100   .     S
H63    O124    0.989   .     S
C64    N65     1.348   .     S
C64    C66     1.476   .     S
C64    N107    1.349   .     D
N65    C85     1.349   .     D
C66    C109    1.410   .     S
C66    C113    1.411   .     D
C67    C68     1.393   .     S
C67    H77     1.101   .     S
C67    C87     1.410   .     D
C68    C69     1.416   .     D
C68    H78     1.101   .     S
C69    C70     1.414   .     S
C69    N72     1.402   .     S
C70    C71     1.392   .     D
C70    H79     1.101   .     S
C71    H80     1.101   .     S
C71    C87     1.411   .     S
N72    C73     1.294   .     D
C73    C74     1.463   .     S
C73    H81     1.125   .     S
C74    C75     1.413   .     S
C75    C76     1.403   .     D
C76    O82     1.369   .     S
C85    N86     1.348   .     S
C85    C87     1.476   .     S
N86    C106    1.349   .     D
C88    C89     1.393   .     S
C88    H98     1.101   .     S
C88    C108    1.410   .     D
C89    C90     1.416   .     D
C89    H99     1.101   .     S
C90    C91     1.414   .     S
C90    N93     1.402   .     S
C91    C92     1.392   .     D
C91    H100    1.101   .     S
C92    H101    1.101   .     S
C92    C108    1.411   .     S
N93    C94     1.294   .     D
C94    C95     1.463   .     S
C94    H102    1.125   .     S
C95    C96     1.413   .     S
C96    C97     1.403   1_545 D
C97    C96     1.403   1_565 D
C97    O103    1.369   .     S
C106   N107    1.348   .     S
C106   C108    1.476   .     S
C109   C110    1.393   .     D
C109   H119    1.101   .     S
C110   C111    1.416   .     S
C110   H120    1.101   .     S
C111   C112    1.414   .     D
C111   N114    1.402   .     S
C112   C113    1.392   .     S
C112   H121    1.101   .     S
C113   H122    1.101   .     S
N114   C115    1.294   .     D
C115   C116    1.463   .     S
C115   H123    1.125   .     S
C116   C117    1.413   .     D
C117   C118    1.403   1_655 S
C118   C117    1.403   1_455 S
C118   O124    1.369   .     S
