data_458
_audit_creation_date              2023-09-08
_audit_creation_method            'Materials Studio'
_symmetry_space_group_name_H-M    'P1'
_symmetry_Int_Tables_number       1
_symmetry_cell_setting            triclinic
loop_
_symmetry_equiv_pos_as_xyz
  x,y,z
_cell_length_a                    35.9183
_cell_length_b                    35.9183
_cell_length_c                    4.0536
_cell_angle_alpha                 90.0000
_cell_angle_beta                  90.0000
_cell_angle_gamma                 120.0000
loop_
_atom_site_label
_atom_site_type_symbol
_atom_site_fract_x
_atom_site_fract_y
_atom_site_fract_z
_atom_site_U_iso_or_equiv
_atom_site_adp_type
_atom_site_occupancy
C1     C     0.76957   0.44731   0.32778   0.00000  Uiso   1.00
C2     C     0.74925   0.40370   0.41581   0.00000  Uiso   1.00
C3     C     0.77382   0.38456   0.48640   0.00000  Uiso   1.00
C4     C     0.81903   0.41020   0.51263   0.00000  Uiso   1.00
C5     C     0.84013   0.45459   0.43394   0.00000  Uiso   1.00
C6     C     0.81462   0.47260   0.33772   0.00000  Uiso   1.00
C7     C     0.88523   0.48076   0.44412   0.00000  Uiso   1.00
N8     N     0.91127   0.46399   0.48601   0.00000  Uiso   1.00
C9     C     0.95469   0.48301   0.49650   0.00000  Uiso   1.00
H10    H     0.83664   0.39679   0.59005   0.00000  Uiso   1.00
H11    H     0.82858   0.50435   0.27308   0.00000  Uiso   1.00
C12    C     0.70614   0.37205   0.44850   0.00000  Uiso   1.00
C13    C     0.70614   0.33282   0.46847   0.00000  Uiso   1.00
N14    N     0.74732   0.34174   0.53171   0.00000  Uiso   1.00
C15    C     0.76151   0.31442   0.68179   0.00000  Uiso   1.00
C16    C     0.79354   0.30433   0.49968   0.00000  Uiso   1.00
H17    H     0.75223   0.46070   0.25178   0.00000  Uiso   1.00
H18    H     0.73418   0.28431   0.76081   0.00000  Uiso   1.00
H19    H     0.77746   0.33083   0.90866   0.00000  Uiso   1.00
H20    H     0.80645   0.29057   0.67463   0.00000  Uiso   1.00
H21    H     0.82046   0.33282   0.39296   0.00000  Uiso   1.00
H22    H     0.77822   0.28105   0.30328   0.00000  Uiso   1.00
C23    C     0.97202   0.45540   0.50086   0.00000  Uiso   1.00
C24    C     0.01676   0.47208   0.50027   0.00000  Uiso   1.00
H25    H     0.89854   0.51319   0.41203   0.00000  Uiso   1.00
H26    H     0.95208   0.42274   0.50209   0.00000  Uiso   1.00
H27    H     0.02804   0.45103   0.50207   0.00000  Uiso   1.00
C28    C     0.55269   0.32226   0.32778   0.00000  Uiso   1.00
C29    C     0.59630   0.34555   0.41581   0.00000  Uiso   1.00
C30    C     0.61544   0.38926   0.48640   0.00000  Uiso   1.00
C31    C     0.58980   0.40883   0.51263   0.00000  Uiso   1.00
C32    C     0.54541   0.38554   0.43394   0.00000  Uiso   1.00
C33    C     0.52740   0.34202   0.33772   0.00000  Uiso   1.00
C34    C     0.51924   0.40447   0.44412   0.00000  Uiso   1.00
N35    N     0.53601   0.44728   0.48601   0.00000  Uiso   1.00
C36    C     0.51699   0.47168   0.49650   0.00000  Uiso   1.00
H37    H     0.60321   0.43985   0.59005   0.00000  Uiso   1.00
H38    H     0.49565   0.32423   0.27308   0.00000  Uiso   1.00
C39    C     0.62795   0.33409   0.44850   0.00000  Uiso   1.00
C40    C     0.66718   0.37332   0.46847   0.00000  Uiso   1.00
N41    N     0.65826   0.40558   0.53171   0.00000  Uiso   1.00
C42    C     0.68558   0.44709   0.68179   0.00000  Uiso   1.00
C43    C     0.69567   0.48921   0.49968   0.00000  Uiso   1.00
H44    H     0.53930   0.29153   0.25178   0.00000  Uiso   1.00
H45    H     0.71569   0.44987   0.76081   0.00000  Uiso   1.00
H46    H     0.66917   0.44663   0.90866   0.00000  Uiso   1.00
H47    H     0.70943   0.51588   0.67463   0.00000  Uiso   1.00
H48    H     0.66718   0.48764   0.39296   0.00000  Uiso   1.00
H49    H     0.71895   0.49717   0.30328   0.00000  Uiso   1.00
C50    C     0.54460   0.51662   0.50086   0.00000  Uiso   1.00
C51    C     0.52792   0.54468   0.50027   0.00000  Uiso   1.00
H52    H     0.48681   0.38535   0.41203   0.00000  Uiso   1.00
H53    H     0.57726   0.52934   0.50209   0.00000  Uiso   1.00
H54    H     0.54897   0.57701   0.50207   0.00000  Uiso   1.00
C55    C     0.67774   0.23043   0.32778   0.00000  Uiso   1.00
C56    C     0.65445   0.25075   0.41581   0.00000  Uiso   1.00
C57    C     0.61074   0.22618   0.48640   0.00000  Uiso   1.00
C58    C     0.59117   0.18097   0.51263   0.00000  Uiso   1.00
C59    C     0.61446   0.15987   0.43394   0.00000  Uiso   1.00
C60    C     0.65798   0.18538   0.33772   0.00000  Uiso   1.00
C61    C     0.59553   0.11477   0.44412   0.00000  Uiso   1.00
N62    N     0.55272   0.08873   0.48601   0.00000  Uiso   1.00
C63    C     0.52832   0.04531   0.49650   0.00000  Uiso   1.00
H64    H     0.56015   0.16336   0.59005   0.00000  Uiso   1.00
H65    H     0.67577   0.17142   0.27308   0.00000  Uiso   1.00
C66    C     0.66591   0.29386   0.44850   0.00000  Uiso   1.00
C67    C     0.62668   0.29386   0.46847   0.00000  Uiso   1.00
N68    N     0.59442   0.25268   0.53171   0.00000  Uiso   1.00
C69    C     0.55291   0.23849   0.68179   0.00000  Uiso   1.00
C70    C     0.51079   0.20646   0.49968   0.00000  Uiso   1.00
H71    H     0.70847   0.24777   0.25178   0.00000  Uiso   1.00
H72    H     0.55013   0.26582   0.76081   0.00000  Uiso   1.00
H73    H     0.55337   0.22254   0.90866   0.00000  Uiso   1.00
H74    H     0.48412   0.19355   0.67463   0.00000  Uiso   1.00
H75    H     0.51236   0.17954   0.39296   0.00000  Uiso   1.00
H76    H     0.50283   0.22178   0.30328   0.00000  Uiso   1.00
C77    C     0.48338   0.02798   0.50086   0.00000  Uiso   1.00
C78    C     0.45532   0.98324   0.50027   0.00000  Uiso   1.00
H79    H     0.61465   0.10146   0.41203   0.00000  Uiso   1.00
H80    H     0.47066   0.04792   0.50209   0.00000  Uiso   1.00
H81    H     0.42299   0.97196   0.50207   0.00000  Uiso   1.00
C82    C     0.23043   0.55269   0.32778   0.00000  Uiso   1.00
C83    C     0.25075   0.59630   0.41581   0.00000  Uiso   1.00
C84    C     0.22618   0.61544   0.48640   0.00000  Uiso   1.00
C85    C     0.18097   0.58980   0.51263   0.00000  Uiso   1.00
C86    C     0.15987   0.54541   0.43394   0.00000  Uiso   1.00
C87    C     0.18538   0.52740   0.33772   0.00000  Uiso   1.00
C88    C     0.11477   0.51924   0.44412   0.00000  Uiso   1.00
N89    N     0.08873   0.53601   0.48601   0.00000  Uiso   1.00
C90    C     0.04531   0.51699   0.49650   0.00000  Uiso   1.00
H91    H     0.16336   0.60321   0.59005   0.00000  Uiso   1.00
H92    H     0.17142   0.49565   0.27308   0.00000  Uiso   1.00
C93    C     0.29386   0.62795   0.44850   0.00000  Uiso   1.00
C94    C     0.29386   0.66718   0.46847   0.00000  Uiso   1.00
N95    N     0.25268   0.65826   0.53171   0.00000  Uiso   1.00
C96    C     0.23849   0.68558   0.68179   0.00000  Uiso   1.00
C97    C     0.20646   0.69567   0.49968   0.00000  Uiso   1.00
H98    H     0.24777   0.53930   0.25178   0.00000  Uiso   1.00
H99    H     0.26582   0.71569   0.76081   0.00000  Uiso   1.00
H100   H     0.22254   0.66917   0.90866   0.00000  Uiso   1.00
H101   H     0.19355   0.70943   0.67463   0.00000  Uiso   1.00
H102   H     0.17954   0.66718   0.39296   0.00000  Uiso   1.00
H103   H     0.22178   0.71895   0.30328   0.00000  Uiso   1.00
C104   C     0.02798   0.54460   0.50086   0.00000  Uiso   1.00
C105   C     0.98324   0.52792   0.50027   0.00000  Uiso   1.00
H106   H     0.10146   0.48681   0.41203   0.00000  Uiso   1.00
H107   H     0.04792   0.57726   0.50209   0.00000  Uiso   1.00
H108   H     0.97196   0.54897   0.50207   0.00000  Uiso   1.00
C109   C     0.44731   0.67774   0.32778   0.00000  Uiso   1.00
C110   C     0.40370   0.65445   0.41581   0.00000  Uiso   1.00
C111   C     0.38456   0.61074   0.48640   0.00000  Uiso   1.00
C112   C     0.41020   0.59117   0.51263   0.00000  Uiso   1.00
C113   C     0.45459   0.61446   0.43394   0.00000  Uiso   1.00
C114   C     0.47260   0.65798   0.33772   0.00000  Uiso   1.00
C115   C     0.48076   0.59553   0.44412   0.00000  Uiso   1.00
N116   N     0.46399   0.55272   0.48601   0.00000  Uiso   1.00
C117   C     0.48301   0.52832   0.49650   0.00000  Uiso   1.00
H118   H     0.39679   0.56015   0.59005   0.00000  Uiso   1.00
H119   H     0.50435   0.67577   0.27308   0.00000  Uiso   1.00
C120   C     0.37205   0.66591   0.44850   0.00000  Uiso   1.00
C121   C     0.33282   0.62668   0.46847   0.00000  Uiso   1.00
N122   N     0.34174   0.59442   0.53171   0.00000  Uiso   1.00
C123   C     0.31442   0.55291   0.68179   0.00000  Uiso   1.00
C124   C     0.30433   0.51079   0.49968   0.00000  Uiso   1.00
H125   H     0.46070   0.70847   0.25178   0.00000  Uiso   1.00
H126   H     0.28431   0.55013   0.76081   0.00000  Uiso   1.00
H127   H     0.33083   0.55337   0.90866   0.00000  Uiso   1.00
H128   H     0.29057   0.48412   0.67463   0.00000  Uiso   1.00
H129   H     0.33282   0.51236   0.39296   0.00000  Uiso   1.00
H130   H     0.28105   0.50283   0.30328   0.00000  Uiso   1.00
C131   C     0.45540   0.48338   0.50086   0.00000  Uiso   1.00
C132   C     0.47208   0.45532   0.50027   0.00000  Uiso   1.00
H133   H     0.51319   0.61465   0.41203   0.00000  Uiso   1.00
H134   H     0.42274   0.47066   0.50209   0.00000  Uiso   1.00
H135   H     0.45103   0.42299   0.50207   0.00000  Uiso   1.00
C136   C     0.32226   0.76957   0.32778   0.00000  Uiso   1.00
C137   C     0.34555   0.74925   0.41581   0.00000  Uiso   1.00
C138   C     0.38926   0.77382   0.48640   0.00000  Uiso   1.00
C139   C     0.40883   0.81903   0.51263   0.00000  Uiso   1.00
C140   C     0.38554   0.84013   0.43394   0.00000  Uiso   1.00
C141   C     0.34202   0.81462   0.33772   0.00000  Uiso   1.00
C142   C     0.40447   0.88523   0.44412   0.00000  Uiso   1.00
N143   N     0.44728   0.91127   0.48601   0.00000  Uiso   1.00
C144   C     0.47168   0.95469   0.49650   0.00000  Uiso   1.00
H145   H     0.43985   0.83664   0.59005   0.00000  Uiso   1.00
H146   H     0.32423   0.82858   0.27308   0.00000  Uiso   1.00
C147   C     0.33409   0.70614   0.44850   0.00000  Uiso   1.00
C148   C     0.37332   0.70614   0.46847   0.00000  Uiso   1.00
N149   N     0.40558   0.74732   0.53171   0.00000  Uiso   1.00
C150   C     0.44709   0.76151   0.68179   0.00000  Uiso   1.00
C151   C     0.48921   0.79354   0.49968   0.00000  Uiso   1.00
H152   H     0.29153   0.75223   0.25178   0.00000  Uiso   1.00
H153   H     0.44987   0.73418   0.76081   0.00000  Uiso   1.00
H154   H     0.44663   0.77746   0.90866   0.00000  Uiso   1.00
H155   H     0.51588   0.80645   0.67463   0.00000  Uiso   1.00
H156   H     0.48764   0.82046   0.39296   0.00000  Uiso   1.00
H157   H     0.49717   0.77822   0.30328   0.00000  Uiso   1.00
C158   C     0.51662   0.97202   0.50086   0.00000  Uiso   1.00
C159   C     0.54468   0.01676   0.50027   0.00000  Uiso   1.00
H160   H     0.38535   0.89854   0.41203   0.00000  Uiso   1.00
H161   H     0.52934   0.95208   0.50209   0.00000  Uiso   1.00
H162   H     0.57701   0.02804   0.50207   0.00000  Uiso   1.00
loop_
_geom_bond_atom_site_label_1
_geom_bond_atom_site_label_2
_geom_bond_distance
_geom_bond_site_symmetry_2
_ccdc_geom_bond_type
C1     C2      1.404   .     D
C1     C6      1.405   .     S
C1     H17     1.007   .     S
C2     C3      1.393   .     S
C2     C12     1.395   .     S
C3     C4      1.415   .     D
C3     N14     1.357   .     S
C4     C5      1.418   .     S
C4     H10     1.017   .     S
C5     C6      1.415   .     D
C5     C7      1.410   .     S
C6     H11     1.024   .     S
C7     N8      1.353   .     D
C7     H25     1.022   .     S
N8     C9      1.355   .     S
C9     C23     1.410   .     D
C9     C105    1.414   .     S
C12    C13     1.411   .     D
C12    C40     1.425   .     S
C13    N14     1.372   .     S
C13    C66     1.425   .     S
N14    C15     1.447   .     S
C15    C16     1.555   .     S
C15    H18     1.084   .     S
C15    H19     1.088   .     S
C16    H20     1.092   .     S
C16    H21     1.086   .     S
C16    H22     1.084   .     S
C23    C24     1.407   1_655 S
C23    H26     1.024   .     S
C24    C23     1.407   1_455 S
C24    H27     1.021   .     S
C24    C90     1.414   .     D
C28    C29     1.404   .     D
C28    C33     1.405   .     S
C28    H44     1.007   .     S
C29    C30     1.393   .     S
C29    C39     1.395   .     S
C30    C31     1.415   .     D
C30    N41     1.357   .     S
C31    C32     1.418   .     S
C31    H37     1.017   .     S
C32    C33     1.415   .     D
C32    C34     1.410   .     S
C33    H38     1.024   .     S
C34    N35     1.353   .     D
C34    H52     1.022   .     S
N35    C36     1.355   .     S
C36    C50     1.410   .     D
C36    C132    1.414   .     S
C39    C40     1.411   .     D
C39    C67     1.425   .     S
C40    N41     1.372   .     S
N41    C42     1.447   .     S
C42    C43     1.555   .     S
C42    H45     1.084   .     S
C42    H46     1.088   .     S
C43    H47     1.092   .     S
C43    H48     1.086   .     S
C43    H49     1.084   .     S
C50    C51     1.407   .     S
C50    H53     1.024   .     S
C51    H54     1.021   .     S
C51    C117    1.414   .     D
C55    C56     1.404   .     D
C55    C60     1.405   .     S
C55    H71     1.007   .     S
C56    C57     1.393   .     S
C56    C66     1.395   .     S
C57    C58     1.415   .     D
C57    N68     1.357   .     S
C58    C59     1.418   .     S
C58    H64     1.017   .     S
C59    C60     1.415   .     D
C59    C61     1.410   .     S
C60    H65     1.024   .     S
C61    N62     1.353   .     D
C61    H79     1.022   .     S
N62    C63     1.355   .     S
C63    C77     1.410   .     S
C63    C159    1.414   .     D
C66    C67     1.411   .     D
C67    N68     1.372   .     S
N68    C69     1.447   .     S
C69    C70     1.555   .     S
C69    H72     1.084   .     S
C69    H73     1.088   .     S
C70    H74     1.092   .     S
C70    H75     1.086   .     S
C70    H76     1.084   .     S
C77    C78     1.407   1_545 D
C77    H80     1.024   .     S
C78    C77     1.407   1_565 D
C78    H81     1.021   .     S
C78    C144    1.414   .     S
C82    C83     1.404   .     S
C82    C87     1.405   .     D
C82    H98     1.007   .     S
C83    C84     1.393   .     D
C83    C93     1.395   .     S
C84    C85     1.415   .     S
C84    N95     1.357   .     S
C85    C86     1.418   .     D
C85    H91     1.017   .     S
C86    C87     1.415   .     S
C86    C88     1.410   .     S
C87    H92     1.024   .     S
C88    N89     1.353   .     D
C88    H106    1.022   .     S
N89    C90     1.355   .     S
C90    C104    1.410   .     S
C93    C94     1.411   .     D
C93    C121    1.425   .     S
C94    N95     1.372   .     S
C94    C147    1.425   .     S
N95    C96     1.447   .     S
C96    C97     1.555   .     S
C96    H99     1.084   .     S
C96    H100    1.088   .     S
C97    H101    1.092   .     S
C97    H102    1.086   .     S
C97    H103    1.084   .     S
C104   C105    1.407   1_455 D
C104   H107    1.024   .     S
C105   C104    1.407   1_655 D
C105   H108    1.021   .     S
C109   C110    1.404   .     D
C109   C114    1.405   .     S
C109   H125    1.007   .     S
C110   C111    1.393   .     S
C110   C120    1.395   .     S
C111   C112    1.415   .     D
C111   N122    1.357   .     S
C112   C113    1.418   .     S
C112   H118    1.017   .     S
C113   C114    1.415   .     D
C113   C115    1.410   .     S
C114   H119    1.024   .     S
C115   N116    1.353   .     D
C115   H133    1.022   .     S
N116   C117    1.355   .     S
C117   C131    1.410   .     S
C120   C121    1.411   .     D
C120   C148    1.425   .     S
C121   N122    1.372   .     S
N122   C123    1.447   .     S
C123   C124    1.555   .     S
C123   H126    1.084   .     S
C123   H127    1.088   .     S
C124   H128    1.092   .     S
C124   H129    1.086   .     S
C124   H130    1.084   .     S
C131   C132    1.407   .     D
C131   H134    1.024   .     S
C132   H135    1.021   .     S
C136   C137    1.404   .     S
C136   C141    1.405   .     D
C136   H152    1.007   .     S
C137   C138    1.393   .     D
C137   C147    1.395   .     S
C138   C139    1.415   .     S
C138   N149    1.357   .     S
C139   C140    1.418   .     D
C139   H145    1.017   .     S
C140   C141    1.415   .     S
C140   C142    1.410   .     S
C141   H146    1.024   .     S
C142   N143    1.353   .     D
C142   H160    1.022   .     S
N143   C144    1.355   .     S
C144   C158    1.410   .     D
C147   C148    1.411   .     D
C148   N149    1.372   .     S
N149   C150    1.447   .     S
C150   C151    1.555   .     S
C150   H153    1.084   .     S
C150   H154    1.088   .     S
C151   H155    1.092   .     S
C151   H156    1.086   .     S
C151   H157    1.084   .     S
C158   C159    1.407   1_565 S
C158   H161    1.024   .     S
C159   C158    1.407   1_545 S
C159   H162    1.021   .     S
