data_459
_audit_creation_date              2023-09-08
_audit_creation_method            'Materials Studio'
_symmetry_space_group_name_H-M    'P1'
_symmetry_Int_Tables_number       1
_symmetry_cell_setting            triclinic
loop_
_symmetry_equiv_pos_as_xyz
  x,y,z
_cell_length_a                    25.0761
_cell_length_b                    25.0761
_cell_length_c                    4.1345
_cell_angle_alpha                 90.0000
_cell_angle_beta                  90.0000
_cell_angle_gamma                 120.0000
loop_
_atom_site_label
_atom_site_type_symbol
_atom_site_fract_x
_atom_site_fract_y
_atom_site_fract_z
_atom_site_U_iso_or_equiv
_atom_site_adp_type
_atom_site_occupancy
C1     C     0.49966   0.80863   0.63715   0.00000  Uiso   1.00
C2     C     0.45923   0.74728   0.54758   0.00000  Uiso   1.00
C3     C     0.48206   0.70801   0.47899   0.00000  Uiso   1.00
C4     C     0.54638   0.73189   0.45760   0.00000  Uiso   1.00
C5     C     0.58771   0.79404   0.54001   0.00000  Uiso   1.00
C6     C     0.56360   0.83201   0.63112   0.00000  Uiso   1.00
N7     N     0.64981   0.82026   0.54174   0.00000  Uiso   1.00
C8     C     0.68590   0.79436   0.53763   0.00000  Uiso   1.00
C9     C     0.75057   0.83056   0.54404   0.00000  Uiso   1.00
C10    C     0.78607   0.80355   0.63717   0.00000  Uiso   1.00
C11    C     0.85069   0.83870   0.64571   0.00000  Uiso   1.00
C12    C     0.88077   0.90108   0.55693   0.00000  Uiso   1.00
C13    C     0.84666   0.92966   0.48793   0.00000  Uiso   1.00
C14    C     0.78178   0.89405   0.46485   0.00000  Uiso   1.00
N15    N     0.88564   0.99077   0.44192   0.00000  Uiso   1.00
C16    C     0.94421   0.00220   0.50319   0.00000  Uiso   1.00
C17    C     0.94282   0.94534   0.52303   0.00000  Uiso   1.00
H18    H     0.56325   0.70473   0.38099   0.00000  Uiso   1.00
H19    H     0.59245   0.87692   0.69574   0.00000  Uiso   1.00
H20    H     0.66593   0.74742   0.54049   0.00000  Uiso   1.00
H21    H     0.76524   0.75808   0.70166   0.00000  Uiso   1.00
H22    H     0.87491   0.81896   0.72185   0.00000  Uiso   1.00
H23    H     0.75714   0.91391   0.38903   0.00000  Uiso   1.00
C24    C     0.86650   0.03095   0.29565   0.00000  Uiso   1.00
C25    C     0.82197   0.04669   0.47867   0.00000  Uiso   1.00
C26    C     0.39540   0.71325   0.51272   0.00000  Uiso   1.00
C27    C     0.38098   0.65127   0.49282   0.00000  Uiso   1.00
N28    N     0.43420   0.65015   0.43198   0.00000  Uiso   1.00
C29    C     0.44137   0.60169   0.28560   0.00000  Uiso   1.00
C30    C     0.47613   0.57404   0.46838   0.00000  Uiso   1.00
H31    H     0.48333   0.83595   0.71215   0.00000  Uiso   1.00
H32    H     0.84302   0.00787   0.07321   0.00000  Uiso   1.00
H33    H     0.90623   0.07368   0.21749   0.00000  Uiso   1.00
H34    H     0.80498   0.06845   0.31107   0.00000  Uiso   1.00
H35    H     0.84444   0.07869   0.67603   0.00000  Uiso   1.00
H36    H     0.78238   0.00616   0.57829   0.00000  Uiso   1.00
H37    H     0.46700   0.62154   0.06318   0.00000  Uiso   1.00
H38    H     0.39712   0.56411   0.20755   0.00000  Uiso   1.00
H39    H     0.51983   0.60923   0.56705   0.00000  Uiso   1.00
H40    H     0.48553   0.54608   0.30086   0.00000  Uiso   1.00
H41    H     0.44938   0.54435   0.66636   0.00000  Uiso   1.00
C42    C     0.19137   0.69103   0.63715   0.00000  Uiso   1.00
C43    C     0.25272   0.71195   0.54758   0.00000  Uiso   1.00
C44    C     0.29199   0.77405   0.47899   0.00000  Uiso   1.00
C45    C     0.26811   0.81449   0.45760   0.00000  Uiso   1.00
C46    C     0.20596   0.79367   0.54001   0.00000  Uiso   1.00
C47    C     0.16799   0.73159   0.63112   0.00000  Uiso   1.00
N48    N     0.17974   0.82955   0.54174   0.00000  Uiso   1.00
C49    C     0.20564   0.89154   0.53763   0.00000  Uiso   1.00
C50    C     0.16944   0.92001   0.54404   0.00000  Uiso   1.00
C51    C     0.19645   0.98252   0.63717   0.00000  Uiso   1.00
C52    C     0.16130   0.01199   0.64571   0.00000  Uiso   1.00
C53    C     0.09892   0.97969   0.55693   0.00000  Uiso   1.00
C54    C     0.07034   0.91700   0.48793   0.00000  Uiso   1.00
C55    C     0.10595   0.88773   0.46485   0.00000  Uiso   1.00
N56    N     0.00923   0.89487   0.44192   0.00000  Uiso   1.00
C57    C     0.99780   0.94201   0.50319   0.00000  Uiso   1.00
C58    C     0.05466   0.99748   0.52303   0.00000  Uiso   1.00
H59    H     0.29527   0.85852   0.38099   0.00000  Uiso   1.00
H60    H     0.12308   0.71553   0.69574   0.00000  Uiso   1.00
H61    H     0.25258   0.91851   0.54049   0.00000  Uiso   1.00
H62    H     0.24192   0.00716   0.70166   0.00000  Uiso   1.00
H63    H     0.18104   0.05595   0.72185   0.00000  Uiso   1.00
H64    H     0.08609   0.84323   0.38903   0.00000  Uiso   1.00
C65    C     0.96905   0.83555   0.29565   0.00000  Uiso   1.00
C66    C     0.95331   0.77528   0.47867   0.00000  Uiso   1.00
C67    C     0.28675   0.68215   0.51272   0.00000  Uiso   1.00
C68    C     0.34873   0.72971   0.49282   0.00000  Uiso   1.00
N69    N     0.34985   0.78405   0.43198   0.00000  Uiso   1.00
C70    C     0.39831   0.83968   0.28560   0.00000  Uiso   1.00
C71    C     0.42596   0.90209   0.46838   0.00000  Uiso   1.00
H72    H     0.16405   0.64738   0.71215   0.00000  Uiso   1.00
H73    H     0.99213   0.83515   0.07321   0.00000  Uiso   1.00
H74    H     0.92632   0.83255   0.21749   0.00000  Uiso   1.00
H75    H     0.93155   0.73653   0.31107   0.00000  Uiso   1.00
H76    H     0.92131   0.76575   0.67603   0.00000  Uiso   1.00
H77    H     0.99384   0.77622   0.57829   0.00000  Uiso   1.00
H78    H     0.37846   0.84546   0.06318   0.00000  Uiso   1.00
H79    H     0.43589   0.83301   0.20755   0.00000  Uiso   1.00
H80    H     0.39077   0.91060   0.56705   0.00000  Uiso   1.00
H81    H     0.45392   0.93945   0.30086   0.00000  Uiso   1.00
H82    H     0.45565   0.90503   0.66636   0.00000  Uiso   1.00
C83    C     0.30897   0.50034   0.63715   0.00000  Uiso   1.00
C84    C     0.28805   0.54077   0.54758   0.00000  Uiso   1.00
C85    C     0.22595   0.51794   0.47899   0.00000  Uiso   1.00
C86    C     0.18551   0.45362   0.45760   0.00000  Uiso   1.00
C87    C     0.20633   0.41229   0.54001   0.00000  Uiso   1.00
C88    C     0.26841   0.43640   0.63112   0.00000  Uiso   1.00
N89    N     0.17045   0.35019   0.54174   0.00000  Uiso   1.00
C90    C     0.10846   0.31410   0.53763   0.00000  Uiso   1.00
C91    C     0.07999   0.24943   0.54404   0.00000  Uiso   1.00
C92    C     0.01748   0.21393   0.63717   0.00000  Uiso   1.00
C93    C     0.98801   0.14931   0.64571   0.00000  Uiso   1.00
C94    C     0.02031   0.11923   0.55693   0.00000  Uiso   1.00
C95    C     0.08300   0.15334   0.48793   0.00000  Uiso   1.00
C96    C     0.11227   0.21822   0.46485   0.00000  Uiso   1.00
N97    N     0.10513   0.11436   0.44192   0.00000  Uiso   1.00
C98    C     0.05799   0.05579   0.50319   0.00000  Uiso   1.00
C99    C     0.00252   0.05718   0.52303   0.00000  Uiso   1.00
H100   H     0.14148   0.43675   0.38099   0.00000  Uiso   1.00
H101   H     0.28447   0.40755   0.69574   0.00000  Uiso   1.00
H102   H     0.08149   0.33407   0.54049   0.00000  Uiso   1.00
H103   H     0.99284   0.23476   0.70166   0.00000  Uiso   1.00
H104   H     0.94405   0.12509   0.72185   0.00000  Uiso   1.00
H105   H     0.15677   0.24286   0.38903   0.00000  Uiso   1.00
C106   C     0.16445   0.13350   0.29565   0.00000  Uiso   1.00
C107   C     0.22472   0.17803   0.47867   0.00000  Uiso   1.00
C108   C     0.31785   0.60460   0.51272   0.00000  Uiso   1.00
C109   C     0.27029   0.61902   0.49282   0.00000  Uiso   1.00
N110   N     0.21595   0.56580   0.43198   0.00000  Uiso   1.00
C111   C     0.16032   0.55863   0.28560   0.00000  Uiso   1.00
C112   C     0.09791   0.52387   0.46838   0.00000  Uiso   1.00
H113   H     0.35262   0.51667   0.71215   0.00000  Uiso   1.00
H114   H     0.16485   0.15698   0.07321   0.00000  Uiso   1.00
H115   H     0.16745   0.09377   0.21749   0.00000  Uiso   1.00
H116   H     0.26347   0.19502   0.31107   0.00000  Uiso   1.00
H117   H     0.23425   0.15556   0.67603   0.00000  Uiso   1.00
H118   H     0.22378   0.21762   0.57829   0.00000  Uiso   1.00
H119   H     0.15454   0.53300   0.06318   0.00000  Uiso   1.00
H120   H     0.16699   0.60288   0.20755   0.00000  Uiso   1.00
H121   H     0.08940   0.48017   0.56705   0.00000  Uiso   1.00
H122   H     0.06055   0.51447   0.30086   0.00000  Uiso   1.00
H123   H     0.09497   0.55062   0.66636   0.00000  Uiso   1.00
loop_
_geom_bond_atom_site_label_1
_geom_bond_atom_site_label_2
_geom_bond_distance
_geom_bond_site_symmetry_2
_ccdc_geom_bond_type
C1     C2      1.404   .     D
C1     C6      1.405   .     S
C1     H31     1.007   .     S
C2     C3      1.393   .     S
C2     C26     1.395   .     S
C3     C4      1.415   .     D
C3     N28     1.357   .     S
C4     C5      1.416   .     S
C4     H18     1.016   .     S
C5     C6      1.411   .     D
C5     N7      1.354   .     S
C6     H19     1.024   .     S
N7     C8      1.352   .     D
C8     C9      1.408   .     S
C8     H20     1.023   .     S
C9     C10     1.415   .     D
C9     C14     1.417   .     S
C10    C11     1.406   .     S
C10    H21     1.024   .     S
C11    C12     1.404   .     D
C11    H22     1.007   .     S
C12    C13     1.393   .     S
C12    C17     1.395   .     S
C13    C14     1.414   .     D
C13    N15     1.357   .     S
C14    H23     1.018   .     S
N15    C16     1.372   1_565 S
N15    C24     1.447   1_565 S
C16    N15     1.372   1_545 S
C16    C17     1.411   1_545 D
C16    C99     1.425   1_655 S
C17    C16     1.411   1_565 D
C17    C57     1.425   .     S
C24    N15     1.447   1_545 S
C24    C25     1.554   .     S
C24    H32     1.089   .     S
C24    H33     1.085   .     S
C25    H34     1.092   .     S
C25    H35     1.084   .     S
C25    H36     1.086   .     S
C26    C27     1.411   .     D
C26    C68     1.425   .     S
C27    N28     1.372   .     S
C27    C108    1.425   .     S
N28    C29     1.447   .     S
C29    C30     1.554   .     S
C29    H37     1.089   .     S
C29    H38     1.085   .     S
C30    H39     1.086   .     S
C30    H40     1.092   .     S
C30    H41     1.084   .     S
C42    C43     1.404   .     S
C42    C47     1.405   .     D
C42    H72     1.007   .     S
C43    C44     1.393   .     D
C43    C67     1.395   .     S
C44    C45     1.415   .     S
C44    N69     1.357   .     S
C45    C46     1.416   .     D
C45    H59     1.016   .     S
C46    C47     1.411   .     S
C46    N48     1.354   .     S
C47    H60     1.024   .     S
N48    C49     1.352   .     D
C49    C50     1.408   .     S
C49    H61     1.023   .     S
C50    C51     1.415   .     S
C50    C55     1.417   .     D
C51    C52     1.406   1_565 D
C51    H62     1.024   1_565 S
C52    C51     1.406   1_545 D
C52    C53     1.404   1_545 S
C52    H63     1.007   .     S
C53    C52     1.404   1_565 S
C53    C54     1.393   .     D
C53    C58     1.395   .     S
C54    C55     1.414   .     S
C54    N56     1.357   .     S
C55    H64     1.018   .     S
N56    C57     1.372   1_455 S
N56    C65     1.447   1_455 S
C57    N56     1.372   1_655 S
C57    C58     1.411   1_655 D
C58    C57     1.411   1_455 D
C58    C98     1.425   1_565 S
H62    C51     1.024   1_545 S
C65    N56     1.447   1_655 S
C65    C66     1.554   .     S
C65    H73     1.089   .     S
C65    H74     1.085   .     S
C66    H75     1.092   .     S
C66    H76     1.084   .     S
C66    H77     1.086   .     S
C67    C68     1.411   .     D
C67    C109    1.425   .     S
C68    N69     1.372   .     S
N69    C70     1.447   .     S
C70    C71     1.554   .     S
C70    H78     1.089   .     S
C70    H79     1.085   .     S
C71    H80     1.086   .     S
C71    H81     1.092   .     S
C71    H82     1.084   .     S
C83    C84     1.404   .     S
C83    C88     1.405   .     D
C83    H113    1.007   .     S
C84    C85     1.393   .     D
C84    C108    1.395   .     S
C85    C86     1.415   .     S
C85    N110    1.357   .     S
C86    C87     1.416   .     D
C86    H100    1.016   .     S
C87    C88     1.411   .     S
C87    N89     1.354   .     S
C88    H101    1.024   .     S
N89    C90     1.352   .     D
C90    C91     1.408   .     S
C90    H102    1.023   .     S
C91    C92     1.415   .     D
C91    C96     1.417   .     S
C92    C93     1.406   1_455 S
C92    H103    1.024   1_455 S
C93    C92     1.406   1_655 S
C93    C94     1.404   1_655 D
C93    H104    1.007   .     S
C94    C93     1.404   1_455 D
C94    C95     1.393   .     S
C94    C99     1.395   .     S
C95    C96     1.414   .     D
C95    N97     1.357   .     S
C96    H105    1.018   .     S
N97    C98     1.372   .     S
N97    C106    1.447   .     S
C98    C58     1.425   1_545 S
C98    C99     1.411   .     D
C99    C16     1.425   1_455 S
H103   C92     1.024   1_655 S
C106   C107    1.554   .     S
C106   H114    1.089   .     S
C106   H115    1.085   .     S
C107   H116    1.092   .     S
C107   H117    1.084   .     S
C107   H118    1.086   .     S
C108   C109    1.411   .     D
C109   N110    1.372   .     S
N110   C111    1.447   .     S
C111   C112    1.554   .     S
C111   H119    1.089   .     S
C111   H120    1.085   .     S
C112   H121    1.086   .     S
C112   H122    1.092   .     S
C112   H123    1.084   .     S
