data_46
_audit_creation_date              2023-09-08
_audit_creation_method            'Materials Studio'
_symmetry_space_group_name_H-M    'P1'
_symmetry_Int_Tables_number       1
_symmetry_cell_setting            triclinic
loop_
_symmetry_equiv_pos_as_xyz
  x,y,z
_cell_length_a                    36.9500
_cell_length_b                    36.9500
_cell_length_c                    3.5400
_cell_angle_alpha                 90.0000
_cell_angle_beta                  90.0000
_cell_angle_gamma                 120.0000
loop_
_atom_site_label
_atom_site_type_symbol
_atom_site_fract_x
_atom_site_fract_y
_atom_site_fract_z
_atom_site_U_iso_or_equiv
_atom_site_adp_type
_atom_site_occupancy
C1     C     0.70402   0.37262   0.50000   0.00000  Uiso   1.00
C2     C     0.70580   0.33493   0.50000   0.00000  Uiso   1.00
C3     C     0.74502   0.33707   0.50000   0.00000  Uiso   1.00
C4     C     0.78119   0.37597   0.50000   0.00000  Uiso   1.00
C5     C     0.77948   0.41222   0.50000   0.00000  Uiso   1.00
C6     C     0.74151   0.41149   0.50000   0.00000  Uiso   1.00
O7     O     0.81857   0.44779   0.50000   0.00000  Uiso   1.00
B8     B     0.84500   0.42867   0.50000   0.00000  Uiso   1.00
O9     O     0.82163   0.38292   0.50000   0.00000  Uiso   1.00
C10    C     0.89343   0.45458   0.50000   0.00000  Uiso   1.00
S11    S     0.92012   0.50825   0.50000   0.00000  Uiso   1.00
C12    C     0.96514   0.50626   0.50000   0.00000  Uiso   1.00
C13    C     0.95925   0.46624   0.50000   0.00000  Uiso   1.00
C14    C     0.91795   0.43604   0.50000   0.00000  Uiso   1.00
C15    C     0.00512   0.54129   0.50000   0.00000  Uiso   1.00
H16    H     0.75037   0.31273   0.50000   0.00000  Uiso   1.00
H17    H     0.74438   0.44023   0.50000   0.00000  Uiso   1.00
H18    H     0.90686   0.40451   0.50000   0.00000  Uiso   1.00
H19    H     0.00934   0.57081   0.50000   0.00000  Uiso   1.00
C20    C     0.62738   0.33140   0.50000   0.00000  Uiso   1.00
C21    C     0.66507   0.37087   0.50000   0.00000  Uiso   1.00
C22    C     0.66293   0.40795   0.50000   0.00000  Uiso   1.00
C23    C     0.62403   0.40522   0.50000   0.00000  Uiso   1.00
C24    C     0.58778   0.36726   0.50000   0.00000  Uiso   1.00
C25    C     0.58851   0.33002   0.50000   0.00000  Uiso   1.00
O26    O     0.55221   0.37078   0.50000   0.00000  Uiso   1.00
B27    B     0.57133   0.41633   0.50000   0.00000  Uiso   1.00
O28    O     0.61708   0.43871   0.50000   0.00000  Uiso   1.00
C29    C     0.54542   0.43885   0.50000   0.00000  Uiso   1.00
S30    S     0.49175   0.41187   0.50000   0.00000  Uiso   1.00
C31    C     0.49374   0.45888   0.50000   0.00000  Uiso   1.00
C32    C     0.53376   0.49301   0.50000   0.00000  Uiso   1.00
C33    C     0.56396   0.48191   0.50000   0.00000  Uiso   1.00
C34    C     0.45871   0.46383   0.50000   0.00000  Uiso   1.00
H35    H     0.68728   0.43765   0.50000   0.00000  Uiso   1.00
H36    H     0.55977   0.30415   0.50000   0.00000  Uiso   1.00
H37    H     0.59549   0.50235   0.50000   0.00000  Uiso   1.00
H38    H     0.42919   0.43853   0.50000   0.00000  Uiso   1.00
C39    C     0.66860   0.29598   0.50000   0.00000  Uiso   1.00
C40    C     0.62913   0.29420   0.50000   0.00000  Uiso   1.00
C41    C     0.59205   0.25498   0.50000   0.00000  Uiso   1.00
C42    C     0.59478   0.21881   0.50000   0.00000  Uiso   1.00
C43    C     0.63274   0.22052   0.50000   0.00000  Uiso   1.00
C44    C     0.66998   0.25849   0.50000   0.00000  Uiso   1.00
O45    O     0.62922   0.18143   0.50000   0.00000  Uiso   1.00
B46    B     0.58367   0.15500   0.50000   0.00000  Uiso   1.00
O47    O     0.56129   0.17837   0.50000   0.00000  Uiso   1.00
C48    C     0.56115   0.10657   0.50000   0.00000  Uiso   1.00
S49    S     0.58813   0.07988   0.50000   0.00000  Uiso   1.00
C50    C     0.54112   0.03486   0.50000   0.00000  Uiso   1.00
C51    C     0.50699   0.04075   0.50000   0.00000  Uiso   1.00
C52    C     0.51809   0.08205   0.50000   0.00000  Uiso   1.00
C53    C     0.53617   0.99488   0.50000   0.00000  Uiso   1.00
H54    H     0.56235   0.24963   0.50000   0.00000  Uiso   1.00
H55    H     0.69585   0.25562   0.50000   0.00000  Uiso   1.00
H56    H     0.49766   0.09314   0.50000   0.00000  Uiso   1.00
H57    H     0.56147   0.99066   0.50000   0.00000  Uiso   1.00
C58    C     0.29598   0.62738   0.50000   0.00000  Uiso   1.00
C59    C     0.29420   0.66507   0.50000   0.00000  Uiso   1.00
C60    C     0.25498   0.66293   0.50000   0.00000  Uiso   1.00
C61    C     0.21881   0.62403   0.50000   0.00000  Uiso   1.00
C62    C     0.22052   0.58778   0.50000   0.00000  Uiso   1.00
C63    C     0.25849   0.58851   0.50000   0.00000  Uiso   1.00
O64    O     0.18143   0.55221   0.50000   0.00000  Uiso   1.00
B65    B     0.15500   0.57133   0.50000   0.00000  Uiso   1.00
O66    O     0.17837   0.61708   0.50000   0.00000  Uiso   1.00
C67    C     0.10657   0.54542   0.50000   0.00000  Uiso   1.00
S68    S     0.07988   0.49175   0.50000   0.00000  Uiso   1.00
C69    C     0.03486   0.49374   0.50000   0.00000  Uiso   1.00
C70    C     0.04075   0.53376   0.50000   0.00000  Uiso   1.00
C71    C     0.08205   0.56396   0.50000   0.00000  Uiso   1.00
C72    C     0.99488   0.45871   0.50000   0.00000  Uiso   1.00
H73    H     0.24963   0.68727   0.50000   0.00000  Uiso   1.00
H74    H     0.25562   0.55977   0.50000   0.00000  Uiso   1.00
H75    H     0.09314   0.59549   0.50000   0.00000  Uiso   1.00
H76    H     0.99066   0.42919   0.50000   0.00000  Uiso   1.00
C77    C     0.37262   0.66860   0.50000   0.00000  Uiso   1.00
C78    C     0.33493   0.62913   0.50000   0.00000  Uiso   1.00
C79    C     0.33707   0.59205   0.50000   0.00000  Uiso   1.00
C80    C     0.37597   0.59478   0.50000   0.00000  Uiso   1.00
C81    C     0.41222   0.63274   0.50000   0.00000  Uiso   1.00
C82    C     0.41149   0.66998   0.50000   0.00000  Uiso   1.00
O83    O     0.44779   0.62922   0.50000   0.00000  Uiso   1.00
B84    B     0.42867   0.58367   0.50000   0.00000  Uiso   1.00
O85    O     0.38292   0.56129   0.50000   0.00000  Uiso   1.00
C86    C     0.45458   0.56115   0.50000   0.00000  Uiso   1.00
S87    S     0.50825   0.58813   0.50000   0.00000  Uiso   1.00
C88    C     0.50626   0.54112   0.50000   0.00000  Uiso   1.00
C89    C     0.46624   0.50699   0.50000   0.00000  Uiso   1.00
C90    C     0.43604   0.51809   0.50000   0.00000  Uiso   1.00
C91    C     0.54129   0.53617   0.50000   0.00000  Uiso   1.00
H92    H     0.31273   0.56235   0.50000   0.00000  Uiso   1.00
H93    H     0.44023   0.69585   0.50000   0.00000  Uiso   1.00
H94    H     0.40451   0.49765   0.50000   0.00000  Uiso   1.00
H95    H     0.57081   0.56147   0.50000   0.00000  Uiso   1.00
C96    C     0.33140   0.70402   0.50000   0.00000  Uiso   1.00
C97    C     0.37087   0.70580   0.50000   0.00000  Uiso   1.00
C98    C     0.40795   0.74502   0.50000   0.00000  Uiso   1.00
C99    C     0.40522   0.78119   0.50000   0.00000  Uiso   1.00
C100   C     0.36726   0.77948   0.50000   0.00000  Uiso   1.00
C101   C     0.33002   0.74151   0.50000   0.00000  Uiso   1.00
O102   O     0.37078   0.81857   0.50000   0.00000  Uiso   1.00
B103   B     0.41633   0.84500   0.50000   0.00000  Uiso   1.00
O104   O     0.43871   0.82163   0.50000   0.00000  Uiso   1.00
C105   C     0.43885   0.89343   0.50000   0.00000  Uiso   1.00
S106   S     0.41187   0.92012   0.50000   0.00000  Uiso   1.00
C107   C     0.45888   0.96514   0.50000   0.00000  Uiso   1.00
C108   C     0.49301   0.95925   0.50000   0.00000  Uiso   1.00
C109   C     0.48191   0.91795   0.50000   0.00000  Uiso   1.00
C110   C     0.46383   0.00512   0.50000   0.00000  Uiso   1.00
H111   H     0.43765   0.75037   0.50000   0.00000  Uiso   1.00
H112   H     0.30415   0.74438   0.50000   0.00000  Uiso   1.00
H113   H     0.50235   0.90686   0.50000   0.00000  Uiso   1.00
H114   H     0.43853   0.00934   0.50000   0.00000  Uiso   1.00
loop_
_geom_bond_atom_site_label_1
_geom_bond_atom_site_label_2
_geom_bond_distance
_geom_bond_site_symmetry_2
_ccdc_geom_bond_type
C1     C2      1.427   .     D
C1     C6      1.411   .     S
C1     C21     1.408   .     S
C2     C3      1.411   .     S
C2     C39     1.408   .     S
C3     C4      1.390   .     D
C3     H16     1.013   .     S
C4     C5      1.372   .     S
C4     O9      1.384   .     S
C5     C6      1.390   .     D
C5     O7      1.384   .     S
C6     H17     1.013   .     S
O7     B8      1.464   .     S
B8     O9      1.464   .     S
B8     C10     1.551   .     S
C10    S11     1.717   .     S
C10    C14     1.382   .     D
S11    C12     1.701   .     S
C12    C13     1.383   .     D
C12    C15     1.395   1_655 S
C13    C14     1.368   .     S
C13    C72     1.475   .     S
C14    H18     1.023   .     S
C15    C12     1.395   1_455 S
C15    H19     1.022   .     S
C15    C70     1.475   .     D
C20    C21     1.427   .     D
C20    C25     1.411   .     S
C20    C40     1.408   .     S
C21    C22     1.411   .     S
C22    C23     1.390   .     D
C22    H35     1.013   .     S
C23    C24     1.372   .     S
C23    O28     1.384   .     S
C24    C25     1.390   .     D
C24    O26     1.384   .     S
C25    H36     1.013   .     S
O26    B27     1.464   .     S
B27    O28     1.464   .     S
B27    C29     1.551   .     S
C29    S30     1.717   .     S
C29    C33     1.382   .     D
S30    C31     1.701   .     S
C31    C32     1.383   .     D
C31    C34     1.395   .     S
C32    C33     1.368   .     S
C32    C91     1.475   .     S
C33    H37     1.023   .     S
C34    H38     1.022   .     S
C34    C89     1.475   .     D
C39    C40     1.427   .     D
C39    C44     1.411   .     S
C40    C41     1.411   .     S
C41    C42     1.390   .     D
C41    H54     1.013   .     S
C42    C43     1.372   .     S
C42    O47     1.384   .     S
C43    C44     1.390   .     D
C43    O45     1.384   .     S
C44    H55     1.013   .     S
O45    B46     1.464   .     S
B46    O47     1.464   .     S
B46    C48     1.551   .     S
C48    S49     1.717   .     S
C48    C52     1.382   .     D
S49    C50     1.701   .     S
C50    C51     1.383   .     S
C50    C53     1.395   1_545 D
C51    C52     1.368   .     S
C51    C110    1.475   .     D
C52    H56     1.023   .     S
C53    C50     1.395   1_565 D
C53    H57     1.022   .     S
C53    C108    1.475   .     S
C58    C59     1.427   .     D
C58    C63     1.411   .     S
C58    C78     1.408   .     S
C59    C60     1.411   .     S
C59    C96     1.408   .     S
C60    C61     1.390   .     D
C60    H73     1.013   .     S
C61    C62     1.372   .     S
C61    O66     1.384   .     S
C62    C63     1.390   .     D
C62    O64     1.384   .     S
C63    H74     1.013   .     S
O64    B65     1.464   .     S
B65    O66     1.464   .     S
B65    C67     1.551   .     S
C67    S68     1.717   .     S
C67    C71     1.382   .     D
S68    C69     1.701   .     S
C69    C70     1.383   .     S
C69    C72     1.395   1_455 D
C70    C71     1.368   .     S
C71    H75     1.023   .     S
C72    C69     1.395   1_655 D
C72    H76     1.022   .     S
C77    C78     1.427   .     D
C77    C82     1.411   .     S
C77    C97     1.408   .     S
C78    C79     1.411   .     S
C79    C80     1.390   .     D
C79    H92     1.013   .     S
C80    C81     1.372   .     S
C80    O85     1.384   .     S
C81    C82     1.390   .     D
C81    O83     1.384   .     S
C82    H93     1.013   .     S
O83    B84     1.464   .     S
B84    O85     1.464   .     S
B84    C86     1.551   .     S
C86    S87     1.717   .     S
C86    C90     1.382   .     D
S87    C88     1.701   .     S
C88    C89     1.383   .     S
C88    C91     1.395   .     D
C89    C90     1.368   .     S
C90    H94     1.023   .     S
C91    H95     1.022   .     S
C96    C97     1.427   .     D
C96    C101    1.411   .     S
C97    C98     1.411   .     S
C98    C99     1.390   .     D
C98    H111    1.013   .     S
C99    C100    1.372   .     S
C99    O104    1.384   .     S
C100   C101    1.390   .     D
C100   O102    1.384   .     S
C101   H112    1.013   .     S
O102   B103    1.464   .     S
B103   O104    1.464   .     S
B103   C105    1.551   .     S
C105   S106    1.717   .     S
C105   C109    1.382   .     D
S106   C107    1.701   .     S
C107   C108    1.383   .     D
C107   C110    1.395   1_565 S
C108   C109    1.368   .     S
C109   H113    1.023   .     S
C110   C107    1.395   1_545 S
C110   H114    1.022   .     S
