data_460
_audit_creation_date              2023-09-08
_audit_creation_method            'Materials Studio'
_symmetry_space_group_name_H-M    'P1'
_symmetry_Int_Tables_number       1
_symmetry_cell_setting            triclinic
loop_
_symmetry_equiv_pos_as_xyz
  x,y,z
_cell_length_a                    15.0200
_cell_length_b                    15.0200
_cell_length_c                    3.4800
_cell_angle_alpha                 90.0000
_cell_angle_beta                  90.0000
_cell_angle_gamma                 120.0000
loop_
_atom_site_label
_atom_site_type_symbol
_atom_site_fract_x
_atom_site_fract_y
_atom_site_fract_z
_atom_site_U_iso_or_equiv
_atom_site_adp_type
_atom_site_occupancy
N1     N     0.43714   0.71857   0.00000   0.00000  Uiso   1.00
N2     N     0.28143   0.71857   0.00000   0.00000  Uiso   1.00
N3     N     0.28143   0.56286   0.00000   0.00000  Uiso   1.00
O4     O     0.55381   0.27690   0.00000   0.00000  Uiso   1.00
O5     O     0.72310   0.27690   0.00000   0.00000  Uiso   1.00
O6     O     0.72310   0.44620   0.00000   0.00000  Uiso   1.00
C7     C     0.38563   0.61437   0.00000   0.00000  Uiso   1.00
B8     B     0.61182   0.38818   0.00000   0.00000  Uiso   1.00
C9     C     0.38563   0.77127   0.00000   0.00000  Uiso   1.00
B10    B     0.61182   0.22364   0.00000   0.00000  Uiso   1.00
C11    C     0.22873   0.61437   0.00000   0.00000  Uiso   1.00
B12    B     0.77636   0.38818   0.00000   0.00000  Uiso   1.00
C13    C     0.44272   0.55728   0.00000   0.00000  Uiso   1.00
C14    C     0.55132   0.44868   0.00000   0.00000  Uiso   1.00
C15    C     0.44272   0.88545   0.00000   0.00000  Uiso   1.00
C16    C     0.55132   0.10264   0.00000   0.00000  Uiso   1.00
C17    C     0.11455   0.55728   0.00000   0.00000  Uiso   1.00
C18    C     0.89736   0.44868   0.00000   0.00000  Uiso   1.00
C19    C     0.55089   0.61035   0.00000   0.00000  Uiso   1.00
C20    C     0.38965   0.94054   0.00000   0.00000  Uiso   1.00
C21    C     0.05946   0.44911   0.00000   0.00000  Uiso   1.00
C22    C     0.38965   0.44911   0.00000   0.00000  Uiso   1.00
C23    C     0.05946   0.61035   0.00000   0.00000  Uiso   1.00
C24    C     0.55089   0.94054   0.00000   0.00000  Uiso   1.00
C25    C     0.60463   0.55662   0.00000   0.00000  Uiso   1.00
C26    C     0.44338   0.04801   0.00000   0.00000  Uiso   1.00
C27    C     0.95199   0.39537   0.00000   0.00000  Uiso   1.00
C28    C     0.44338   0.39537   0.00000   0.00000  Uiso   1.00
C29    C     0.95199   0.55662   0.00000   0.00000  Uiso   1.00
C30    C     0.60463   0.04801   0.00000   0.00000  Uiso   1.00
H31    H     0.59380   0.69358   0.00000   0.00000  Uiso   1.00
H32    H     0.68799   0.59932   0.00000   0.00000  Uiso   1.00
H33    H     0.30642   0.90022   0.00000   0.00000  Uiso   1.00
H34    H     0.40068   0.08867   0.00000   0.00000  Uiso   1.00
H35    H     0.09978   0.40620   0.00000   0.00000  Uiso   1.00
H36    H     0.91133   0.31201   0.00000   0.00000  Uiso   1.00
H37    H     0.30642   0.40620   0.00000   0.00000  Uiso   1.00
H38    H     0.40068   0.31201   0.00000   0.00000  Uiso   1.00
H39    H     0.09978   0.69358   0.00000   0.00000  Uiso   1.00
H40    H     0.91133   0.59932   0.00000   0.00000  Uiso   1.00
H41    H     0.59380   0.90022   0.00000   0.00000  Uiso   1.00
H42    H     0.68799   0.08867   0.00000   0.00000  Uiso   1.00
loop_
_geom_bond_atom_site_label_1
_geom_bond_atom_site_label_2
_geom_bond_distance
_geom_bond_site_symmetry_2
_ccdc_geom_bond_type
N1     C7      1.355   .     S
N1     C9      1.356   .     D
N2     C9      1.355   .     S
N2     C11     1.355   .     D
N3     C7      1.355   .     D
N3     C11     1.356   .     S
O4     B8      1.448   .     S
O4     B10     1.448   .     S
O5     B10     1.448   .     S
O5     B12     1.448   .     S
O6     B8      1.448   .     S
O6     B12     1.448   .     S
C7     C13     1.485   .     S
B8     C14     1.574   .     S
C9     C15     1.485   .     S
B10    C16     1.574   .     S
C11    C17     1.485   .     S
B12    C18     1.574   .     S
C13    C19     1.407   .     D
C13    C22     1.407   .     S
C14    C25     1.404   .     D
C14    C28     1.404   .     S
C15    C20     1.407   .     S
C15    C24     1.407   .     D
C16    C26     1.404   .     S
C16    C30     1.404   .     D
C17    C21     1.407   .     D
C17    C23     1.407   .     S
C18    C27     1.404   .     D
C18    C29     1.404   .     S
C19    C25     1.398   .     S
C19    H31     1.083   .     S
C20    C26     1.398   1_565 D
C20    H33     1.083   .     S
C21    C27     1.398   1_455 S
C21    H35     1.083   .     S
C22    C28     1.398   .     D
C22    H37     1.083   .     S
C23    C29     1.398   1_455 D
C23    H39     1.083   .     S
C24    C30     1.398   1_565 S
C24    H41     1.083   .     S
C25    H32     1.084   .     S
C26    C20     1.398   1_545 D
C26    H34     1.084   .     S
C27    C21     1.398   1_655 S
C27    H36     1.084   .     S
C28    H38     1.084   .     S
C29    C23     1.398   1_655 D
C29    H40     1.084   .     S
C30    C24     1.398   1_545 S
C30    H42     1.084   .     S
