data_461
_audit_creation_date              2023-09-08
_audit_creation_method            'Materials Studio'
_symmetry_space_group_name_H-M    'P1'
_symmetry_Int_Tables_number       1
_symmetry_cell_setting            triclinic
loop_
_symmetry_equiv_pos_as_xyz
  x,y,z
_cell_length_a                    29.7010
_cell_length_b                    29.7010
_cell_length_c                    3.5264
_cell_angle_alpha                 90.0000
_cell_angle_beta                  90.0000
_cell_angle_gamma                 120.0000
loop_
_atom_site_label
_atom_site_type_symbol
_atom_site_fract_x
_atom_site_fract_y
_atom_site_fract_z
_atom_site_U_iso_or_equiv
_atom_site_adp_type
_atom_site_occupancy
H1     H     0.31343   0.57679   0.00000   0.00000  Uiso   1.00
H2     H     0.42321   0.73664   0.00000   0.00000  Uiso   1.00
H3     H     0.26336   0.68657   0.00000   0.00000  Uiso   1.00
H4     H     0.68657   0.42321   0.00000   0.00000  Uiso   1.00
H5     H     0.57679   0.26335   0.00000   0.00000  Uiso   1.00
H6     H     0.73665   0.31343   0.00000   0.00000  Uiso   1.00
N7     N     0.40635   0.59486   0.00000   0.00000  Uiso   1.00
N8     N     0.40514   0.81149   0.00000   0.00000  Uiso   1.00
N9     N     0.18851   0.59365   0.00000   0.00000  Uiso   1.00
N10    N     0.59366   0.40514   0.00000   0.00000  Uiso   1.00
N11    N     0.59486   0.18851   0.00000   0.00000  Uiso   1.00
N12    N     0.81149   0.40634   0.00000   0.00000  Uiso   1.00
C13    C     0.32183   0.61478   0.00000   0.00000  Uiso   1.00
C14    C     0.38522   0.70705   0.00000   0.00000  Uiso   1.00
C15    C     0.29295   0.67817   0.00000   0.00000  Uiso   1.00
C16    C     0.67817   0.38522   0.00000   0.00000  Uiso   1.00
C17    C     0.61478   0.29295   0.00000   0.00000  Uiso   1.00
C18    C     0.70705   0.32183   0.00000   0.00000  Uiso   1.00
C19    C     0.41579   0.64438   0.00000   0.00000  Uiso   1.00
C20    C     0.35562   0.77141   0.00000   0.00000  Uiso   1.00
C21    C     0.22859   0.58421   0.00000   0.00000  Uiso   1.00
C22    C     0.58421   0.35562   0.00000   0.00000  Uiso   1.00
C23    C     0.64438   0.22859   0.00000   0.00000  Uiso   1.00
C24    C     0.77141   0.41579   0.00000   0.00000  Uiso   1.00
N25    N     0.43456   0.57201   0.00000   0.00000  Uiso   1.00
N26    N     0.42799   0.86255   0.00000   0.00000  Uiso   1.00
N27    N     0.13746   0.56544   0.00000   0.00000  Uiso   1.00
N28    N     0.56544   0.42799   0.00000   0.00000  Uiso   1.00
N29    N     0.57201   0.13746   0.00000   0.00000  Uiso   1.00
N30    N     0.86255   0.43456   0.00000   0.00000  Uiso   1.00
C31    C     0.48783   0.59714   0.00000   0.00000  Uiso   1.00
C32    C     0.40286   0.89069   0.00000   0.00000  Uiso   1.00
C33    C     0.10931   0.51217   0.00000   0.00000  Uiso   1.00
C34    C     0.51217   0.40286   0.00000   0.00000  Uiso   1.00
C35    C     0.59714   0.10931   0.00000   0.00000  Uiso   1.00
C36    C     0.89069   0.48783   0.00000   0.00000  Uiso   1.00
C37    C     0.51545   0.56962   0.00000   0.00000  Uiso   1.00
C38    C     0.43038   0.94583   0.00000   0.00000  Uiso   1.00
C39    C     0.05417   0.48455   0.00000   0.00000  Uiso   1.00
C40    C     0.48455   0.43038   0.00000   0.00000  Uiso   1.00
C41    C     0.56962   0.05417   0.00000   0.00000  Uiso   1.00
C42    C     0.94583   0.51545   0.00000   0.00000  Uiso   1.00
C43    C     0.48681   0.51450   0.00000   0.00000  Uiso   1.00
C44    C     0.48550   0.97231   0.00000   0.00000  Uiso   1.00
C45    C     0.02769   0.51319   0.00000   0.00000  Uiso   1.00
C46    C     0.51319   0.48550   0.00000   0.00000  Uiso   1.00
C47    C     0.51450   0.02769   0.00000   0.00000  Uiso   1.00
C48    C     0.97231   0.48681   0.00000   0.00000  Uiso   1.00
C49    C     0.43171   0.48851   0.00000   0.00000  Uiso   1.00
C50    C     0.51149   0.94320   0.00000   0.00000  Uiso   1.00
C51    C     0.05680   0.56829   0.00000   0.00000  Uiso   1.00
C52    C     0.56829   0.51149   0.00000   0.00000  Uiso   1.00
C53    C     0.48851   0.05680   0.00000   0.00000  Uiso   1.00
C54    C     0.94320   0.43171   0.00000   0.00000  Uiso   1.00
C55    C     0.40690   0.51875   0.00000   0.00000  Uiso   1.00
C56    C     0.48125   0.88815   0.00000   0.00000  Uiso   1.00
C57    C     0.11185   0.59310   0.00000   0.00000  Uiso   1.00
C58    C     0.59310   0.48125   0.00000   0.00000  Uiso   1.00
C59    C     0.51875   0.11185   0.00000   0.00000  Uiso   1.00
C60    C     0.88815   0.40690   0.00000   0.00000  Uiso   1.00
C61    C     0.37449   0.65500   0.00000   0.00000  Uiso   1.00
C62    C     0.34500   0.71949   0.00000   0.00000  Uiso   1.00
C63    C     0.28051   0.62551   0.00000   0.00000  Uiso   1.00
C64    C     0.62551   0.34500   0.00000   0.00000  Uiso   1.00
C65    C     0.65500   0.28051   0.00000   0.00000  Uiso   1.00
C66    C     0.71949   0.37449   0.00000   0.00000  Uiso   1.00
H67    H     0.45317   0.67456   0.00000   0.00000  Uiso   1.00
H68    H     0.32544   0.77861   0.00000   0.00000  Uiso   1.00
H69    H     0.22139   0.54683   0.00000   0.00000  Uiso   1.00
H70    H     0.54683   0.32544   0.00000   0.00000  Uiso   1.00
H71    H     0.67456   0.22139   0.00000   0.00000  Uiso   1.00
H72    H     0.77861   0.45317   0.00000   0.00000  Uiso   1.00
O73    O     0.51389   0.64580   0.00000   0.00000  Uiso   1.00
O74    O     0.35420   0.86808   0.00000   0.00000  Uiso   1.00
O75    O     0.13192   0.48612   0.00000   0.00000  Uiso   1.00
O76    O     0.48612   0.35420   0.00000   0.00000  Uiso   1.00
O77    O     0.64580   0.13192   0.00000   0.00000  Uiso   1.00
O78    O     0.86809   0.51389   0.00000   0.00000  Uiso   1.00
O79    O     0.35802   0.49504   0.00000   0.00000  Uiso   1.00
O80    O     0.50496   0.86298   0.00000   0.00000  Uiso   1.00
O81    O     0.13702   0.64198   0.00000   0.00000  Uiso   1.00
O82    O     0.64198   0.50496   0.00000   0.00000  Uiso   1.00
O83    O     0.49504   0.13702   0.00000   0.00000  Uiso   1.00
O84    O     0.86298   0.35802   0.00000   0.00000  Uiso   1.00
C85    C     0.97534   0.57040   0.00000   0.00000  Uiso   1.00
C86    C     0.42960   0.40494   0.00000   0.00000  Uiso   1.00
C87    C     0.59506   0.02466   0.00000   0.00000  Uiso   1.00
C88    C     0.02466   0.42960   0.00000   0.00000  Uiso   1.00
C89    C     0.57040   0.59506   0.00000   0.00000  Uiso   1.00
C90    C     0.40494   0.97534   0.00000   0.00000  Uiso   1.00
C91    C     0.02989   0.59639   0.00000   0.00000  Uiso   1.00
C92    C     0.40361   0.43350   0.00000   0.00000  Uiso   1.00
C93    C     0.56650   0.97011   0.00000   0.00000  Uiso   1.00
C94    C     0.97011   0.40361   0.00000   0.00000  Uiso   1.00
C95    C     0.59639   0.56650   0.00000   0.00000  Uiso   1.00
C96    C     0.43350   0.02989   0.00000   0.00000  Uiso   1.00
H97    H     0.95700   0.59193   0.00000   0.00000  Uiso   1.00
H98    H     0.40807   0.36507   0.00000   0.00000  Uiso   1.00
H99    H     0.63493   0.04300   0.00000   0.00000  Uiso   1.00
H100   H     0.04300   0.40807   0.00000   0.00000  Uiso   1.00
H101   H     0.59193   0.63493   0.00000   0.00000  Uiso   1.00
H102   H     0.36507   0.95700   0.00000   0.00000  Uiso   1.00
H103   H     0.05009   0.63630   0.00000   0.00000  Uiso   1.00
H104   H     0.36370   0.41379   0.00000   0.00000  Uiso   1.00
H105   H     0.58621   0.94991   0.00000   0.00000  Uiso   1.00
H106   H     0.94991   0.36370   0.00000   0.00000  Uiso   1.00
H107   H     0.63630   0.58621   0.00000   0.00000  Uiso   1.00
H108   H     0.41379   0.05009   0.00000   0.00000  Uiso   1.00
loop_
_geom_bond_atom_site_label_1
_geom_bond_atom_site_label_2
_geom_bond_distance
_geom_bond_site_symmetry_2
_ccdc_geom_bond_type
H1     C13     1.027   .     S
H2     C14     1.027   .     S
H3     C15     1.027   .     S
H4     C16     1.027   .     S
H5     C17     1.027   .     S
H6     C18     1.027   .     S
N7     C19     1.352   .     D
N7     N25     1.316   .     S
N8     C20     1.352   .     D
N8     N26     1.316   .     S
N9     C21     1.352   .     D
N9     N27     1.316   .     S
N10    C22     1.352   .     D
N10    N28     1.316   .     S
N11    C23     1.352   .     D
N11    N29     1.316   .     S
N12    C24     1.352   .     D
N12    N30     1.316   .     S
C13    C61     1.416   .     D
C13    C63     1.414   .     S
C14    C61     1.414   .     S
C14    C62     1.416   .     D
C15    C62     1.414   .     S
C15    C63     1.416   .     D
C16    C64     1.416   .     D
C16    C66     1.414   .     S
C17    C64     1.414   .     S
C17    C65     1.416   .     D
C18    C65     1.414   .     S
C18    C66     1.416   .     D
C19    C61     1.411   .     S
C19    H67     1.020   .     S
C20    C62     1.411   .     S
C20    H68     1.020   .     S
C21    C63     1.411   .     S
C21    H69     1.020   .     S
C22    C64     1.411   .     S
C22    H70     1.020   .     S
C23    C65     1.411   .     S
C23    H71     1.020   .     S
C24    C66     1.411   .     S
C24    H72     1.020   .     S
N25    C31     1.371   .     S
N25    C55     1.370   .     S
N26    C32     1.371   .     S
N26    C56     1.370   .     S
N27    C33     1.371   .     S
N27    C57     1.370   .     S
N28    C34     1.371   .     S
N28    C58     1.370   .     S
N29    C35     1.371   .     S
N29    C59     1.370   .     S
N30    C36     1.371   .     S
N30    C60     1.370   .     S
C31    C37     1.418   .     S
C31    O73     1.253   .     D
C32    C38     1.418   .     S
C32    O74     1.253   .     D
C33    C39     1.418   .     S
C33    O75     1.253   .     D
C34    C40     1.418   .     S
C34    O76     1.253   .     D
C35    C41     1.418   .     S
C35    O77     1.253   .     D
C36    C42     1.418   .     S
C36    O78     1.253   .     D
C37    C43     1.418   .     S
C37    C89     1.415   .     D
C38    C44     1.418   .     S
C38    C90     1.415   .     D
C39    C45     1.418   .     S
C39    C88     1.415   .     D
C40    C46     1.418   .     S
C40    C86     1.415   .     D
C41    C47     1.418   .     S
C41    C87     1.415   .     D
C42    C48     1.418   .     S
C42    C85     1.415   .     D
C43    C46     1.425   .     D
C43    C49     1.418   .     S
C44    C47     1.425   1_565 D
C44    C50     1.418   .     S
C45    C48     1.425   1_455 D
C45    C51     1.418   .     S
C46    C52     1.418   .     S
C47    C44     1.425   1_545 D
C47    C53     1.418   .     S
C48    C45     1.425   1_655 D
C48    C54     1.418   .     S
C49    C55     1.418   .     S
C49    C92     1.415   .     D
C50    C56     1.418   .     S
C50    C93     1.415   .     D
C51    C57     1.418   .     S
C51    C91     1.415   .     D
C52    C58     1.418   .     S
C52    C95     1.415   .     D
C53    C59     1.418   .     S
C53    C96     1.415   .     D
C54    C60     1.418   .     S
C54    C94     1.415   .     D
C55    O79     1.257   .     D
C56    O80     1.257   .     D
C57    O81     1.257   .     D
C58    O82     1.257   .     D
C59    O83     1.257   .     D
C60    O84     1.257   .     D
C85    C91     1.404   1_655 S
C85    H97     1.027   .     S
C86    C92     1.404   .     S
C86    H98     1.027   .     S
C87    C93     1.404   1_545 S
C87    H99     1.027   .     S
C88    C94     1.404   1_455 S
C88    H100    1.027   .     S
C89    C95     1.404   .     S
C89    H101    1.027   .     S
C90    C96     1.404   1_565 S
C90    H102    1.027   .     S
C91    C85     1.404   1_455 S
C91    H103    1.027   .     S
C92    H104    1.027   .     S
C93    C87     1.404   1_565 S
C93    H105    1.027   .     S
C94    C88     1.404   1_655 S
C94    H106    1.027   .     S
C95    H107    1.027   .     S
C96    C90     1.404   1_545 S
C96    H108    1.027   .     S
