data_462
_audit_creation_date              2023-09-08
_audit_creation_method            'Materials Studio'
_symmetry_space_group_name_H-M    'P1'
_symmetry_Int_Tables_number       1
_symmetry_cell_setting            triclinic
loop_
_symmetry_equiv_pos_as_xyz
  x,y,z
_cell_length_a                    26.3673
_cell_length_b                    26.3673
_cell_length_c                    3.5249
_cell_angle_alpha                 90.0000
_cell_angle_beta                  90.0000
_cell_angle_gamma                 120.0000
loop_
_atom_site_label
_atom_site_type_symbol
_atom_site_fract_x
_atom_site_fract_y
_atom_site_fract_z
_atom_site_U_iso_or_equiv
_atom_site_adp_type
_atom_site_occupancy
C1     C     0.02093   0.55775   0.50000   0.00000  Uiso   1.00
C2     C     0.44225   0.46318   0.50000   0.00000  Uiso   1.00
C3     C     0.53682   0.97907   0.50000   0.00000  Uiso   1.00
N4     N     0.98073   0.49992   0.50000   0.00000  Uiso   1.00
N5     N     0.50008   0.48081   0.50000   0.00000  Uiso   1.00
N6     N     0.51919   0.01926   0.50000   0.00000  Uiso   1.00
H7     H     0.00717   0.58776   0.50000   0.00000  Uiso   1.00
H8     H     0.41224   0.41941   0.50000   0.00000  Uiso   1.00
H9     H     0.58058   0.99283   0.50000   0.00000  Uiso   1.00
C10    C     0.12212   0.63864   0.50000   0.00000  Uiso   1.00
C11    C     0.36136   0.48348   0.50000   0.00000  Uiso   1.00
C12    C     0.51652   0.87788   0.50000   0.00000  Uiso   1.00
C13    C     0.18284   0.65973   0.50000   0.00000  Uiso   1.00
C14    C     0.34027   0.52310   0.50000   0.00000  Uiso   1.00
C15    C     0.47689   0.81716   0.50000   0.00000  Uiso   1.00
C16    C     0.89231   0.41022   0.50000   0.00000  Uiso   1.00
C17    C     0.58978   0.48209   0.50000   0.00000  Uiso   1.00
C18    C     0.51791   0.10769   0.50000   0.00000  Uiso   1.00
C19    C     0.83071   0.37692   0.50000   0.00000  Uiso   1.00
C20    C     0.62308   0.45379   0.50000   0.00000  Uiso   1.00
C21    C     0.54621   0.16929   0.50000   0.00000  Uiso   1.00
H22    H     0.10776   0.66826   0.50000   0.00000  Uiso   1.00
H23    H     0.33174   0.43950   0.50000   0.00000  Uiso   1.00
H24    H     0.56050   0.89224   0.50000   0.00000  Uiso   1.00
H25    H     0.20795   0.70407   0.50000   0.00000  Uiso   1.00
H26    H     0.29593   0.50387   0.50000   0.00000  Uiso   1.00
H27    H     0.49612   0.79205   0.50000   0.00000  Uiso   1.00
H28    H     0.91620   0.38933   0.50000   0.00000  Uiso   1.00
H29    H     0.61067   0.52687   0.50000   0.00000  Uiso   1.00
H30    H     0.47313   0.08380   0.50000   0.00000  Uiso   1.00
H31    H     0.81422   0.33291   0.50000   0.00000  Uiso   1.00
H32    H     0.66709   0.48131   0.50000   0.00000  Uiso   1.00
H33    H     0.51869   0.18578   0.50000   0.00000  Uiso   1.00
C34    C     0.43547   0.89563   0.50000   0.00000  Uiso   1.00
C35    C     0.10437   0.53984   0.50000   0.00000  Uiso   1.00
C36    C     0.46016   0.56453   0.50000   0.00000  Uiso   1.00
C37    C     0.39628   0.83483   0.50000   0.00000  Uiso   1.00
C38    C     0.16517   0.56145   0.50000   0.00000  Uiso   1.00
C39    C     0.43855   0.60372   0.50000   0.00000  Uiso   1.00
C40    C     0.61162   0.11287   0.50000   0.00000  Uiso   1.00
C41    C     0.88712   0.49874   0.50000   0.00000  Uiso   1.00
C42    C     0.50126   0.38838   0.50000   0.00000  Uiso   1.00
C43    C     0.63951   0.17446   0.50000   0.00000  Uiso   1.00
C44    C     0.82553   0.46505   0.50000   0.00000  Uiso   1.00
C45    C     0.53495   0.36049   0.50000   0.00000  Uiso   1.00
H46    H     0.41888   0.92341   0.50000   0.00000  Uiso   1.00
H47    H     0.07659   0.49547   0.50000   0.00000  Uiso   1.00
H48    H     0.50453   0.58112   0.50000   0.00000  Uiso   1.00
H49    H     0.35334   0.82337   0.50000   0.00000  Uiso   1.00
H50    H     0.17663   0.52997   0.50000   0.00000  Uiso   1.00
H51    H     0.47003   0.64666   0.50000   0.00000  Uiso   1.00
H52    H     0.63677   0.09348   0.50000   0.00000  Uiso   1.00
H53    H     0.90652   0.54330   0.50000   0.00000  Uiso   1.00
H54    H     0.45670   0.36323   0.50000   0.00000  Uiso   1.00
H55    H     0.68395   0.19501   0.50000   0.00000  Uiso   1.00
H56    H     0.80499   0.48894   0.50000   0.00000  Uiso   1.00
H57    H     0.51106   0.31605   0.50000   0.00000  Uiso   1.00
C58    C     0.37413   0.72962   0.50000   0.00000  Uiso   1.00
C59    C     0.27038   0.64451   0.50000   0.00000  Uiso   1.00
C60    C     0.35549   0.62587   0.50000   0.00000  Uiso   1.00
C61    C     0.49652   0.91841   0.50000   0.00000  Uiso   1.00
C62    C     0.08159   0.57811   0.50000   0.00000  Uiso   1.00
C63    C     0.42189   0.50348   0.50000   0.00000  Uiso   1.00
C64    C     0.41469   0.79220   0.50000   0.00000  Uiso   1.00
C65    C     0.20780   0.62248   0.50000   0.00000  Uiso   1.00
C66    C     0.37752   0.58531   0.50000   0.00000  Uiso   1.00
C67    C     0.39263   0.68753   0.50000   0.00000  Uiso   1.00
C68    C     0.31247   0.70510   0.50000   0.00000  Uiso   1.00
C69    C     0.29490   0.60737   0.50000   0.00000  Uiso   1.00
C70    C     0.63752   0.26955   0.50000   0.00000  Uiso   1.00
C71    C     0.73045   0.36796   0.50000   0.00000  Uiso   1.00
C72    C     0.63204   0.36248   0.50000   0.00000  Uiso   1.00
C73    C     0.55015   0.07856   0.50000   0.00000  Uiso   1.00
C74    C     0.92144   0.47159   0.50000   0.00000  Uiso   1.00
C75    C     0.52841   0.44985   0.50000   0.00000  Uiso   1.00
C76    C     0.60852   0.20613   0.50000   0.00000  Uiso   1.00
C77    C     0.79387   0.40239   0.50000   0.00000  Uiso   1.00
C78    C     0.59761   0.39148   0.50000   0.00000  Uiso   1.00
C79    C     0.60658   0.30071   0.50000   0.00000  Uiso   1.00
C80    C     0.69929   0.30587   0.50000   0.00000  Uiso   1.00
C81    C     0.69413   0.39342   0.50000   0.00000  Uiso   1.00
H82    H     0.43582   0.70273   0.50000   0.00000  Uiso   1.00
H83    H     0.56282   0.27694   0.50000   0.00000  Uiso   1.00
H84    H     0.29727   0.73309   0.50000   0.00000  Uiso   1.00
H85    H     0.72305   0.28587   0.50000   0.00000  Uiso   1.00
H86    H     0.26691   0.56418   0.50000   0.00000  Uiso   1.00
H87    H     0.71413   0.43718   0.50000   0.00000  Uiso   1.00
loop_
_geom_bond_atom_site_label_1
_geom_bond_atom_site_label_2
_geom_bond_distance
_geom_bond_site_symmetry_2
_ccdc_geom_bond_type
C1     N4      1.354   1_455 D
C1     H7      1.022   .     S
C1     C62     1.410   .     S
C2     N5      1.354   .     D
C2     H8      1.022   .     S
C2     C63     1.410   .     S
C3     N6      1.354   1_565 D
C3     H9      1.022   .     S
C3     C61     1.410   .     S
N4     C1      1.354   1_655 D
N4     C74     1.354   .     S
N5     C75     1.354   .     S
N6     C3      1.354   1_545 D
N6     C73     1.354   .     S
C10    C13     1.408   .     S
C10    H22     1.024   .     S
C10    C62     1.409   .     D
C11    C14     1.408   .     D
C11    H23     1.024   .     S
C11    C63     1.409   .     S
C12    C15     1.408   .     S
C12    H24     1.024   .     S
C12    C61     1.409   .     D
C13    H25     1.016   .     S
C13    C65     1.430   .     D
C14    H26     1.016   .     S
C14    C66     1.430   .     S
C15    H27     1.016   .     S
C15    C64     1.430   .     D
C16    C19     1.408   .     S
C16    H28     1.023   .     S
C16    C74     1.402   .     D
C17    C20     1.408   .     D
C17    H29     1.023   .     S
C17    C75     1.402   .     S
C18    C21     1.408   .     S
C18    H30     1.023   .     S
C18    C73     1.402   .     D
C19    H31     1.016   .     S
C19    C77     1.431   .     D
C20    H32     1.016   .     S
C20    C78     1.431   .     S
C21    H33     1.016   .     S
C21    C76     1.431   .     D
C34    C37     1.408   .     D
C34    H46     1.024   .     S
C34    C61     1.409   .     S
C35    C38     1.408   .     D
C35    H47     1.024   .     S
C35    C62     1.409   .     S
C36    C39     1.408   .     S
C36    H48     1.024   .     S
C36    C63     1.409   .     D
C37    H49     1.015   .     S
C37    C64     1.430   .     S
C38    H50     1.015   .     S
C38    C65     1.430   .     S
C39    H51     1.016   .     S
C39    C66     1.430   .     D
C40    C43     1.408   .     D
C40    H52     1.020   .     S
C40    C73     1.407   .     S
C41    C44     1.408   .     D
C41    H53     1.020   .     S
C41    C74     1.407   .     S
C42    C45     1.408   .     S
C42    H54     1.020   .     S
C42    C75     1.407   .     D
C43    H55     1.016   .     S
C43    C76     1.431   .     S
C44    H56     1.016   .     S
C44    C77     1.431   .     S
C45    H57     1.016   .     S
C45    C78     1.431   .     D
C58    C64     1.450   .     S
C58    C67     1.418   .     S
C58    C68     1.418   .     D
C59    C65     1.450   .     S
C59    C68     1.418   .     S
C59    C69     1.418   .     D
C60    C66     1.450   .     S
C60    C67     1.418   .     D
C60    C69     1.418   .     S
C67    H82     1.001   .     S
C68    H84     1.001   .     S
C69    H86     1.001   .     S
C70    C76     1.450   .     S
C70    C79     1.418   .     D
C70    C80     1.418   .     S
C71    C77     1.450   .     S
C71    C80     1.418   .     D
C71    C81     1.418   .     S
C72    C78     1.450   .     S
C72    C79     1.418   .     S
C72    C81     1.418   .     D
C79    H83     1.001   .     S
C80    H85     1.001   .     S
C81    H87     1.001   .     S
