data_463
_audit_creation_date              2023-09-08
_audit_creation_method            'Materials Studio'
_symmetry_space_group_name_H-M    'P1'
_symmetry_Int_Tables_number       1
_symmetry_cell_setting            triclinic
loop_
_symmetry_equiv_pos_as_xyz
  x,y,z
_cell_length_a                    22.7820
_cell_length_b                    22.7820
_cell_length_c                    3.4000
_cell_angle_alpha                 90.0000
_cell_angle_beta                  90.0000
_cell_angle_gamma                 120.0000
loop_
_atom_site_label
_atom_site_type_symbol
_atom_site_fract_x
_atom_site_fract_y
_atom_site_fract_z
_atom_site_U_iso_or_equiv
_atom_site_adp_type
_atom_site_occupancy
C1     C     0.57091   0.53545   1.47059   0.00000  Uiso   1.00
C2     C     0.53546   0.46454   1.47059   0.00000  Uiso   1.00
C3     C     0.46454   0.42909   1.47059   0.00000  Uiso   1.00
C4     C     0.42909   0.46454   1.47059   0.00000  Uiso   1.00
C5     C     0.46454   0.53545   1.47059   0.00000  Uiso   1.00
C6     C     0.53546   0.57091   1.47059   0.00000  Uiso   1.00
H7     H     0.56288   0.43712   1.47059   0.00000  Uiso   1.00
H8     H     0.37423   0.43712   1.47059   0.00000  Uiso   1.00
H9     H     0.56288   0.62577   1.47059   0.00000  Uiso   1.00
C10    C     0.09576   0.79788   1.47059   0.00000  Uiso   1.00
C11    C     0.13121   0.76242   1.47059   0.00000  Uiso   1.00
C12    C     0.20212   0.79788   1.47059   0.00000  Uiso   1.00
C13    C     0.23758   0.86879   1.47059   0.00000  Uiso   1.00
C14    C     0.20212   0.90424   1.47059   0.00000  Uiso   1.00
C15    C     0.13121   0.86879   1.47059   0.00000  Uiso   1.00
H16    H     0.10378   0.70756   1.47059   0.00000  Uiso   1.00
H17    H     0.29244   0.89622   1.47059   0.00000  Uiso   1.00
H18    H     0.10378   0.89622   1.47059   0.00000  Uiso   1.00
C19    C     0.01567   0.75783   1.47059   0.00000  Uiso   1.00
C20    C     0.97950   0.68658   1.47059   0.00000  Uiso   1.00
C21    C     0.90852   0.75744   1.47059   0.00000  Uiso   1.00
H22    H     0.00630   0.65840   1.47059   0.00000  Uiso   1.00
C23    C     0.97950   0.79292   1.47059   0.00000  Uiso   1.00
C24    C     0.90852   0.65109   1.47059   0.00000  Uiso   1.00
H25    H     0.00630   0.84790   1.47059   0.00000  Uiso   1.00
C26    C     0.87236   0.68618   1.47059   0.00000  Uiso   1.00
C27    C     0.79431   0.64715   1.47059   0.00000  Uiso   1.00
C28    C     0.75814   0.57590   1.47059   0.00000  Uiso   1.00
C29    C     0.68717   0.64676   1.47059   0.00000  Uiso   1.00
H30    H     0.78494   0.54772   1.47059   0.00000  Uiso   1.00
C31    C     0.75814   0.68224   1.47059   0.00000  Uiso   1.00
C32    C     0.68717   0.54041   1.47059   0.00000  Uiso   1.00
H33    H     0.78494   0.73722   1.47059   0.00000  Uiso   1.00
C34    C     0.65100   0.57550   1.47059   0.00000  Uiso   1.00
H35    H     0.66037   0.48543   1.47059   0.00000  Uiso   1.00
H36    H     0.88172   0.59611   1.47059   0.00000  Uiso   1.00
H37    H     0.66037   0.67493   1.47059   0.00000  Uiso   1.00
H38    H     0.88172   0.78561   1.47059   0.00000  Uiso   1.00
C39    C     0.24217   0.75783   1.47059   0.00000  Uiso   1.00
C40    C     0.20708   0.68658   1.47059   0.00000  Uiso   1.00
C41    C     0.34891   0.75744   1.47059   0.00000  Uiso   1.00
H42    H     0.15210   0.65840   1.47059   0.00000  Uiso   1.00
C43    C     0.31342   0.79292   1.47059   0.00000  Uiso   1.00
C44    C     0.24256   0.65109   1.47059   0.00000  Uiso   1.00
H45    H     0.34160   0.84790   1.47059   0.00000  Uiso   1.00
C46    C     0.31382   0.68618   1.47059   0.00000  Uiso   1.00
C47    C     0.35285   0.64715   1.47059   0.00000  Uiso   1.00
C48    C     0.31776   0.57590   1.47059   0.00000  Uiso   1.00
C49    C     0.45959   0.64676   1.47059   0.00000  Uiso   1.00
H50    H     0.26278   0.54772   1.47059   0.00000  Uiso   1.00
C51    C     0.42410   0.68224   1.47059   0.00000  Uiso   1.00
C52    C     0.35324   0.54041   1.47059   0.00000  Uiso   1.00
H53    H     0.45228   0.73722   1.47059   0.00000  Uiso   1.00
C54    C     0.42450   0.57550   1.47059   0.00000  Uiso   1.00
H55    H     0.32507   0.48543   1.47059   0.00000  Uiso   1.00
H56    H     0.21439   0.59611   1.47059   0.00000  Uiso   1.00
H57    H     0.51457   0.67493   1.47059   0.00000  Uiso   1.00
H58    H     0.40389   0.78561   1.47059   0.00000  Uiso   1.00
C59    C     0.24217   0.98433   1.47058   0.00000  Uiso   1.00
C60    C     0.31342   0.02050   1.47059   0.00000  Uiso   1.00
C61    C     0.24256   0.09148   1.47059   0.00000  Uiso   1.00
H62    H     0.34160   0.99370   1.47058   0.00000  Uiso   1.00
C63    C     0.20708   0.02050   1.47059   0.00000  Uiso   1.00
C64    C     0.34891   0.09148   1.47059   0.00000  Uiso   1.00
H65    H     0.15210   0.99370   1.47058   0.00000  Uiso   1.00
C66    C     0.31382   0.12764   1.47059   0.00000  Uiso   1.00
C67    C     0.35285   0.20569   1.47059   0.00000  Uiso   1.00
C68    C     0.42410   0.24186   1.47059   0.00000  Uiso   1.00
C69    C     0.35324   0.31283   1.47059   0.00000  Uiso   1.00
H70    H     0.45228   0.21506   1.47059   0.00000  Uiso   1.00
C71    C     0.31776   0.24186   1.47059   0.00000  Uiso   1.00
C72    C     0.45959   0.31283   1.47059   0.00000  Uiso   1.00
H73    H     0.26278   0.21506   1.47059   0.00000  Uiso   1.00
C74    C     0.42450   0.34900   1.47059   0.00000  Uiso   1.00
H75    H     0.51457   0.33963   1.47059   0.00000  Uiso   1.00
H76    H     0.40389   0.11827   1.47059   0.00000  Uiso   1.00
H77    H     0.32507   0.33963   1.47059   0.00000  Uiso   1.00
H78    H     0.21439   0.11827   1.47059   0.00000  Uiso   1.00
loop_
_geom_bond_atom_site_label_1
_geom_bond_atom_site_label_2
_geom_bond_distance
_geom_bond_site_symmetry_2
_ccdc_geom_bond_type
C1     C2      1.399   .     D
C1     C6      1.399   .     S
C1     C34     1.580   .     S
C2     C3      1.399   .     S
C2     H7      1.082   .     S
C3     C4      1.399   .     D
C3     C74     1.580   .     S
C4     C5      1.399   .     S
C4     H8      1.082   .     S
C5     C6      1.399   .     D
C5     C54     1.580   .     S
C6     H9      1.082   .     S
C10    C11     1.399   .     S
C10    C15     1.399   .     D
C10    C19     1.580   .     S
C11    C12     1.399   .     D
C11    H16     1.082   .     S
C12    C13     1.399   .     S
C12    C39     1.580   .     S
C13    C14     1.399   .     D
C13    H17     1.082   .     S
C14    C15     1.399   .     S
C14    C59     1.580   .     S
C15    H18     1.082   .     S
C19    C20     1.406   1_455 S
C19    C23     1.406   1_455 D
C20    C19     1.406   1_655 S
C20    H22     1.085   1_655 S
C20    C24     1.400   .     D
C21    C23     1.400   .     S
C21    C26     1.406   .     D
C21    H38     1.085   .     S
H22    C20     1.085   1_455 S
C23    C19     1.406   1_655 D
C23    H25     1.085   1_655 S
C24    C26     1.406   .     S
C24    H36     1.085   .     S
H25    C23     1.085   1_455 S
C26    C27     1.540   .     S
C27    C28     1.406   .     S
C27    C31     1.406   .     D
C28    H30     1.085   .     S
C28    C32     1.400   .     D
C29    C31     1.400   .     S
C29    C34     1.406   .     D
C29    H37     1.085   .     S
C31    H33     1.085   .     S
C32    C34     1.406   .     S
C32    H35     1.085   .     S
C39    C40     1.406   .     D
C39    C43     1.406   .     S
C40    H42     1.085   .     S
C40    C44     1.400   .     S
C41    C43     1.400   .     D
C41    C46     1.406   .     S
C41    H58     1.085   .     S
C43    H45     1.085   .     S
C44    C46     1.406   .     D
C44    H56     1.085   .     S
C46    C47     1.540   .     S
C47    C48     1.406   .     D
C47    C51     1.406   .     S
C48    H50     1.085   .     S
C48    C52     1.400   .     S
C49    C51     1.400   .     D
C49    C54     1.406   .     S
C49    H57     1.085   .     S
C51    H53     1.085   .     S
C52    C54     1.406   .     D
C52    H55     1.085   .     S
C59    C60     1.406   1_565 S
C59    C63     1.406   1_565 D
C60    C59     1.406   1_545 S
C60    H62     1.085   1_545 S
C60    C64     1.400   .     D
C61    C63     1.400   .     S
C61    C66     1.406   .     D
C61    H78     1.085   .     S
H62    C60     1.085   1_565 S
C63    C59     1.406   1_545 D
C63    H65     1.085   1_545 S
C64    C66     1.406   .     S
C64    H76     1.085   .     S
H65    C63     1.085   1_565 S
C66    C67     1.540   .     S
C67    C68     1.406   .     S
C67    C71     1.406   .     D
C68    H70     1.085   .     S
C68    C72     1.400   .     D
C69    C71     1.400   .     S
C69    C74     1.406   .     D
C69    H77     1.085   .     S
C71    H73     1.085   .     S
C72    C74     1.406   .     S
C72    H75     1.085   .     S
