data_464
_audit_creation_date              2023-09-08
_audit_creation_method            'Materials Studio'
_symmetry_space_group_name_H-M    'P1'
_symmetry_Int_Tables_number       1
_symmetry_cell_setting            triclinic
loop_
_symmetry_equiv_pos_as_xyz
  x,y,z
_cell_length_a                    18.5600
_cell_length_b                    18.5600
_cell_length_c                    3.5000
_cell_angle_alpha                 90.0000
_cell_angle_beta                  90.0000
_cell_angle_gamma                 120.0000
loop_
_atom_site_label
_atom_site_type_symbol
_atom_site_fract_x
_atom_site_fract_y
_atom_site_fract_z
_atom_site_U_iso_or_equiv
_atom_site_adp_type
_atom_site_occupancy
C1     C     0.15901   0.61139   0.50000   0.00000  Uiso   1.00
C2     C     0.38861   0.54762   0.50000   0.00000  Uiso   1.00
C3     C     0.45238   0.84099   0.50000   0.00000  Uiso   1.00
N4     N     0.10505   0.53261   0.50000   0.00000  Uiso   1.00
N5     N     0.46739   0.57244   0.50000   0.00000  Uiso   1.00
N6     N     0.42756   0.89495   0.50000   0.00000  Uiso   1.00
C7     C     0.96966   0.40851   0.50000   0.00000  Uiso   1.00
C8     C     0.59149   0.56115   0.50000   0.00000  Uiso   1.00
C9     C     0.43885   0.03034   0.50000   0.00000  Uiso   1.00
C10    C     0.88319   0.36819   0.50000   0.00000  Uiso   1.00
C11    C     0.63181   0.51500   0.50000   0.00000  Uiso   1.00
C12    C     0.48500   0.11681   0.50000   0.00000  Uiso   1.00
H13    H     0.00048   0.37203   0.50000   0.00000  Uiso   1.00
H14    H     0.62797   0.62844   0.50000   0.00000  Uiso   1.00
H15    H     0.37156   0.99952   0.50000   0.00000  Uiso   1.00
H16    H     0.84861   0.30085   0.50000   0.00000  Uiso   1.00
H17    H     0.69915   0.54777   0.50000   0.00000  Uiso   1.00
H18    H     0.45223   0.15139   0.50000   0.00000  Uiso   1.00
C19    C     0.56619   0.02422   0.50000   0.00000  Uiso   1.00
C20    C     0.97578   0.54197   0.50000   0.00000  Uiso   1.00
C21    C     0.45803   0.43381   0.50000   0.00000  Uiso   1.00
C22    C     0.61239   0.11065   0.50000   0.00000  Uiso   1.00
C23    C     0.88935   0.50174   0.50000   0.00000  Uiso   1.00
C24    C     0.49826   0.38761   0.50000   0.00000  Uiso   1.00
H25    H     0.59988   0.99082   0.50000   0.00000  Uiso   1.00
H26    H     0.00918   0.60906   0.50000   0.00000  Uiso   1.00
H27    H     0.39094   0.40012   0.50000   0.00000  Uiso   1.00
H28    H     0.67961   0.14045   0.50000   0.00000  Uiso   1.00
H29    H     0.85955   0.53916   0.50000   0.00000  Uiso   1.00
H30    H     0.46084   0.32039   0.50000   0.00000  Uiso   1.00
C31    C     0.39108   0.75205   0.50000   0.00000  Uiso   1.00
C32    C     0.24795   0.63903   0.50000   0.00000  Uiso   1.00
C33    C     0.36097   0.60892   0.50000   0.00000  Uiso   1.00
C34    C     0.41851   0.69444   0.50000   0.00000  Uiso   1.00
C35    C     0.30556   0.72407   0.50000   0.00000  Uiso   1.00
C36    C     0.27593   0.58149   0.50000   0.00000  Uiso   1.00
C37    C     0.62130   0.24896   0.50000   0.00000  Uiso   1.00
C38    C     0.75104   0.37233   0.50000   0.00000  Uiso   1.00
C39    C     0.62767   0.37870   0.50000   0.00000  Uiso   1.00
C40    C     0.47872   0.98344   0.50000   0.00000  Uiso   1.00
C41    C     0.01656   0.49528   0.50000   0.00000  Uiso   1.00
C42    C     0.50472   0.52128   0.50000   0.00000  Uiso   1.00
C43    C     0.57227   0.15772   0.50000   0.00000  Uiso   1.00
C44    C     0.84228   0.41455   0.50000   0.00000  Uiso   1.00
C45    C     0.58545   0.42773   0.50000   0.00000  Uiso   1.00
N46    N     0.58274   0.29452   0.50000   0.00000  Uiso   1.00
N47    N     0.70548   0.28821   0.50000   0.00000  Uiso   1.00
N48    N     0.71179   0.41727   0.50000   0.00000  Uiso   1.00
H49    H     0.28353   0.76824   0.50000   0.00000  Uiso   1.00
H50    H     0.23177   0.51530   0.50000   0.00000  Uiso   1.00
H51    H     0.48470   0.71647   0.50000   0.00000  Uiso   1.00
H52    H     0.51758   0.85967   0.50000   0.00000  Uiso   1.00
H53    H     0.14033   0.65791   0.50000   0.00000  Uiso   1.00
H54    H     0.34209   0.48242   0.50000   0.00000  Uiso   1.00
loop_
_geom_bond_atom_site_label_1
_geom_bond_atom_site_label_2
_geom_bond_distance
_geom_bond_site_symmetry_2
_ccdc_geom_bond_type
C1     N4      1.295   .     D
C1     C32     1.463   .     S
C1     H53     1.079   .     S
C2     N5      1.295   .     D
C2     C33     1.463   .     S
C2     H54     1.079   .     S
C3     N6      1.295   .     D
C3     C31     1.463   .     S
C3     H52     1.079   .     S
N4     C41     1.428   .     S
N5     C42     1.428   .     S
N6     C40     1.428   .     S
C7     C10     1.391   .     D
C7     H13     1.083   1_655 S
C7     C41     1.396   1_655 S
C8     C11     1.391   .     D
C8     H14     1.083   .     S
C8     C42     1.396   .     S
C9     C12     1.391   .     S
C9     H15     1.083   1_545 S
C9     C40     1.396   1_545 D
C10    H16     1.083   .     S
C10    C44     1.404   .     S
C11    H17     1.083   .     S
C11    C45     1.404   .     S
C12    H18     1.083   .     S
C12    C43     1.404   .     D
H13    C7      1.083   1_455 S
H15    C9      1.083   1_565 S
C19    C22     1.390   .     D
C19    H25     1.078   1_545 S
C19    C40     1.407   1_545 S
C20    C23     1.390   .     S
C20    H26     1.078   1_655 S
C20    C41     1.407   1_655 D
C21    C24     1.390   .     S
C21    H27     1.078   .     S
C21    C42     1.407   .     D
C22    H28     1.083   .     S
C22    C43     1.403   .     S
C23    H29     1.083   .     S
C23    C44     1.403   .     D
C24    H30     1.083   .     S
C24    C45     1.403   .     D
H25    C19     1.078   1_565 S
H26    C20     1.078   1_455 S
C31    C34     1.395   .     S
C31    C35     1.402   .     D
C32    C35     1.395   .     S
C32    C36     1.402   .     D
C33    C34     1.402   .     D
C33    C36     1.395   .     S
C34    H51     1.084   .     S
C35    H49     1.084   .     S
C36    H50     1.084   .     S
C37    C43     1.468   .     S
C37    N46     1.354   .     S
C37    N47     1.354   .     D
C38    C44     1.468   .     S
C38    N47     1.354   .     S
C38    N48     1.354   .     D
C39    C45     1.468   .     S
C39    N46     1.354   .     D
C39    N48     1.354   .     S
C40    C19     1.407   1_565 S
C40    C9      1.396   1_565 D
C41    C20     1.407   1_455 D
C41    C7      1.396   1_455 S
