data_465
_audit_creation_date              2023-09-08
_audit_creation_method            'Materials Studio'
_symmetry_space_group_name_H-M    'P1'
_symmetry_Int_Tables_number       1
_symmetry_cell_setting            triclinic
loop_
_symmetry_equiv_pos_as_xyz
  x,y,z
_cell_length_a                    36.2164
_cell_length_b                    36.2164
_cell_length_c                    3.7705
_cell_angle_alpha                 90.0000
_cell_angle_beta                  90.0000
_cell_angle_gamma                 120.0000
loop_
_atom_site_label
_atom_site_type_symbol
_atom_site_fract_x
_atom_site_fract_y
_atom_site_fract_z
_atom_site_U_iso_or_equiv
_atom_site_adp_type
_atom_site_occupancy
C1     C     0.40410   0.55920   0.83953   0.00000  Uiso   1.00
C2     C     0.42930   0.60330   0.89521   0.00000  Uiso   1.00
C3     C     0.41240   0.63000   0.84053   0.00000  Uiso   1.00
C4     C     0.36980   0.61320   0.73333   0.00000  Uiso   1.00
C5     C     0.34490   0.56910   0.67037   0.00000  Uiso   1.00
C6     C     0.36200   0.54240   0.72165   0.00000  Uiso   1.00
C7     C     0.35090   0.64100   0.70627   0.00000  Uiso   1.00
N8     N     0.37620   0.68410   0.70714   0.00000  Uiso   1.00
C9     C     0.46990   0.89050   0.91628   0.00000  Uiso   1.00
N10    N     0.45480   0.91470   1.05641   0.00000  Uiso   1.00
C11    C     0.47740   0.95590   1.16964   0.00000  Uiso   1.00
C12    C     0.45590   0.47760   1.18968   0.00000  Uiso   1.00
C13    C     0.47780   0.45540   1.29253   0.00000  Uiso   1.00
C14    C     0.54690   0.59260   1.23311   0.00000  Uiso   1.00
S15    S     0.40370   0.38010   1.03543   0.00000  Uiso   1.00
C16    C     0.40330   0.33360   1.11831   0.00000  Uiso   1.00
C17    C     0.43900   0.33870   1.29197   0.00000  Uiso   1.00
C18    C     0.46700   0.38080   1.36305   0.00000  Uiso   1.00
C19    C     0.63260   0.70900   1.01108   0.00000  Uiso   1.00
H20    H     0.46180   0.61720   0.98739   0.00000  Uiso   1.00
H21    H     0.43240   0.66380   0.89328   0.00000  Uiso   1.00
H22    H     0.31210   0.55520   0.58488   0.00000  Uiso   1.00
H23    H     0.34200   0.50850   0.67568   0.00000  Uiso   1.00
H24    H     0.50350   0.90360   0.86175   0.00000  Uiso   1.00
H25    H     0.42180   0.46030   1.15988   0.00000  Uiso   1.00
H26    H     0.44420   0.31290   1.36935   0.00000  Uiso   1.00
H27    H     0.49640   0.39150   1.50791   0.00000  Uiso   1.00
H28    H     0.62030   0.72560   0.84219   0.00000  Uiso   1.00
H29    H     0.65690   0.70530   0.86097   0.00000  Uiso   1.00
H30    H     0.64790   0.72880   1.24870   0.00000  Uiso   1.00
C31    C     0.44080   0.84490   0.83953   0.00000  Uiso   1.00
C32    C     0.39670   0.82600   0.89521   0.00000  Uiso   1.00
C33    C     0.37000   0.78240   0.84053   0.00000  Uiso   1.00
C34    C     0.38680   0.75660   0.73333   0.00000  Uiso   1.00
C35    C     0.43090   0.77580   0.67037   0.00000  Uiso   1.00
C36    C     0.45760   0.81960   0.72165   0.00000  Uiso   1.00
C37    C     0.35900   0.70990   0.70627   0.00000  Uiso   1.00
N38    N     0.31590   0.69210   0.70714   0.00000  Uiso   1.00
C39    C     0.10950   0.57940   0.91628   0.00000  Uiso   1.00
N40    N     0.08530   0.54010   1.05641   0.00000  Uiso   1.00
C41    C     0.04410   0.52150   1.16964   0.00000  Uiso   1.00
C42    C     0.52240   0.97830   1.18968   0.00000  Uiso   1.00
C43    C     0.54460   0.02240   1.29253   0.00000  Uiso   1.00
C44    C     0.40740   0.95430   1.23311   0.00000  Uiso   1.00
S45    S     0.61990   0.02360   1.03543   0.00000  Uiso   1.00
C46    C     0.66640   0.06970   1.11831   0.00000  Uiso   1.00
C47    C     0.66130   0.10030   1.29197   0.00000  Uiso   1.00
C48    C     0.61920   0.08620   1.36305   0.00000  Uiso   1.00
C49    C     0.29100   0.92360   1.01108   0.00000  Uiso   1.00
H50    H     0.38280   0.84460   0.98739   0.00000  Uiso   1.00
H51    H     0.33620   0.76860   0.89328   0.00000  Uiso   1.00
H52    H     0.44480   0.75690   0.58488   0.00000  Uiso   1.00
H53    H     0.49150   0.83350   0.67568   0.00000  Uiso   1.00
H54    H     0.09640   0.59990   0.86175   0.00000  Uiso   1.00
H55    H     0.53970   0.96150   1.15988   0.00000  Uiso   1.00
H56    H     0.68710   0.13130   1.36935   0.00000  Uiso   1.00
H57    H     0.60850   0.10490   1.50791   0.00000  Uiso   1.00
H58    H     0.27440   0.89470   0.84219   0.00000  Uiso   1.00
H59    H     0.29470   0.95160   0.86097   0.00000  Uiso   1.00
H60    H     0.27120   0.91910   1.24870   0.00000  Uiso   1.00
C61    C     0.15510   0.59590   0.83953   0.00000  Uiso   1.00
C62    C     0.17400   0.57070   0.89521   0.00000  Uiso   1.00
C63    C     0.21760   0.58760   0.84053   0.00000  Uiso   1.00
C64    C     0.24340   0.63020   0.73333   0.00000  Uiso   1.00
C65    C     0.22420   0.65510   0.67037   0.00000  Uiso   1.00
C66    C     0.18040   0.63800   0.72165   0.00000  Uiso   1.00
C67    C     0.29010   0.64910   0.70627   0.00000  Uiso   1.00
N68    N     0.30790   0.62380   0.70714   0.00000  Uiso   1.00
C69    C     0.42060   0.53010   0.91628   0.00000  Uiso   1.00
N70    N     0.45990   0.54520   1.05641   0.00000  Uiso   1.00
C71    C     0.47850   0.52260   1.16964   0.00000  Uiso   1.00
C72    C     0.02170   0.54410   1.18968   0.00000  Uiso   1.00
C73    C     0.97760   0.52220   1.29253   0.00000  Uiso   1.00
C74    C     0.04570   0.45310   1.23311   0.00000  Uiso   1.00
S75    S     0.97640   0.59630   1.03543   0.00000  Uiso   1.00
C76    C     0.93030   0.59670   1.11831   0.00000  Uiso   1.00
C77    C     0.89970   0.56100   1.29197   0.00000  Uiso   1.00
C78    C     0.91380   0.53300   1.36305   0.00000  Uiso   1.00
C79    C     0.07640   0.36740   1.01108   0.00000  Uiso   1.00
H80    H     0.15540   0.53820   0.98739   0.00000  Uiso   1.00
H81    H     0.23140   0.56760   0.89328   0.00000  Uiso   1.00
H82    H     0.24310   0.68790   0.58488   0.00000  Uiso   1.00
H83    H     0.16650   0.65800   0.67568   0.00000  Uiso   1.00
H84    H     0.40010   0.49650   0.86175   0.00000  Uiso   1.00
H85    H     0.03850   0.57820   1.15988   0.00000  Uiso   1.00
H86    H     0.86870   0.55580   1.36935   0.00000  Uiso   1.00
H87    H     0.89510   0.50360   1.50791   0.00000  Uiso   1.00
H88    H     0.10530   0.37970   0.84219   0.00000  Uiso   1.00
H89    H     0.04840   0.34310   0.86097   0.00000  Uiso   1.00
H90    H     0.08090   0.35210   1.24870   0.00000  Uiso   1.00
C91    C     0.59590   0.44080   0.83953   0.00000  Uiso   1.00
C92    C     0.57070   0.39670   0.89521   0.00000  Uiso   1.00
C93    C     0.58760   0.37000   0.84053   0.00000  Uiso   1.00
C94    C     0.63020   0.38680   0.73333   0.00000  Uiso   1.00
C95    C     0.65510   0.43090   0.67037   0.00000  Uiso   1.00
C96    C     0.63800   0.45760   0.72165   0.00000  Uiso   1.00
C97    C     0.64910   0.35900   0.70627   0.00000  Uiso   1.00
N98    N     0.62380   0.31590   0.70714   0.00000  Uiso   1.00
C99    C     0.53010   0.10950   0.91628   0.00000  Uiso   1.00
N100   N     0.54520   0.08530   1.05641   0.00000  Uiso   1.00
C101   C     0.52260   0.04410   1.16964   0.00000  Uiso   1.00
C102   C     0.54410   0.52240   1.18968   0.00000  Uiso   1.00
C103   C     0.52220   0.54460   1.29253   0.00000  Uiso   1.00
C104   C     0.45310   0.40740   1.23311   0.00000  Uiso   1.00
S105   S     0.59630   0.61990   1.03543   0.00000  Uiso   1.00
C106   C     0.59670   0.66640   1.11831   0.00000  Uiso   1.00
C107   C     0.56100   0.66130   1.29197   0.00000  Uiso   1.00
C108   C     0.53300   0.61920   1.36305   0.00000  Uiso   1.00
C109   C     0.36740   0.29100   1.01108   0.00000  Uiso   1.00
H110   H     0.53820   0.38280   0.98739   0.00000  Uiso   1.00
H111   H     0.56760   0.33620   0.89328   0.00000  Uiso   1.00
H112   H     0.68790   0.44480   0.58488   0.00000  Uiso   1.00
H113   H     0.65800   0.49150   0.67568   0.00000  Uiso   1.00
H114   H     0.49650   0.09640   0.86175   0.00000  Uiso   1.00
H115   H     0.57820   0.53970   1.15988   0.00000  Uiso   1.00
H116   H     0.55580   0.68710   1.36935   0.00000  Uiso   1.00
H117   H     0.50360   0.60850   1.50791   0.00000  Uiso   1.00
H118   H     0.37970   0.27440   0.84219   0.00000  Uiso   1.00
H119   H     0.34310   0.29470   0.86097   0.00000  Uiso   1.00
H120   H     0.35210   0.27120   1.24870   0.00000  Uiso   1.00
C121   C     0.55920   0.15510   0.83953   0.00000  Uiso   1.00
C122   C     0.60330   0.17400   0.89521   0.00000  Uiso   1.00
C123   C     0.63000   0.21760   0.84053   0.00000  Uiso   1.00
C124   C     0.61320   0.24340   0.73333   0.00000  Uiso   1.00
C125   C     0.56910   0.22420   0.67037   0.00000  Uiso   1.00
C126   C     0.54240   0.18040   0.72165   0.00000  Uiso   1.00
C127   C     0.64100   0.29010   0.70627   0.00000  Uiso   1.00
N128   N     0.68410   0.30790   0.70714   0.00000  Uiso   1.00
C129   C     0.89050   0.42060   0.91628   0.00000  Uiso   1.00
N130   N     0.91470   0.45990   1.05641   0.00000  Uiso   1.00
C131   C     0.95590   0.47850   1.16964   0.00000  Uiso   1.00
C132   C     0.47760   0.02170   1.18968   0.00000  Uiso   1.00
C133   C     0.45540   0.97760   1.29253   0.00000  Uiso   1.00
C134   C     0.59260   0.04570   1.23311   0.00000  Uiso   1.00
S135   S     0.38010   0.97640   1.03543   0.00000  Uiso   1.00
C136   C     0.33360   0.93030   1.11831   0.00000  Uiso   1.00
C137   C     0.33870   0.89970   1.29197   0.00000  Uiso   1.00
C138   C     0.38080   0.91380   1.36305   0.00000  Uiso   1.00
C139   C     0.70900   0.07640   1.01108   0.00000  Uiso   1.00
H140   H     0.61720   0.15540   0.98739   0.00000  Uiso   1.00
H141   H     0.66380   0.23140   0.89328   0.00000  Uiso   1.00
H142   H     0.55520   0.24310   0.58488   0.00000  Uiso   1.00
H143   H     0.50850   0.16650   0.67568   0.00000  Uiso   1.00
H144   H     0.90360   0.40010   0.86175   0.00000  Uiso   1.00
H145   H     0.46030   0.03850   1.15988   0.00000  Uiso   1.00
H146   H     0.31290   0.86870   1.36935   0.00000  Uiso   1.00
H147   H     0.39150   0.89510   1.50791   0.00000  Uiso   1.00
H148   H     0.72560   0.10530   0.84219   0.00000  Uiso   1.00
H149   H     0.70530   0.04840   0.86097   0.00000  Uiso   1.00
H150   H     0.72880   0.08090   1.24870   0.00000  Uiso   1.00
C151   C     0.84490   0.40410   0.83953   0.00000  Uiso   1.00
C152   C     0.82600   0.42930   0.89521   0.00000  Uiso   1.00
C153   C     0.78240   0.41240   0.84053   0.00000  Uiso   1.00
C154   C     0.75660   0.36980   0.73333   0.00000  Uiso   1.00
C155   C     0.77580   0.34490   0.67037   0.00000  Uiso   1.00
C156   C     0.81960   0.36200   0.72165   0.00000  Uiso   1.00
C157   C     0.70990   0.35090   0.70627   0.00000  Uiso   1.00
N158   N     0.69210   0.37620   0.70714   0.00000  Uiso   1.00
C159   C     0.57940   0.46990   0.91628   0.00000  Uiso   1.00
N160   N     0.54010   0.45480   1.05641   0.00000  Uiso   1.00
C161   C     0.52150   0.47740   1.16964   0.00000  Uiso   1.00
C162   C     0.97830   0.45590   1.18968   0.00000  Uiso   1.00
C163   C     0.02240   0.47780   1.29253   0.00000  Uiso   1.00
C164   C     0.95430   0.54690   1.23311   0.00000  Uiso   1.00
S165   S     0.02360   0.40370   1.03543   0.00000  Uiso   1.00
C166   C     0.06970   0.40330   1.11831   0.00000  Uiso   1.00
C167   C     0.10030   0.43900   1.29197   0.00000  Uiso   1.00
C168   C     0.08620   0.46700   1.36305   0.00000  Uiso   1.00
C169   C     0.92360   0.63260   1.01108   0.00000  Uiso   1.00
H170   H     0.84460   0.46180   0.98739   0.00000  Uiso   1.00
H171   H     0.76860   0.43240   0.89328   0.00000  Uiso   1.00
H172   H     0.75690   0.31210   0.58488   0.00000  Uiso   1.00
H173   H     0.83350   0.34200   0.67568   0.00000  Uiso   1.00
H174   H     0.59990   0.50350   0.86175   0.00000  Uiso   1.00
H175   H     0.96150   0.42180   1.15988   0.00000  Uiso   1.00
H176   H     0.13130   0.44420   1.36935   0.00000  Uiso   1.00
H177   H     0.10490   0.49640   1.50791   0.00000  Uiso   1.00
H178   H     0.89470   0.62030   0.84219   0.00000  Uiso   1.00
H179   H     0.95160   0.65690   0.86097   0.00000  Uiso   1.00
H180   H     0.91910   0.64790   1.24870   0.00000  Uiso   1.00
loop_
_geom_bond_atom_site_label_1
_geom_bond_atom_site_label_2
_geom_bond_distance
_geom_bond_site_symmetry_2
_ccdc_geom_bond_type
C1     C2      1.404   .     D
C1     C6      1.402   .     S
C1     C69     1.477   .     S
C2     C3      1.394   .     S
C2     H20     1.080   .     S
C3     C4      1.405   .     D
C3     H21     1.084   .     S
C4     C5      1.407   .     S
C4     C7      1.477   .     S
C5     C6      1.398   .     D
C5     H22     1.082   .     S
C6     H23     1.083   .     S
C7     N8      1.359   .     D
C7     N68     1.358   .     S
N8     C37     1.358   .     S
C9     N10     1.351   .     D
C9     H24     1.082   .     S
C9     C31     1.477   .     S
N10    C11     1.363   .     S
C11    C42     1.413   .     S
C11    C133    1.447   .     D
C12    C13     1.437   .     S
C12    H25     1.075   .     S
C12    C71     1.413   .     D
C13    C104    1.522   .     S
C13    C161    1.447   .     D
C14    C103    1.522   .     S
C14    S105    1.722   .     S
C14    C108    1.381   .     D
S15    C16     1.706   .     S
S15    C104    1.722   .     S
C16    C17     1.377   .     D
C16    C109    1.493   .     S
C17    C18     1.371   .     S
C17    H26     1.081   .     S
C18    H27     1.081   .     S
C18    C104    1.381   .     D
C19    H28     1.110   .     S
C19    H29     1.109   .     S
C19    H30     1.108   .     S
C19    C106    1.493   .     S
C31    C32     1.404   .     S
C31    C36     1.402   .     D
C32    C33     1.394   .     D
C32    H50     1.080   .     S
C33    C34     1.405   .     S
C33    H51     1.084   .     S
C34    C35     1.407   .     D
C34    C37     1.477   .     S
C35    C36     1.398   .     S
C35    H52     1.082   .     S
C36    H53     1.083   .     S
C37    N38     1.359   .     D
N38    C67     1.358   .     S
C39    N40     1.351   .     D
C39    H54     1.082   .     S
C39    C61     1.477   .     S
N40    C41     1.363   .     S
C41    C72     1.413   .     D
C41    C163    1.447   .     S
C42    C43     1.437   1_565 D
C42    H55     1.075   .     S
C43    C42     1.437   1_545 D
C43    C101    1.447   .     S
C43    C134    1.522   .     S
C44    C133    1.522   .     S
C44    S135    1.722   .     S
C44    C138    1.381   .     D
S45    C46     1.706   .     S
S45    C134    1.722   .     S
C46    C47     1.377   .     D
C46    C139    1.493   .     S
C47    C48     1.371   .     S
C47    H56     1.081   .     S
C48    H57     1.081   .     S
C48    C134    1.381   .     D
C49    H58     1.110   .     S
C49    H59     1.109   .     S
C49    H60     1.108   .     S
C49    C136    1.493   .     S
C61    C62     1.404   .     D
C61    C66     1.402   .     S
C62    C63     1.394   .     S
C62    H80     1.080   .     S
C63    C64     1.405   .     D
C63    H81     1.084   .     S
C64    C65     1.407   .     S
C64    C67     1.477   .     S
C65    C66     1.398   .     D
C65    H82     1.082   .     S
C66    H83     1.083   .     S
C67    N68     1.359   .     D
C69    N70     1.351   .     D
C69    H84     1.082   .     S
N70    C71     1.363   .     S
C71    C103    1.447   .     S
C72    C73     1.437   1_455 S
C72    H85     1.075   .     S
C73    C72     1.437   1_655 S
C73    C131    1.447   .     D
C73    C164    1.522   .     S
C74    C163    1.522   .     S
C74    S165    1.722   .     S
C74    C168    1.381   .     D
S75    C76     1.706   .     S
S75    C164    1.722   .     S
C76    C77     1.377   .     D
C76    C169    1.493   .     S
C77    C78     1.371   .     S
C77    H86     1.081   .     S
C78    H87     1.081   .     S
C78    C164    1.381   .     D
C79    H88     1.110   .     S
C79    H89     1.109   .     S
C79    H90     1.108   .     S
C79    C166    1.493   .     S
C91    C92     1.404   .     S
C91    C96     1.402   .     D
C91    C159    1.477   .     S
C92    C93     1.394   .     D
C92    H110    1.080   .     S
C93    C94     1.405   .     S
C93    H111    1.084   .     S
C94    C95     1.407   .     D
C94    C97     1.477   .     S
C95    C96     1.398   .     S
C95    H112    1.082   .     S
C96    H113    1.083   .     S
C97    N98     1.359   .     D
C97    N158    1.358   .     S
N98    C127    1.358   .     S
C99    N100    1.351   .     D
C99    H114    1.082   .     S
C99    C121    1.477   .     S
N100   C101    1.363   .     S
C101   C132    1.413   .     D
C102   C103    1.437   .     D
C102   H115    1.075   .     S
C102   C161    1.413   .     S
S105   C106    1.706   .     S
C106   C107    1.377   .     D
C107   C108    1.371   .     S
C107   H116    1.081   .     S
C108   H117    1.081   .     S
C109   H118    1.110   .     S
C109   H119    1.109   .     S
C109   H120    1.108   .     S
C121   C122    1.404   .     D
C121   C126    1.402   .     S
C122   C123    1.394   .     S
C122   H140    1.080   .     S
C123   C124    1.405   .     D
C123   H141    1.084   .     S
C124   C125    1.407   .     S
C124   C127    1.477   .     S
C125   C126    1.398   .     D
C125   H142    1.082   .     S
C126   H143    1.083   .     S
C127   N128    1.359   .     D
N128   C157    1.358   .     S
C129   N130    1.351   .     D
C129   H144    1.082   .     S
C129   C151    1.477   .     S
N130   C131    1.363   .     S
C131   C162    1.413   .     S
C132   C133    1.437   1_545 S
C132   H145    1.075   .     S
C133   C132    1.437   1_565 S
S135   C136    1.706   .     S
C136   C137    1.377   .     D
C137   C138    1.371   .     S
C137   H146    1.081   .     S
C138   H147    1.081   .     S
C139   H148    1.110   .     S
C139   H149    1.109   .     S
C139   H150    1.108   .     S
C151   C152    1.404   .     D
C151   C156    1.402   .     S
C152   C153    1.394   .     S
C152   H170    1.080   .     S
C153   C154    1.405   .     D
C153   H171    1.084   .     S
C154   C155    1.407   .     S
C154   C157    1.477   .     S
C155   C156    1.398   .     D
C155   H172    1.082   .     S
C156   H173    1.083   .     S
C157   N158    1.359   .     D
C159   N160    1.351   .     D
C159   H174    1.082   .     S
N160   C161    1.363   .     S
C162   C163    1.437   1_655 D
C162   H175    1.075   .     S
C163   C162    1.437   1_455 D
S165   C166    1.706   .     S
C166   C167    1.377   .     D
C167   C168    1.371   .     S
C167   H176    1.081   .     S
C168   H177    1.081   .     S
C169   H178    1.110   .     S
C169   H179    1.109   .     S
C169   H180    1.108   .     S
