data_466
_audit_creation_date              2023-09-08
_audit_creation_method            'Materials Studio'
_symmetry_space_group_name_H-M    'P1'
_symmetry_Int_Tables_number       1
_symmetry_cell_setting            triclinic
loop_
_symmetry_equiv_pos_as_xyz
  x,y,z
_cell_length_a                    20.9400
_cell_length_b                    20.9400
_cell_length_c                    3.4000
_cell_angle_alpha                 90.0000
_cell_angle_beta                  90.0000
_cell_angle_gamma                 120.0000
loop_
_atom_site_label
_atom_site_type_symbol
_atom_site_fract_x
_atom_site_fract_y
_atom_site_fract_z
_atom_site_U_iso_or_equiv
_atom_site_adp_type
_atom_site_occupancy
C1     C     0.29927   0.51668   0.50000   0.00000  Uiso   1.00
C2     C     0.35622   0.50190   0.50000   0.00000  Uiso   1.00
C3     C     0.31530   0.59136   0.50000   0.00000  Uiso   1.00
C4     C     0.39085   0.64933   0.50000   0.00000  Uiso   1.00
C5     C     0.44676   0.63023   0.50000   0.00000  Uiso   1.00
C6     C     0.42767   0.55750   0.50000   0.00000  Uiso   1.00
O7     O     0.34872   0.43244   0.50000   0.00000  Uiso   1.00
O8     O     0.47726   0.53339   0.50000   0.00000  Uiso   1.00
B9     B     0.42683   0.45408   0.50000   0.00000  Uiso   1.00
C10    C     0.45724   0.40086   0.50000   0.00000  Uiso   1.00
C11    C     0.41682   0.32486   0.50000   0.00000  Uiso   1.00
H12    H     0.35713   0.29274   0.50000   0.00000  Uiso   1.00
B13    B     0.60306   0.34107   0.50000   0.00000  Uiso   1.00
C14    C     0.53566   0.35118   0.50000   0.00000  Uiso   1.00
C15    C     0.46275   0.29579   0.50000   0.00000  Uiso   1.00
H16    H     0.44442   0.23731   0.50000   0.00000  Uiso   1.00
O17    O     0.73256   0.32499   0.50000   0.00000  Uiso   1.00
S18    S     0.54998   0.43793   0.50000   0.00000  Uiso   1.00
H19    H     0.24510   0.46891   0.50000   0.00000  Uiso   1.00
H20    H     0.50502   0.66850   0.50000   0.00000  Uiso   1.00
C21    C     0.48333   0.78260   0.50000   0.00000  Uiso   1.00
C22    C     0.49810   0.85433   0.50000   0.00000  Uiso   1.00
C23    C     0.40864   0.72394   0.50000   0.00000  Uiso   1.00
C24    C     0.35067   0.74152   0.50000   0.00000  Uiso   1.00
C25    C     0.36977   0.81653   0.50000   0.00000  Uiso   1.00
C26    C     0.44250   0.87017   0.50000   0.00000  Uiso   1.00
O27    O     0.56756   0.91628   0.50000   0.00000  Uiso   1.00
O28    O     0.46662   0.94388   0.50000   0.00000  Uiso   1.00
B29    B     0.54592   0.97274   0.50000   0.00000  Uiso   1.00
C30    C     0.59915   0.05639   0.50000   0.00000  Uiso   1.00
C31    C     0.67514   0.09196   0.50000   0.00000  Uiso   1.00
H32    H     0.70726   0.06439   0.50000   0.00000  Uiso   1.00
B33    B     0.65893   0.26198   0.50000   0.00000  Uiso   1.00
C34    C     0.64882   0.18448   0.50000   0.00000  Uiso   1.00
C35    C     0.70421   0.16696   0.50000   0.00000  Uiso   1.00
H36    H     0.76269   0.20711   0.50000   0.00000  Uiso   1.00
O37    O     0.67501   0.40757   0.50000   0.00000  Uiso   1.00
S38    S     0.56207   0.11204   0.50000   0.00000  Uiso   1.00
H39    H     0.53109   0.77619   0.50000   0.00000  Uiso   1.00
H40    H     0.33150   0.83652   0.50000   0.00000  Uiso   1.00
C41    C     0.21740   0.70073   0.50000   0.00000  Uiso   1.00
C42    C     0.14567   0.64378   0.50000   0.00000  Uiso   1.00
C43    C     0.27606   0.68470   0.50000   0.00000  Uiso   1.00
C44    C     0.25848   0.60915   0.50000   0.00000  Uiso   1.00
C45    C     0.18347   0.55324   0.50000   0.00000  Uiso   1.00
C46    C     0.12983   0.57233   0.50000   0.00000  Uiso   1.00
O47    O     0.08372   0.65128   0.50000   0.00000  Uiso   1.00
O48    O     0.05612   0.52274   0.50000   0.00000  Uiso   1.00
B49    B     0.02726   0.57318   0.50000   0.00000  Uiso   1.00
C50    C     0.94361   0.54276   0.50000   0.00000  Uiso   1.00
C51    C     0.90804   0.58318   0.50000   0.00000  Uiso   1.00
H52    H     0.93561   0.64287   0.50000   0.00000  Uiso   1.00
B53    B     0.73802   0.39694   0.50000   0.00000  Uiso   1.00
C54    C     0.81552   0.46434   0.50000   0.00000  Uiso   1.00
C55    C     0.83304   0.53725   0.50000   0.00000  Uiso   1.00
H56    H     0.79289   0.55558   0.50000   0.00000  Uiso   1.00
O57    O     0.59243   0.26744   0.50000   0.00000  Uiso   1.00
S58    S     0.88796   0.45002   0.50000   0.00000  Uiso   1.00
H59    H     0.22381   0.75491   0.50000   0.00000  Uiso   1.00
H60    H     0.16348   0.49498   0.50000   0.00000  Uiso   1.00
loop_
_geom_bond_atom_site_label_1
_geom_bond_atom_site_label_2
_geom_bond_distance
_geom_bond_site_symmetry_2
_ccdc_geom_bond_type
C1     C2      1.374   .     S
C1     C3      1.426   .     D
C1     H19     1.074   .     S
C2     C6      1.361   .     D
C2     O7      1.383   .     S
C3     C4      1.434   .     S
C3     C44     1.413   .     S
C4     C5      1.414   .     D
C4     C23     1.413   .     S
C5     C6      1.368   .     S
C5     H20     1.074   .     S
C6     O8      1.363   .     S
O7     B9      1.463   .     S
O8     B9      1.456   .     S
B9     C10     1.536   .     S
C10    C11     1.379   .     D
C10    S18     1.693   .     S
C11    H12     1.084   .     S
C11    C15     1.372   .     S
B13    C14     1.528   .     S
B13    O37     1.453   .     S
B13    O57     1.444   .     S
C14    C15     1.380   .     D
C14    S18     1.687   .     S
C15    H16     1.085   .     S
O17    B33     1.444   .     S
O17    B53     1.453   .     S
C21    C22     1.374   .     D
C21    C23     1.426   .     S
C21    H39     1.074   .     S
C22    C26     1.361   .     S
C22    O27     1.383   .     S
C23    C24     1.434   .     D
C24    C25     1.414   .     S
C24    C43     1.413   .     S
C25    C26     1.368   .     D
C25    H40     1.074   .     S
C26    O28     1.363   .     S
O27    B29     1.463   .     S
O28    B29     1.456   .     S
B29    C30     1.536   1_565 S
C30    B29     1.536   1_545 S
C30    C31     1.379   .     D
C30    S38     1.693   .     S
C31    H32     1.084   .     S
C31    C35     1.372   .     S
B33    C34     1.528   .     S
B33    O57     1.453   .     S
C34    C35     1.380   .     D
C34    S38     1.687   .     S
C35    H36     1.085   .     S
O37    B53     1.444   .     S
C41    C42     1.374   .     S
C41    C43     1.426   .     D
C41    H59     1.074   .     S
C42    C46     1.361   .     D
C42    O47     1.383   .     S
C43    C44     1.434   .     S
C44    C45     1.414   .     D
C45    C46     1.368   .     S
C45    H60     1.074   .     S
C46    O48     1.363   .     S
O47    B49     1.463   .     S
O48    B49     1.456   .     S
B49    C50     1.536   1_455 S
C50    B49     1.536   1_655 S
C50    C51     1.379   .     D
C50    S58     1.693   .     S
C51    H52     1.084   .     S
C51    C55     1.372   .     S
B53    C54     1.528   .     S
C54    C55     1.380   .     D
C54    S58     1.687   .     S
C55    H56     1.085   .     S
