data_467
_audit_creation_date              2023-09-08
_audit_creation_method            'Materials Studio'
_symmetry_space_group_name_H-M    'P1'
_symmetry_Int_Tables_number       1
_symmetry_cell_setting            triclinic
loop_
_symmetry_equiv_pos_as_xyz
  x,y,z
_cell_length_a                    28.5100
_cell_length_b                    28.5100
_cell_length_c                    3.4000
_cell_angle_alpha                 90.0000
_cell_angle_beta                  90.0000
_cell_angle_gamma                 120.0000
loop_
_atom_site_label
_atom_site_type_symbol
_atom_site_fract_x
_atom_site_fract_y
_atom_site_fract_z
_atom_site_U_iso_or_equiv
_atom_site_adp_type
_atom_site_occupancy
C1     C     0.30493   0.55536   0.50000   0.00000  Uiso   1.00
C2     C     0.34559   0.54256   0.50000   0.00000  Uiso   1.00
C3     C     0.31836   0.61076   0.50000   0.00000  Uiso   1.00
C4     C     0.37447   0.65208   0.50000   0.00000  Uiso   1.00
C5     C     0.41437   0.63608   0.50000   0.00000  Uiso   1.00
C6     C     0.39872   0.58194   0.50000   0.00000  Uiso   1.00
O7     O     0.33806   0.49066   0.50000   0.00000  Uiso   1.00
O8     O     0.43363   0.56184   0.50000   0.00000  Uiso   1.00
B9     B     0.39469   0.50393   0.50000   0.00000  Uiso   1.00
C10    C     0.41268   0.46073   0.50000   0.00000  Uiso   1.00
C11    C     0.37767   0.40548   0.50000   0.00000  Uiso   1.00
H12    H     0.26452   0.52125   0.50000   0.00000  Uiso   1.00
H13    H     0.45735   0.66329   0.50000   0.00000  Uiso   1.00
H14    H     0.33387   0.38666   0.50000   0.00000  Uiso   1.00
C15    C     0.44464   0.74957   0.50000   0.00000  Uiso   1.00
C16    C     0.45745   0.80304   0.50000   0.00000  Uiso   1.00
C17    C     0.38924   0.70760   0.50000   0.00000  Uiso   1.00
C18    C     0.34792   0.72238   0.50000   0.00000  Uiso   1.00
C19    C     0.36392   0.77828   0.50000   0.00000  Uiso   1.00
C20    C     0.41805   0.81678   0.50000   0.00000  Uiso   1.00
O21    O     0.50934   0.84740   0.50000   0.00000  Uiso   1.00
O22    O     0.43816   0.87180   0.50000   0.00000  Uiso   1.00
B23    B     0.49607   0.89076   0.50000   0.00000  Uiso   1.00
C24    C     0.53927   0.95195   0.50000   0.00000  Uiso   1.00
C25    C     0.59452   0.97219   0.50000   0.00000  Uiso   1.00
H26    H     0.47875   0.74328   0.50000   0.00000  Uiso   1.00
H27    H     0.33671   0.79406   0.50000   0.00000  Uiso   1.00
H28    H     0.61334   0.94721   0.50000   0.00000  Uiso   1.00
C29    C     0.25043   0.69507   0.50000   0.00000  Uiso   1.00
C30    C     0.19696   0.65441   0.50000   0.00000  Uiso   1.00
C31    C     0.29240   0.68164   0.50000   0.00000  Uiso   1.00
C32    C     0.27762   0.62553   0.50000   0.00000  Uiso   1.00
C33    C     0.22172   0.58563   0.50000   0.00000  Uiso   1.00
C34    C     0.18322   0.60128   0.50000   0.00000  Uiso   1.00
O35    O     0.15260   0.66194   0.50000   0.00000  Uiso   1.00
O36    O     0.12821   0.56637   0.50000   0.00000  Uiso   1.00
B37    B     0.10924   0.60531   0.50000   0.00000  Uiso   1.00
C38    C     0.04805   0.58732   0.50000   0.00000  Uiso   1.00
C39    C     0.02781   0.62233   0.50000   0.00000  Uiso   1.00
H40    H     0.25672   0.73548   0.50000   0.00000  Uiso   1.00
H41    H     0.20594   0.54265   0.50000   0.00000  Uiso   1.00
H42    H     0.05279   0.66614   0.50000   0.00000  Uiso   1.00
C43    C     0.55536   0.30493   0.50000   0.00000  Uiso   1.00
C44    C     0.54256   0.34559   0.50000   0.00000  Uiso   1.00
C45    C     0.61076   0.31836   0.50000   0.00000  Uiso   1.00
C46    C     0.65208   0.37447   0.50000   0.00000  Uiso   1.00
C47    C     0.63608   0.41437   0.50000   0.00000  Uiso   1.00
C48    C     0.58195   0.39872   0.50000   0.00000  Uiso   1.00
O49    O     0.49066   0.33806   0.50000   0.00000  Uiso   1.00
O50    O     0.56184   0.43363   0.50000   0.00000  Uiso   1.00
B51    B     0.50393   0.39469   0.50000   0.00000  Uiso   1.00
C52    C     0.46073   0.41268   0.50000   0.00000  Uiso   1.00
C53    C     0.40548   0.37767   0.50000   0.00000  Uiso   1.00
H54    H     0.52125   0.26452   0.50000   0.00000  Uiso   1.00
H55    H     0.66329   0.45735   0.50000   0.00000  Uiso   1.00
H56    H     0.38666   0.33387   0.50000   0.00000  Uiso   1.00
C57    C     0.74957   0.44464   0.50000   0.00000  Uiso   1.00
C58    C     0.80304   0.45744   0.50000   0.00000  Uiso   1.00
C59    C     0.70760   0.38924   0.50000   0.00000  Uiso   1.00
C60    C     0.72238   0.34792   0.50000   0.00000  Uiso   1.00
C61    C     0.77828   0.36392   0.50000   0.00000  Uiso   1.00
C62    C     0.81678   0.41805   0.50000   0.00000  Uiso   1.00
O63    O     0.84740   0.50934   0.50000   0.00000  Uiso   1.00
O64    O     0.87180   0.43816   0.50000   0.00000  Uiso   1.00
B65    B     0.89076   0.49607   0.50000   0.00000  Uiso   1.00
C66    C     0.95195   0.53927   0.50000   0.00000  Uiso   1.00
C67    C     0.97219   0.59452   0.50000   0.00000  Uiso   1.00
H68    H     0.74328   0.47875   0.50000   0.00000  Uiso   1.00
H69    H     0.79406   0.33671   0.50000   0.00000  Uiso   1.00
H70    H     0.94721   0.61334   0.50000   0.00000  Uiso   1.00
C71    C     0.69507   0.25043   0.50000   0.00000  Uiso   1.00
C72    C     0.65441   0.19696   0.50000   0.00000  Uiso   1.00
C73    C     0.68164   0.29240   0.50000   0.00000  Uiso   1.00
C74    C     0.62553   0.27762   0.50000   0.00000  Uiso   1.00
C75    C     0.58563   0.22172   0.50000   0.00000  Uiso   1.00
C76    C     0.60128   0.18322   0.50000   0.00000  Uiso   1.00
O77    O     0.66194   0.15260   0.50000   0.00000  Uiso   1.00
O78    O     0.56637   0.12820   0.50000   0.00000  Uiso   1.00
B79    B     0.60531   0.10924   0.50000   0.00000  Uiso   1.00
C80    C     0.58732   0.04805   0.50000   0.00000  Uiso   1.00
C81    C     0.62233   0.02781   0.50000   0.00000  Uiso   1.00
H82    H     0.73548   0.25672   0.50000   0.00000  Uiso   1.00
H83    H     0.54265   0.20594   0.50000   0.00000  Uiso   1.00
H84    H     0.66614   0.05279   0.50000   0.00000  Uiso   1.00
S85    S     0.47956   0.47955   0.50000   0.00000  Uiso   1.00
S86    S     0.52045  -0.00000   0.50000   0.00000  Uiso   1.00
S87    S     0.00000   0.52045   0.50000   0.00000  Uiso   1.00
loop_
_geom_bond_atom_site_label_1
_geom_bond_atom_site_label_2
_geom_bond_distance
_geom_bond_site_symmetry_2
_ccdc_geom_bond_type
C1     C2      1.379   .     S
C1     C3      1.427   .     D
C1     H12     1.074   .     S
C2     C6      1.362   .     D
C2     O7      1.385   .     S
C3     C4      1.436   .     S
C3     C32     1.420   .     S
C4     C5      1.422   .     D
C4     C17     1.420   .     S
C5     C6      1.376   .     S
C5     H13     1.074   .     S
C6     O8      1.375   .     S
O7     B9      1.463   .     S
O8     B9      1.458   .     S
B9     C10     1.553   .     S
C10    C11     1.380   .     D
C10    S85     1.703   .     S
C11    H14     1.085   .     S
C11    C53     1.373   .     S
C15    C16     1.379   .     D
C15    C17     1.427   .     S
C15    H26     1.074   .     S
C16    C20     1.362   .     S
C16    O21     1.385   .     S
C17    C18     1.436   .     D
C18    C19     1.422   .     S
C18    C31     1.420   .     S
C19    C20     1.376   .     D
C19    H27     1.074   .     S
C20    O22     1.375   .     S
O21    B23     1.463   .     S
O22    B23     1.458   .     S
B23    C24     1.553   .     S
C24    C25     1.380   .     D
C24    S86     1.703   1_565 S
C25    H28     1.085   .     S
C25    C81     1.373   1_565 S
C29    C30     1.379   .     S
C29    C31     1.427   .     D
C29    H40     1.074   .     S
C30    C34     1.362   .     D
C30    O35     1.385   .     S
C31    C32     1.436   .     S
C32    C33     1.422   .     D
C33    C34     1.376   .     S
C33    H41     1.074   .     S
C34    O36     1.375   .     S
O35    B37     1.463   .     S
O36    B37     1.458   .     S
B37    C38     1.553   .     S
C38    C39     1.380   .     D
C38    S87     1.703   .     S
C39    H42     1.085   .     S
C39    C67     1.373   1_455 S
C43    C44     1.379   .     S
C43    C45     1.427   .     D
C43    H54     1.074   .     S
C44    C48     1.362   .     D
C44    O49     1.385   .     S
C45    C46     1.436   .     S
C45    C74     1.420   .     S
C46    C47     1.422   .     D
C46    C59     1.420   .     S
C47    C48     1.376   .     S
C47    H55     1.074   .     S
C48    O50     1.375   .     S
O49    B51     1.463   .     S
O50    B51     1.458   .     S
B51    C52     1.553   .     S
C52    C53     1.380   .     D
C52    S85     1.703   .     S
C53    H56     1.085   .     S
C57    C58     1.379   .     D
C57    C59     1.427   .     S
C57    H68     1.074   .     S
C58    C62     1.362   .     S
C58    O63     1.385   .     S
C59    C60     1.436   .     D
C60    C61     1.422   .     S
C60    C73     1.420   .     S
C61    C62     1.376   .     D
C61    H69     1.074   .     S
C62    O64     1.375   .     S
O63    B65     1.463   .     S
O64    B65     1.458   .     S
B65    C66     1.553   .     S
C66    C67     1.380   .     D
C66    S87     1.703   1_655 S
C67    C39     1.373   1_655 S
C67    H70     1.085   .     S
C71    C72     1.379   .     S
C71    C73     1.427   .     D
C71    H82     1.074   .     S
C72    C76     1.362   .     D
C72    O77     1.385   .     S
C73    C74     1.436   .     S
C74    C75     1.422   .     D
C75    C76     1.376   .     S
C75    H83     1.074   .     S
C76    O78     1.375   .     S
O77    B79     1.463   .     S
O78    B79     1.458   .     S
B79    C80     1.553   .     S
C80    C81     1.380   .     D
C80    S86     1.703   .     S
C81    C25     1.373   1_545 S
C81    H84     1.085   .     S
S86    C24     1.703   1_545 S
S87    C66     1.703   1_455 S
