data_468
_audit_creation_date              2023-09-08
_audit_creation_method            'Materials Studio'
_symmetry_space_group_name_H-M    'P1'
_symmetry_Int_Tables_number       1
_symmetry_cell_setting            triclinic
loop_
_symmetry_equiv_pos_as_xyz
  x,y,z
_cell_length_a                    36.6104
_cell_length_b                    36.6104
_cell_length_c                    3.7907
_cell_angle_alpha                 90.0000
_cell_angle_beta                  90.0000
_cell_angle_gamma                 120.0000
loop_
_atom_site_label
_atom_site_type_symbol
_atom_site_fract_x
_atom_site_fract_y
_atom_site_fract_z
_atom_site_U_iso_or_equiv
_atom_site_adp_type
_atom_site_occupancy
H1     H     0.91174   0.27701   0.77256   0.00000  Uiso   1.00
C2     C     0.75463   0.36192   1.00000   0.00000  Uiso   1.00
C3     C     0.76928   0.33318   1.00000   0.00000  Uiso   1.00
C4     C     0.81247   0.34709   1.00000   0.00000  Uiso   1.00
C5     C     0.84303   0.39045   1.00000   0.00000  Uiso   1.00
C6     C     0.82736   0.41894   1.00000   0.00000  Uiso   1.00
C7     C     0.78425   0.40503   1.00000   0.00000  Uiso   1.00
C8     C     0.89065   0.40906   1.00000   0.00000  Uiso   1.00
N9     N     0.91337   0.45214   1.00000   0.00000  Uiso   1.00
C10    C     0.95605   0.47560   1.00000   0.00000  Uiso   1.00
C11    C     0.98029   0.45568   1.00000   0.00000  Uiso   1.00
C12    C     0.02441   0.48039   1.00000   0.00000  Uiso   1.00
C13    C     0.29118   0.65297   1.00000   0.00000  Uiso   1.00
N14    N     0.30510   0.62484   1.00000   0.00000  Uiso   1.00
C15    C     0.41148   0.45262   1.00000   0.00000  Uiso   1.00
C16    C     0.08527   0.61215   1.00000   0.00000  Uiso   1.00
C17    C     0.90210   0.34525   1.00000   0.00000  Uiso   1.00
C18    C     0.93575   0.33827   1.00000   0.00000  Uiso   1.00
S19    S     0.98399   0.38257   1.00000   0.00000  Uiso   1.00
C20    C     0.93045   0.29508   1.00000   0.00000  Uiso   1.00
H21    H     0.74725   0.29955   1.00000   0.00000  Uiso   1.00
H22    H     0.81966   0.32253   1.00000   0.00000  Uiso   1.00
H23    H     0.84831   0.45274   1.00000   0.00000  Uiso   1.00
H24    H     0.77424   0.42830   1.00000   0.00000  Uiso   1.00
H25    H     0.04401   0.46598   1.00000   0.00000  Uiso   1.00
H26    H     0.87114   0.31867   1.00000   0.00000  Uiso   1.00
H27    H     0.96142   0.29643   1.00000   0.00000  Uiso   1.00
H28    H     0.72299   0.63473   0.77256   0.00000  Uiso   1.00
C29    C     0.63808   0.39271   1.00000   0.00000  Uiso   1.00
C30    C     0.66682   0.43610   1.00000   0.00000  Uiso   1.00
C31    C     0.65291   0.46538   1.00000   0.00000  Uiso   1.00
C32    C     0.60955   0.45258   1.00000   0.00000  Uiso   1.00
C33    C     0.58106   0.40842   1.00000   0.00000  Uiso   1.00
C34    C     0.59497   0.37922   1.00000   0.00000  Uiso   1.00
C35    C     0.59094   0.48159   1.00000   0.00000  Uiso   1.00
N36    N     0.54786   0.46123   1.00000   0.00000  Uiso   1.00
C37    C     0.52440   0.48045   1.00000   0.00000  Uiso   1.00
C38    C     0.54432   0.52461   1.00000   0.00000  Uiso   1.00
C39    C     0.51961   0.54402   1.00000   0.00000  Uiso   1.00
C40    C     0.34703   0.63821   1.00000   0.00000  Uiso   1.00
N41    N     0.37516   0.68026   1.00000   0.00000  Uiso   1.00
C42    C     0.54738   0.95886   1.00000   0.00000  Uiso   1.00
C43    C     0.38785   0.47312   1.00000   0.00000  Uiso   1.00
C44    C     0.65475   0.55685   1.00000   0.00000  Uiso   1.00
C45    C     0.66173   0.59748   1.00000   0.00000  Uiso   1.00
S46    S     0.61743   0.60142   1.00000   0.00000  Uiso   1.00
C47    C     0.70492   0.63537   1.00000   0.00000  Uiso   1.00
H48    H     0.70045   0.44770   1.00000   0.00000  Uiso   1.00
H49    H     0.67747   0.49713   1.00000   0.00000  Uiso   1.00
H50    H     0.54726   0.39557   1.00000   0.00000  Uiso   1.00
H51    H     0.57170   0.34594   1.00000   0.00000  Uiso   1.00
H52    H     0.53402   0.57803   1.00000   0.00000  Uiso   1.00
H53    H     0.68133   0.55247   1.00000   0.00000  Uiso   1.00
H54    H     0.70357   0.66499   1.00000   0.00000  Uiso   1.00
H55    H     0.36527   0.08826   0.77256   0.00000  Uiso   1.00
C56    C     0.60729   0.24537   1.00000   0.00000  Uiso   1.00
C57    C     0.56390   0.23072   1.00000   0.00000  Uiso   1.00
C58    C     0.53462   0.18753   1.00000   0.00000  Uiso   1.00
C59    C     0.54742   0.15697   1.00000   0.00000  Uiso   1.00
C60    C     0.59158   0.17264   1.00000   0.00000  Uiso   1.00
C61    C     0.62078   0.21575   1.00000   0.00000  Uiso   1.00
C62    C     0.51841   0.10935   1.00000   0.00000  Uiso   1.00
N63    N     0.53877   0.08663   1.00000   0.00000  Uiso   1.00
C64    C     0.51955   0.04395   1.00000   0.00000  Uiso   1.00
C65    C     0.47539   0.01971   1.00000   0.00000  Uiso   1.00
C66    C     0.45598   0.97559   1.00000   0.00000  Uiso   1.00
C67    C     0.36179   0.70882   1.00000   0.00000  Uiso   1.00
N68    N     0.31974   0.69490   1.00000   0.00000  Uiso   1.00
C69    C     0.04114   0.58852   1.00000   0.00000  Uiso   1.00
C70    C     0.52688   0.91473   1.00000   0.00000  Uiso   1.00
C71    C     0.44315   0.09790   1.00000   0.00000  Uiso   1.00
C72    C     0.40252   0.06425   1.00000   0.00000  Uiso   1.00
S73    S     0.39858   0.01601   1.00000   0.00000  Uiso   1.00
C74    C     0.36463   0.06955   1.00000   0.00000  Uiso   1.00
H75    H     0.55230   0.25275   1.00000   0.00000  Uiso   1.00
H76    H     0.50287   0.18034   1.00000   0.00000  Uiso   1.00
H77    H     0.60443   0.15169   1.00000   0.00000  Uiso   1.00
H78    H     0.65406   0.22576   1.00000   0.00000  Uiso   1.00
H79    H     0.42197   0.95599   1.00000   0.00000  Uiso   1.00
H80    H     0.44753   0.12886   1.00000   0.00000  Uiso   1.00
H81    H     0.33501   0.03858   1.00000   0.00000  Uiso   1.00
H82    H     0.08826   0.72299   0.77256   0.00000  Uiso   1.00
C83    C     0.24537   0.63808   1.00000   0.00000  Uiso   1.00
C84    C     0.23072   0.66682   1.00000   0.00000  Uiso   1.00
C85    C     0.18753   0.65291   1.00000   0.00000  Uiso   1.00
C86    C     0.15697   0.60955   1.00000   0.00000  Uiso   1.00
C87    C     0.17264   0.58106   1.00000   0.00000  Uiso   1.00
C88    C     0.21575   0.59497   1.00000   0.00000  Uiso   1.00
C89    C     0.10935   0.59094   1.00000   0.00000  Uiso   1.00
N90    N     0.08663   0.54786   1.00000   0.00000  Uiso   1.00
C91    C     0.04395   0.52440   1.00000   0.00000  Uiso   1.00
C92    C     0.01971   0.54432   1.00000   0.00000  Uiso   1.00
C93    C     0.97559   0.51961   1.00000   0.00000  Uiso   1.00
C94    C     0.70882   0.34703   1.00000   0.00000  Uiso   1.00
N95    N     0.69490   0.37516   1.00000   0.00000  Uiso   1.00
C96    C     0.58852   0.54738   1.00000   0.00000  Uiso   1.00
C97    C     0.91473   0.38785   1.00000   0.00000  Uiso   1.00
C98    C     0.09790   0.65475   1.00000   0.00000  Uiso   1.00
C99    C     0.06425   0.66173   1.00000   0.00000  Uiso   1.00
S100   S     0.01601   0.61743   1.00000   0.00000  Uiso   1.00
C101   C     0.06955   0.70492   1.00000   0.00000  Uiso   1.00
H102   H     0.25275   0.70045   1.00000   0.00000  Uiso   1.00
H103   H     0.18034   0.67747   1.00000   0.00000  Uiso   1.00
H104   H     0.15169   0.54726   1.00000   0.00000  Uiso   1.00
H105   H     0.22576   0.57170   1.00000   0.00000  Uiso   1.00
H106   H     0.95599   0.53402   1.00000   0.00000  Uiso   1.00
H107   H     0.12886   0.68133   1.00000   0.00000  Uiso   1.00
H108   H     0.03858   0.70357   1.00000   0.00000  Uiso   1.00
H109   H     0.27701   0.36527   0.77256   0.00000  Uiso   1.00
C110   C     0.36192   0.60729   1.00000   0.00000  Uiso   1.00
C111   C     0.33318   0.56390   1.00000   0.00000  Uiso   1.00
C112   C     0.34709   0.53462   1.00000   0.00000  Uiso   1.00
C113   C     0.39045   0.54742   1.00000   0.00000  Uiso   1.00
C114   C     0.41894   0.59158   1.00000   0.00000  Uiso   1.00
C115   C     0.40503   0.62078   1.00000   0.00000  Uiso   1.00
C116   C     0.40906   0.51841   1.00000   0.00000  Uiso   1.00
N117   N     0.45214   0.53877   1.00000   0.00000  Uiso   1.00
C118   C     0.47560   0.51955   1.00000   0.00000  Uiso   1.00
C119   C     0.45568   0.47539   1.00000   0.00000  Uiso   1.00
C120   C     0.48039   0.45598   1.00000   0.00000  Uiso   1.00
C121   C     0.65297   0.36179   1.00000   0.00000  Uiso   1.00
N122   N     0.62484   0.31974   1.00000   0.00000  Uiso   1.00
C123   C     0.45262   0.04114   1.00000   0.00000  Uiso   1.00
C124   C     0.61215   0.52688   1.00000   0.00000  Uiso   1.00
C125   C     0.34525   0.44315   1.00000   0.00000  Uiso   1.00
C126   C     0.33827   0.40252   1.00000   0.00000  Uiso   1.00
S127   S     0.38257   0.39858   1.00000   0.00000  Uiso   1.00
C128   C     0.29508   0.36463   1.00000   0.00000  Uiso   1.00
H129   H     0.29955   0.55230   1.00000   0.00000  Uiso   1.00
H130   H     0.32253   0.50287   1.00000   0.00000  Uiso   1.00
H131   H     0.45274   0.60443   1.00000   0.00000  Uiso   1.00
H132   H     0.42830   0.65406   1.00000   0.00000  Uiso   1.00
H133   H     0.46598   0.42197   1.00000   0.00000  Uiso   1.00
H134   H     0.31867   0.44753   1.00000   0.00000  Uiso   1.00
H135   H     0.29643   0.33501   1.00000   0.00000  Uiso   1.00
H136   H     0.63473   0.91174   0.77256   0.00000  Uiso   1.00
C137   C     0.39271   0.75463   1.00000   0.00000  Uiso   1.00
C138   C     0.43610   0.76928   1.00000   0.00000  Uiso   1.00
C139   C     0.46538   0.81247   1.00000   0.00000  Uiso   1.00
C140   C     0.45258   0.84303   1.00000   0.00000  Uiso   1.00
C141   C     0.40842   0.82736   1.00000   0.00000  Uiso   1.00
C142   C     0.37922   0.78425   1.00000   0.00000  Uiso   1.00
C143   C     0.48159   0.89065   1.00000   0.00000  Uiso   1.00
N144   N     0.46123   0.91337   1.00000   0.00000  Uiso   1.00
C145   C     0.48045   0.95605   1.00000   0.00000  Uiso   1.00
C146   C     0.52461   0.98029   1.00000   0.00000  Uiso   1.00
C147   C     0.54402   0.02441   1.00000   0.00000  Uiso   1.00
C148   C     0.63821   0.29118   1.00000   0.00000  Uiso   1.00
N149   N     0.68026   0.30510   1.00000   0.00000  Uiso   1.00
C150   C     0.95886   0.41148   1.00000   0.00000  Uiso   1.00
C151   C     0.47312   0.08527   1.00000   0.00000  Uiso   1.00
C152   C     0.55685   0.90210   1.00000   0.00000  Uiso   1.00
C153   C     0.59748   0.93575   1.00000   0.00000  Uiso   1.00
S154   S     0.60142   0.98399   1.00000   0.00000  Uiso   1.00
C155   C     0.63537   0.93045   1.00000   0.00000  Uiso   1.00
H156   H     0.44770   0.74725   1.00000   0.00000  Uiso   1.00
H157   H     0.49713   0.81966   1.00000   0.00000  Uiso   1.00
H158   H     0.39557   0.84831   1.00000   0.00000  Uiso   1.00
H159   H     0.34594   0.77424   1.00000   0.00000  Uiso   1.00
H160   H     0.57803   0.04401   1.00000   0.00000  Uiso   1.00
H161   H     0.55247   0.87114   1.00000   0.00000  Uiso   1.00
H162   H     0.66499   0.96142   1.00000   0.00000  Uiso   1.00
loop_
_geom_bond_atom_site_label_1
_geom_bond_atom_site_label_2
_geom_bond_distance
_geom_bond_site_symmetry_2
_ccdc_geom_bond_type
H1     C20     1.094   .     S
C2     C3      1.400   .     D
C2     C7      1.398   .     S
C2     C94     1.482   .     S
C3     C4      1.398   .     S
C3     H21     1.083   .     S
C4     C5      1.413   .     D
C4     H22     1.056   .     S
C5     C6      1.420   .     S
C5     C8      1.522   .     S
C6     C7      1.395   .     D
C6     H23     1.082   .     S
C7     H24     1.083   .     S
C8     N9      1.367   .     D
C8     C97     1.437   .     S
N9     C10     1.355   .     S
C10    C11     1.402   .     S
C10    C93     1.398   .     D
C11    C12     1.402   1_655 S
C11    C150    1.402   .     D
C12    C11     1.402   1_455 S
C12    H25     1.082   .     S
C12    C91     1.398   .     D
C13    N14     1.358   .     D
C13    N68     1.358   .     S
C13    C83     1.482   .     S
N14    C40     1.358   .     S
C15    C43     1.400   .     S
C15    C119    1.402   .     D
C15    S127    1.715   .     S
C16    C69     1.400   .     S
C16    C89     1.437   .     S
C16    C98     1.387   .     D
C17    C18     1.378   .     S
C17    H26     1.062   .     S
C17    C97     1.387   .     D
C18    S19     1.699   .     S
C18    C20     1.494   .     D
S19    C150    1.715   .     S
C20    H27     1.110   .     S
H28    C47     1.094   .     S
C29    C30     1.400   .     D
C29    C34     1.398   .     S
C29    C121    1.482   .     S
C30    C31     1.398   .     S
C30    H48     1.083   .     S
C31    C32     1.413   .     D
C31    H49     1.056   .     S
C32    C33     1.420   .     S
C32    C35     1.522   .     S
C33    C34     1.395   .     D
C33    H50     1.082   .     S
C34    H51     1.083   .     S
C35    N36     1.367   .     D
C35    C124    1.437   .     S
N36    C37     1.355   .     S
C37    C38     1.402   .     S
C37    C120    1.398   .     D
C38    C39     1.402   .     S
C38    C96     1.402   .     D
C39    H52     1.082   .     S
C39    C118    1.398   .     D
C40    N41     1.358   .     D
C40    C110    1.482   .     S
N41    C67     1.358   .     S
C42    C70     1.400   .     S
C42    C146    1.402   .     D
C42    S154    1.715   .     S
C43    C116    1.437   .     S
C43    C125    1.387   .     D
C44    C45     1.378   .     S
C44    H53     1.062   .     S
C44    C124    1.387   .     D
C45    S46     1.699   .     S
C45    C47     1.494   .     D
S46    C96     1.715   .     S
C47    H54     1.110   .     S
H55    C74     1.094   .     S
C56    C57     1.400   .     D
C56    C61     1.398   .     S
C56    C148    1.482   .     S
C57    C58     1.398   .     S
C57    H75     1.083   .     S
C58    C59     1.413   .     D
C58    H76     1.056   .     S
C59    C60     1.420   .     S
C59    C62     1.522   .     S
C60    C61     1.395   .     D
C60    H77     1.082   .     S
C61    H78     1.083   .     S
C62    N63     1.367   .     D
C62    C151    1.437   .     S
N63    C64     1.355   .     S
C64    C65     1.402   .     S
C64    C147    1.398   .     D
C65    C66     1.402   1_545 S
C65    C123    1.402   .     D
C66    C65     1.402   1_565 S
C66    H79     1.082   .     S
C66    C145    1.398   .     D
C67    N68     1.358   .     D
C67    C137    1.482   .     S
C69    C92     1.402   .     D
C69    S100    1.715   .     S
C70    C143    1.437   .     S
C70    C152    1.387   .     D
C71    C72     1.378   .     S
C71    H80     1.062   .     S
C71    C151    1.387   .     D
C72    S73     1.699   .     S
C72    C74     1.494   .     D
S73    C123    1.715   .     S
C74    H81     1.110   .     S
H82    C101    1.094   .     S
C83    C84     1.400   .     D
C83    C88     1.398   .     S
C84    C85     1.398   .     S
C84    H102    1.083   .     S
C85    C86     1.413   .     D
C85    H103    1.056   .     S
C86    C87     1.420   .     S
C86    C89     1.522   .     S
C87    C88     1.395   .     D
C87    H104    1.082   .     S
C88    H105    1.083   .     S
C89    N90     1.367   .     D
N90    C91     1.355   .     S
C91    C92     1.402   .     S
C92    C93     1.402   1_455 S
C93    C92     1.402   1_655 S
C93    H106    1.082   .     S
C94    N95     1.358   .     S
C94    N149    1.358   .     D
N95    C121    1.358   .     D
C96    C124    1.400   .     S
C97    C150    1.400   .     S
C98    C99     1.378   .     S
C98    H107    1.062   .     S
C99    S100    1.699   .     S
C99    C101    1.494   .     D
C101   H108    1.110   .     S
H109   C128    1.094   .     S
C110   C111    1.400   .     D
C110   C115    1.398   .     S
C111   C112    1.398   .     S
C111   H129    1.083   .     S
C112   C113    1.413   .     D
C112   H130    1.056   .     S
C113   C114    1.420   .     S
C113   C116    1.522   .     S
C114   C115    1.395   .     D
C114   H131    1.082   .     S
C115   H132    1.083   .     S
C116   N117    1.367   .     D
N117   C118    1.355   .     S
C118   C119    1.402   .     S
C119   C120    1.402   .     S
C120   H133    1.082   .     S
C121   N122    1.358   .     S
N122   C148    1.358   .     D
C123   C151    1.400   .     S
C125   C126    1.378   .     S
C125   H134    1.062   .     S
C126   S127    1.699   .     S
C126   C128    1.494   .     D
C128   H135    1.110   .     S
H136   C155    1.094   .     S
C137   C138    1.400   .     S
C137   C142    1.398   .     D
C138   C139    1.398   .     D
C138   H156    1.083   .     S
C139   C140    1.413   .     S
C139   H157    1.056   .     S
C140   C141    1.420   .     D
C140   C143    1.522   .     S
C141   C142    1.395   .     S
C141   H158    1.082   .     S
C142   H159    1.083   .     S
C143   N144    1.367   .     D
N144   C145    1.355   .     S
C145   C146    1.402   .     S
C146   C147    1.402   1_565 S
C147   C146    1.402   1_545 S
C147   H160    1.082   .     S
C148   N149    1.358   .     S
C152   C153    1.378   .     S
C152   H161    1.062   .     S
C153   S154    1.699   .     S
C153   C155    1.494   .     D
C155   H162    1.110   .     S
