data_469
_audit_creation_date              2023-09-08
_audit_creation_method            'Materials Studio'
_symmetry_space_group_name_H-M    'P1'
_symmetry_Int_Tables_number       1
_symmetry_cell_setting            triclinic
loop_
_symmetry_equiv_pos_as_xyz
  x,y,z
_cell_length_a                    34.5500
_cell_length_b                    34.5500
_cell_length_c                    3.4000
_cell_angle_alpha                 90.0000
_cell_angle_beta                  90.0000
_cell_angle_gamma                 120.0000
loop_
_atom_site_label
_atom_site_type_symbol
_atom_site_fract_x
_atom_site_fract_y
_atom_site_fract_z
_atom_site_U_iso_or_equiv
_atom_site_adp_type
_atom_site_occupancy
B1     B     0.85315   0.44876   0.50000   0.00000  Uiso   1.00
C2     C     0.90327   0.47649   0.50000   0.00000  Uiso   1.00
C3     C     0.97852   0.49864   0.50000   0.00000  Uiso   1.00
O4     O     0.83244   0.40052   0.50000   0.00000  Uiso   1.00
C5     C     0.71049   0.33985   0.50000   0.00000  Uiso   1.00
C6     C     0.78910   0.38999   0.50000   0.00000  Uiso   1.00
C7     C     0.75443   0.34733   0.50000   0.00000  Uiso   1.00
H8     H     0.76396   0.32215   0.50000   0.00000  Uiso   1.00
O9     O     0.35632   0.82271   0.50000   0.00000  Uiso   1.00
C10    C     0.40585   0.92812   0.50000   0.00000  Uiso   1.00
C11    C     0.43704   0.97235   0.50000   0.00000  Uiso   1.00
C12    C     0.32627   0.70380   0.50000   0.00000  Uiso   1.00
C13    C     0.35713   0.78334   0.50000   0.00000  Uiso   1.00
C14    C     0.32033   0.74164   0.50000   0.00000  Uiso   1.00
H15    H     0.28898   0.74105   0.50000   0.00000  Uiso   1.00
S16    S     0.55153   0.48323   0.50000   0.00000  Uiso   1.00
H17    H     0.36998   0.91456   0.50000   0.00000  Uiso   1.00
H18    H     0.42910   0.99896   0.50000   0.00000  Uiso   1.00
B19    B     0.55124   0.40439   0.50000   0.00000  Uiso   1.00
C20    C     0.52351   0.42678   0.50000   0.00000  Uiso   1.00
C21    C     0.50136   0.47988   0.50000   0.00000  Uiso   1.00
O22    O     0.59948   0.43191   0.50000   0.00000  Uiso   1.00
C23    C     0.66015   0.37064   0.50000   0.00000  Uiso   1.00
C24    C     0.61001   0.39911   0.50000   0.00000  Uiso   1.00
C25    C     0.65267   0.40710   0.50000   0.00000  Uiso   1.00
H26    H     0.67785   0.44181   0.50000   0.00000  Uiso   1.00
O27    O     0.17730   0.53362   0.50000   0.00000  Uiso   1.00
C28    C     0.07189   0.47774   0.50000   0.00000  Uiso   1.00
C29    C     0.02765   0.46469   0.50000   0.00000  Uiso   1.00
C30    C     0.29620   0.62247   0.50000   0.00000  Uiso   1.00
C31    C     0.21666   0.57380   0.50000   0.00000  Uiso   1.00
C32    C     0.25836   0.57869   0.50000   0.00000  Uiso   1.00
H33    H     0.25895   0.54793   0.50000   0.00000  Uiso   1.00
S34    S     0.51677   0.06830   0.50000   0.00000  Uiso   1.00
H35    H     0.08544   0.45542   0.50000   0.00000  Uiso   1.00
H36    H     0.00104   0.43014   0.50000   0.00000  Uiso   1.00
B37    B     0.59561   0.14685   0.50000   0.00000  Uiso   1.00
C38    C     0.57322   0.09673   0.50000   0.00000  Uiso   1.00
C39    C     0.52012   0.02148   0.50000   0.00000  Uiso   1.00
O40    O     0.56809   0.16756   0.50000   0.00000  Uiso   1.00
C41    C     0.62936   0.28951   0.50000   0.00000  Uiso   1.00
C42    C     0.60089   0.21090   0.50000   0.00000  Uiso   1.00
C43    C     0.59290   0.24557   0.50000   0.00000  Uiso   1.00
H44    H     0.55819   0.23604   0.50000   0.00000  Uiso   1.00
O45    O     0.46638   0.64368   0.50000   0.00000  Uiso   1.00
C46    C     0.52226   0.59415   0.50000   0.00000  Uiso   1.00
C47    C     0.53531   0.56296   0.50000   0.00000  Uiso   1.00
C48    C     0.37753   0.67373   0.50000   0.00000  Uiso   1.00
C49    C     0.42620   0.64287   0.50000   0.00000  Uiso   1.00
C50    C     0.42131   0.67967   0.50000   0.00000  Uiso   1.00
H51    H     0.45207   0.71102   0.50000   0.00000  Uiso   1.00
S52    S     0.93170   0.44847   0.50000   0.00000  Uiso   1.00
H53    H     0.54458   0.63002   0.50000   0.00000  Uiso   1.00
H54    H     0.56986   0.57090   0.50000   0.00000  Uiso   1.00
B55    B     0.14685   0.55124   0.50000   0.00000  Uiso   1.00
C56    C     0.09673   0.52351   0.50000   0.00000  Uiso   1.00
C57    C     0.02148   0.50136   0.50000   0.00000  Uiso   1.00
O58    O     0.16756   0.59948   0.50000   0.00000  Uiso   1.00
C59    C     0.28951   0.66015   0.50000   0.00000  Uiso   1.00
C60    C     0.21090   0.61001   0.50000   0.00000  Uiso   1.00
C61    C     0.24557   0.65267   0.50000   0.00000  Uiso   1.00
H62    H     0.23604   0.67785   0.50000   0.00000  Uiso   1.00
O63    O     0.64368   0.17730   0.50000   0.00000  Uiso   1.00
C64    C     0.59415   0.07189   0.50000   0.00000  Uiso   1.00
C65    C     0.56296   0.02765   0.50000   0.00000  Uiso   1.00
C66    C     0.67373   0.29620   0.50000   0.00000  Uiso   1.00
C67    C     0.64287   0.21666   0.50000   0.00000  Uiso   1.00
C68    C     0.67967   0.25836   0.50000   0.00000  Uiso   1.00
H69    H     0.71102   0.25895   0.50000   0.00000  Uiso   1.00
S70    S     0.44847   0.51677   0.50000   0.00000  Uiso   1.00
H71    H     0.63002   0.08544   0.50000   0.00000  Uiso   1.00
H72    H     0.57090   0.00104   0.50000   0.00000  Uiso   1.00
B73    B     0.44876   0.59561   0.50000   0.00000  Uiso   1.00
C74    C     0.47649   0.57322   0.50000   0.00000  Uiso   1.00
C75    C     0.49864   0.52012   0.50000   0.00000  Uiso   1.00
O76    O     0.40052   0.56809   0.50000   0.00000  Uiso   1.00
C77    C     0.33985   0.62936   0.50000   0.00000  Uiso   1.00
C78    C     0.38999   0.60089   0.50000   0.00000  Uiso   1.00
C79    C     0.34733   0.59290   0.50000   0.00000  Uiso   1.00
H80    H     0.32215   0.55819   0.50000   0.00000  Uiso   1.00
O81    O     0.82270   0.46638   0.50000   0.00000  Uiso   1.00
C82    C     0.92811   0.52226   0.50000   0.00000  Uiso   1.00
C83    C     0.97235   0.53531   0.50000   0.00000  Uiso   1.00
C84    C     0.70380   0.37753   0.50000   0.00000  Uiso   1.00
C85    C     0.78334   0.42620   0.50000   0.00000  Uiso   1.00
C86    C     0.74164   0.42131   0.50000   0.00000  Uiso   1.00
H87    H     0.74105   0.45207   0.50000   0.00000  Uiso   1.00
S88    S     0.48323   0.93170   0.50000   0.00000  Uiso   1.00
H89    H     0.91456   0.54458   0.50000   0.00000  Uiso   1.00
H90    H     0.99896   0.56986   0.50000   0.00000  Uiso   1.00
B91    B     0.40439   0.85315   0.50000   0.00000  Uiso   1.00
C92    C     0.42678   0.90327   0.50000   0.00000  Uiso   1.00
C93    C     0.47988   0.97852   0.50000   0.00000  Uiso   1.00
O94    O     0.43191   0.83244   0.50000   0.00000  Uiso   1.00
C95    C     0.37064   0.71049   0.50000   0.00000  Uiso   1.00
C96    C     0.39911   0.78910   0.50000   0.00000  Uiso   1.00
C97    C     0.40710   0.75443   0.50000   0.00000  Uiso   1.00
H98    H     0.44181   0.76396   0.50000   0.00000  Uiso   1.00
O99    O     0.53362   0.35632   0.50000   0.00000  Uiso   1.00
C100   C     0.47774   0.40585   0.50000   0.00000  Uiso   1.00
C101   C     0.46469   0.43704   0.50000   0.00000  Uiso   1.00
C102   C     0.62247   0.32627   0.50000   0.00000  Uiso   1.00
C103   C     0.57380   0.35713   0.50000   0.00000  Uiso   1.00
C104   C     0.57869   0.32033   0.50000   0.00000  Uiso   1.00
H105   H     0.54793   0.28898   0.50000   0.00000  Uiso   1.00
S106   S     0.06830   0.55153   0.50000   0.00000  Uiso   1.00
H107   H     0.45542   0.36998   0.50000   0.00000  Uiso   1.00
H108   H     0.43014   0.42910   0.50000   0.00000  Uiso   1.00
loop_
_geom_bond_atom_site_label_1
_geom_bond_atom_site_label_2
_geom_bond_distance
_geom_bond_site_symmetry_2
_ccdc_geom_bond_type
B1     C2      1.502   .     S
B1     O4      1.448   .     S
B1     O81     1.455   .     S
C2     S52     1.689   .     S
C2     C82     1.371   .     D
C3     S52     1.678   .     S
C3     C57     1.439   1_655 S
C3     C83     1.386   .     D
O4     C6      1.353   .     S
C5     C7      1.407   .     S
C5     C66     1.404   .     S
C5     C84     1.431   .     D
C6     C7      1.357   .     D
C6     C85     1.362   .     S
C7     H8      1.073   .     S
O9     C13     1.374   .     S
O9     B91     1.455   .     S
C10    C11     1.360   .     S
C10    H17     1.084   .     S
C10    C92     1.371   .     D
C11    H18     1.083   .     S
C11    C93     1.386   .     D
C12    C14     1.421   .     D
C12    C59     1.404   .     S
C12    C95     1.431   .     S
C13    C14     1.364   .     S
C13    C96     1.362   .     D
C14    H15     1.073   .     S
S16    C20     1.689   .     S
S16    C21     1.678   .     S
B19    C20     1.502   .     S
B19    O22     1.448   .     S
B19    O99     1.455   .     S
C20    C100    1.371   .     D
C21    C75     1.439   .     S
C21    C101    1.386   .     D
O22    C24     1.352   .     S
C23    C25     1.407   .     D
C23    C84     1.404   .     S
C23    C102    1.431   .     S
C24    C25     1.357   .     S
C24    C103    1.362   .     D
C25    H26     1.073   .     S
O27    C31     1.374   .     S
O27    B55     1.455   .     S
C28    C29     1.360   .     S
C28    H35     1.084   .     S
C28    C56     1.371   .     D
C29    H36     1.083   .     S
C29    C57     1.386   .     D
C30    C32     1.421   .     S
C30    C59     1.431   .     D
C30    C77     1.404   .     S
C31    C32     1.364   .     D
C31    C60     1.362   .     S
C32    H33     1.073   .     S
S34    C38     1.689   .     S
S34    C39     1.678   .     S
B37    C38     1.502   .     S
B37    O40     1.448   .     S
B37    O63     1.455   .     S
C38    C64     1.371   .     D
C39    C65     1.386   .     D
C39    C93     1.439   1_545 S
O40    C42     1.352   .     S
C41    C43     1.407   .     D
C41    C66     1.431   .     S
C41    C102    1.404   .     S
C42    C43     1.357   .     S
C42    C67     1.362   .     D
C43    H44     1.073   .     S
O45    C49     1.374   .     S
O45    B73     1.455   .     S
C46    C47     1.360   .     S
C46    H53     1.084   .     S
C46    C74     1.371   .     D
C47    H54     1.083   .     S
C47    C75     1.386   .     D
C48    C50     1.421   .     D
C48    C77     1.431   .     S
C48    C95     1.404   .     S
C49    C50     1.364   .     S
C49    C78     1.362   .     D
C50    H51     1.073   .     S
B55    C56     1.502   .     S
B55    O58     1.448   .     S
C56    S106    1.689   .     S
C57    C3      1.439   1_455 S
C57    S106    1.678   .     S
O58    C60     1.353   .     S
C59    C61     1.407   .     S
C60    C61     1.357   .     D
C61    H62     1.073   .     S
O63    C67     1.374   .     S
C64    C65     1.360   .     S
C64    H71     1.084   .     S
C65    H72     1.083   .     S
C66    C68     1.421   .     D
C67    C68     1.364   .     S
C68    H69     1.073   .     S
S70    C74     1.689   .     S
S70    C75     1.678   .     S
B73    C74     1.502   .     S
B73    O76     1.448   .     S
O76    C78     1.352   .     S
C77    C79     1.407   .     D
C78    C79     1.357   .     S
C79    H80     1.073   .     S
O81    C85     1.374   .     S
C82    C83     1.360   .     S
C82    H89     1.084   .     S
C83    H90     1.083   .     S
C84    C86     1.421   .     S
C85    C86     1.364   .     D
C86    H87     1.073   .     S
S88    C92     1.689   .     S
S88    C93     1.678   .     S
B91    C92     1.502   .     S
B91    O94     1.448   .     S
C93    C39     1.439   1_565 S
O94    C96     1.352   .     S
C95    C97     1.407   .     D
C96    C97     1.357   .     S
C97    H98     1.073   .     S
O99    C103    1.374   .     S
C100   C101    1.360   .     S
C100   H107    1.084   .     S
C101   H108    1.083   .     S
C102   C104    1.421   .     D
C103   C104    1.364   .     S
C104   H105    1.073   .     S
