data_47
_audit_creation_date              2023-09-08
_audit_creation_method            'Materials Studio'
_symmetry_space_group_name_H-M    'P1'
_symmetry_Int_Tables_number       1
_symmetry_cell_setting            triclinic
loop_
_symmetry_equiv_pos_as_xyz
  x,y,z
_cell_length_a                    46.4130
_cell_length_b                    46.4130
_cell_length_c                    4.4650
_cell_angle_alpha                 90.0000
_cell_angle_beta                  90.0000
_cell_angle_gamma                 120.0000
loop_
_atom_site_label
_atom_site_type_symbol
_atom_site_fract_x
_atom_site_fract_y
_atom_site_fract_z
_atom_site_U_iso_or_equiv
_atom_site_adp_type
_atom_site_occupancy
C1     C     0.48474   0.48621   0.48266   0.00000  Uiso   1.00
C2     C     0.51379   0.99853   0.48266   0.00000  Uiso   1.00
C3     C     0.00147   0.51526   0.48266   0.00000  Uiso   1.00
C4     C     0.51526   0.51379   0.48266   0.00000  Uiso   1.00
C5     C     0.48621   0.00147   0.48266   0.00000  Uiso   1.00
C6     C     0.99853   0.48474   0.48266   0.00000  Uiso   1.00
C7     C     0.51973   0.54732   0.47664   0.00000  Uiso   1.00
C8     C     0.45268   0.97241   0.47664   0.00000  Uiso   1.00
C9     C     0.02759   0.48027   0.47664   0.00000  Uiso   1.00
C10    C     0.48027   0.45268   0.47664   0.00000  Uiso   1.00
C11    C     0.54732   0.02759   0.47664   0.00000  Uiso   1.00
C12    C     0.97241   0.51973   0.47664   0.00000  Uiso   1.00
C13    C     0.54629   0.51248   0.47792   0.00000  Uiso   1.00
C14    C     0.48752   0.03381   0.47792   0.00000  Uiso   1.00
C15    C     0.96619   0.45371   0.47792   0.00000  Uiso   1.00
C16    C     0.45371   0.48752   0.47792   0.00000  Uiso   1.00
C17    C     0.51248   0.96619   0.47792   0.00000  Uiso   1.00
C18    C     0.03381   0.54629   0.47792   0.00000  Uiso   1.00
C19    C     0.57161   0.53280   0.30656   0.00000  Uiso   1.00
C20    C     0.46720   0.03881   0.30656   0.00000  Uiso   1.00
C21    C     0.96119   0.42839   0.30656   0.00000  Uiso   1.00
C22    C     0.42839   0.46720   0.30656   0.00000  Uiso   1.00
C23    C     0.53280   0.96119   0.30656   0.00000  Uiso   1.00
C24    C     0.03881   0.57161   0.30656   0.00000  Uiso   1.00
C25    C     0.60077   0.53204   0.29905   0.00000  Uiso   1.00
C26    C     0.46796   0.06873   0.29905   0.00000  Uiso   1.00
C27    C     0.93127   0.39923   0.29905   0.00000  Uiso   1.00
C28    C     0.39923   0.46796   0.29905   0.00000  Uiso   1.00
C29    C     0.53204   0.93127   0.29905   0.00000  Uiso   1.00
C30    C     0.06873   0.60077   0.29905   0.00000  Uiso   1.00
C31    C     0.60521   0.51088   0.46405   0.00000  Uiso   1.00
C32    C     0.48912   0.09433   0.46405   0.00000  Uiso   1.00
C33    C     0.90567   0.39479   0.46405   0.00000  Uiso   1.00
C34    C     0.39479   0.48912   0.46405   0.00000  Uiso   1.00
C35    C     0.51088   0.90567   0.46405   0.00000  Uiso   1.00
C36    C     0.09433   0.60521   0.46405   0.00000  Uiso   1.00
C37    C     0.58018   0.49066   0.63439   0.00000  Uiso   1.00
C38    C     0.50934   0.08952   0.63439   0.00000  Uiso   1.00
C39    C     0.91048   0.41982   0.63439   0.00000  Uiso   1.00
C40    C     0.41982   0.50934   0.63439   0.00000  Uiso   1.00
C41    C     0.49066   0.91048   0.63439   0.00000  Uiso   1.00
C42    C     0.08952   0.58018   0.63439   0.00000  Uiso   1.00
C43    C     0.55131   0.49185   0.64410   0.00000  Uiso   1.00
C44    C     0.50815   0.05946   0.64410   0.00000  Uiso   1.00
C45    C     0.94054   0.44869   0.64410   0.00000  Uiso   1.00
C46    C     0.44869   0.50815   0.64410   0.00000  Uiso   1.00
C47    C     0.49185   0.94054   0.64410   0.00000  Uiso   1.00
C48    C     0.05946   0.55131   0.64410   0.00000  Uiso   1.00
C49    C     0.45948   0.42899   0.65637   0.00000  Uiso   1.00
C50    C     0.57101   0.03049   0.65637   0.00000  Uiso   1.00
C51    C     0.96951   0.54052   0.65637   0.00000  Uiso   1.00
C52    C     0.54052   0.57101   0.65637   0.00000  Uiso   1.00
C53    C     0.42899   0.96951   0.65637   0.00000  Uiso   1.00
C54    C     0.03049   0.45948   0.65637   0.00000  Uiso   1.00
C55    C     0.45516   0.39750   0.65108   0.00000  Uiso   1.00
C56    C     0.60250   0.05766   0.65108   0.00000  Uiso   1.00
C57    C     0.94234   0.54484   0.65108   0.00000  Uiso   1.00
C58    C     0.54484   0.60250   0.65108   0.00000  Uiso   1.00
C59    C     0.39750   0.94234   0.65108   0.00000  Uiso   1.00
C60    C     0.05766   0.45516   0.65108   0.00000  Uiso   1.00
C61    C     0.47177   0.38927   0.46800   0.00000  Uiso   1.00
C62    C     0.61073   0.08250   0.46800   0.00000  Uiso   1.00
C63    C     0.91750   0.52823   0.46800   0.00000  Uiso   1.00
C64    C     0.52823   0.61073   0.46800   0.00000  Uiso   1.00
C65    C     0.38927   0.91750   0.46800   0.00000  Uiso   1.00
C66    C     0.08250   0.47177   0.46800   0.00000  Uiso   1.00
C67    C     0.49166   0.41258   0.28206   0.00000  Uiso   1.00
C68    C     0.58742   0.07908   0.28206   0.00000  Uiso   1.00
C69    C     0.92092   0.50834   0.28206   0.00000  Uiso   1.00
C70    C     0.50834   0.58742   0.28206   0.00000  Uiso   1.00
C71    C     0.41258   0.92092   0.28206   0.00000  Uiso   1.00
C72    C     0.07908   0.49166   0.28206   0.00000  Uiso   1.00
C73    C     0.49551   0.44380   0.28614   0.00000  Uiso   1.00
C74    C     0.55620   0.05171   0.28614   0.00000  Uiso   1.00
C75    C     0.94829   0.50449   0.28614   0.00000  Uiso   1.00
C76    C     0.50449   0.55620   0.28614   0.00000  Uiso   1.00
C77    C     0.44380   0.94829   0.28614   0.00000  Uiso   1.00
C78    C     0.05171   0.49551   0.28614   0.00000  Uiso   1.00
N79    N     0.53262   0.64303   0.47056   0.00000  Uiso   1.00
N80    N     0.35697   0.88959   0.47056   0.00000  Uiso   1.00
N81    N     0.11041   0.46738   0.47056   0.00000  Uiso   1.00
N82    N     0.46738   0.35697   0.47056   0.00000  Uiso   1.00
N83    N     0.64303   0.11041   0.47056   0.00000  Uiso   1.00
N84    N     0.88959   0.53262   0.47056   0.00000  Uiso   1.00
C85    C     0.51035   0.64986   0.40028   0.00000  Uiso   1.00
C86    C     0.35014   0.86049   0.40028   0.00000  Uiso   1.00
C87    C     0.13951   0.48965   0.40028   0.00000  Uiso   1.00
C88    C     0.48965   0.35014   0.40028   0.00000  Uiso   1.00
C89    C     0.64986   0.13951   0.40028   0.00000  Uiso   1.00
C90    C     0.86049   0.51035   0.40028   0.00000  Uiso   1.00
N91    N     0.63409   0.50822   0.45469   0.00000  Uiso   1.00
N92    N     0.49178   0.12587   0.45469   0.00000  Uiso   1.00
N93    N     0.87413   0.36591   0.45469   0.00000  Uiso   1.00
N94    N     0.36591   0.49178   0.45469   0.00000  Uiso   1.00
N95    N     0.50822   0.87413   0.45469   0.00000  Uiso   1.00
N96    N     0.12587   0.63409   0.45469   0.00000  Uiso   1.00
C97    C     0.66312   0.53199   0.40099   0.00000  Uiso   1.00
C98    C     0.46801   0.13113   0.40099   0.00000  Uiso   1.00
C99    C     0.86887   0.33688   0.40099   0.00000  Uiso   1.00
C100   C     0.33688   0.46801   0.40099   0.00000  Uiso   1.00
C101   C     0.53199   0.86887   0.40099   0.00000  Uiso   1.00
C102   C     0.13113   0.66312   0.40099   0.00000  Uiso   1.00
C103   C     0.48289   0.31631   0.40351   0.00000  Uiso   1.00
C104   C     0.68369   0.16658   0.40351   0.00000  Uiso   1.00
C105   C     0.83342   0.51711   0.40351   0.00000  Uiso   1.00
C106   C     0.51711   0.68369   0.40351   0.00000  Uiso   1.00
C107   C     0.31631   0.83342   0.40351   0.00000  Uiso   1.00
C108   C     0.16658   0.48289   0.40351   0.00000  Uiso   1.00
S109   S     0.44186   0.28140   0.43759   0.00000  Uiso   1.00
S110   S     0.71860   0.16046   0.43759   0.00000  Uiso   1.00
S111   S     0.83954   0.55814   0.43759   0.00000  Uiso   1.00
S112   S     0.55814   0.71860   0.43759   0.00000  Uiso   1.00
S113   S     0.28140   0.83954   0.43759   0.00000  Uiso   1.00
S114   S     0.16046   0.44186   0.43759   0.00000  Uiso   1.00
C115   C     0.46043   0.25631   0.41180   0.00000  Uiso   1.00
C116   C     0.74369   0.20412   0.41180   0.00000  Uiso   1.00
C117   C     0.79588   0.53957   0.41180   0.00000  Uiso   1.00
C118   C     0.53957   0.74369   0.41180   0.00000  Uiso   1.00
C119   C     0.25631   0.79588   0.41180   0.00000  Uiso   1.00
C120   C     0.20412   0.46043   0.41180   0.00000  Uiso   1.00
C121   C     0.49408   0.27411   0.38466   0.00000  Uiso   1.00
C122   C     0.72589   0.21997   0.38466   0.00000  Uiso   1.00
C123   C     0.78003   0.50592   0.38466   0.00000  Uiso   1.00
C124   C     0.50592   0.72589   0.38466   0.00000  Uiso   1.00
C125   C     0.27411   0.78003   0.38466   0.00000  Uiso   1.00
C126   C     0.21997   0.49408   0.38466   0.00000  Uiso   1.00
C127   C     0.50649   0.30898   0.37800   0.00000  Uiso   1.00
C128   C     0.69102   0.19751   0.37800   0.00000  Uiso   1.00
C129   C     0.80249   0.49351   0.37800   0.00000  Uiso   1.00
C130   C     0.49351   0.69102   0.37800   0.00000  Uiso   1.00
C131   C     0.30898   0.80249   0.37800   0.00000  Uiso   1.00
C132   C     0.19751   0.50649   0.37800   0.00000  Uiso   1.00
C133   C     0.51274   0.25870   0.36910   0.00000  Uiso   1.00
C134   C     0.74130   0.25404   0.36910   0.00000  Uiso   1.00
C135   C     0.74596   0.48726   0.36910   0.00000  Uiso   1.00
C136   C     0.48726   0.74130   0.36910   0.00000  Uiso   1.00
C137   C     0.25870   0.74596   0.36910   0.00000  Uiso   1.00
C138   C     0.25404   0.51274   0.36910   0.00000  Uiso   1.00
C139   C     0.49620   0.22457   0.37936   0.00000  Uiso   1.00
C140   C     0.77543   0.27163   0.37936   0.00000  Uiso   1.00
C141   C     0.72837   0.50380   0.37936   0.00000  Uiso   1.00
C142   C     0.50380   0.77543   0.37936   0.00000  Uiso   1.00
C143   C     0.22457   0.72837   0.37936   0.00000  Uiso   1.00
C144   C     0.27163   0.49620   0.37936   0.00000  Uiso   1.00
C145   C     0.46247   0.20668   0.40062   0.00000  Uiso   1.00
C146   C     0.79332   0.25579   0.40062   0.00000  Uiso   1.00
C147   C     0.74421   0.53753   0.40062   0.00000  Uiso   1.00
C148   C     0.53753   0.79332   0.40062   0.00000  Uiso   1.00
C149   C     0.20668   0.74421   0.40062   0.00000  Uiso   1.00
C150   C     0.25579   0.46247   0.40062   0.00000  Uiso   1.00
C151   C     0.44382   0.22213   0.41880   0.00000  Uiso   1.00
C152   C     0.77787   0.22169   0.41880   0.00000  Uiso   1.00
C153   C     0.77831   0.55618   0.41880   0.00000  Uiso   1.00
C154   C     0.55618   0.77787   0.41880   0.00000  Uiso   1.00
C155   C     0.22213   0.77831   0.41880   0.00000  Uiso   1.00
C156   C     0.22169   0.44382   0.41880   0.00000  Uiso   1.00
C157   C     0.45019   0.17178   0.40583   0.00000  Uiso   1.00
C158   C     0.82822   0.27841   0.40583   0.00000  Uiso   1.00
C159   C     0.72159   0.54981   0.40583   0.00000  Uiso   1.00
C160   C     0.54981   0.82822   0.40583   0.00000  Uiso   1.00
C161   C     0.17178   0.72159   0.40583   0.00000  Uiso   1.00
C162   C     0.27841   0.45019   0.40583   0.00000  Uiso   1.00
C163   C     0.47411   0.16473   0.39422   0.00000  Uiso   1.00
C164   C     0.83527   0.30938   0.39422   0.00000  Uiso   1.00
C165   C     0.69062   0.52589   0.39422   0.00000  Uiso   1.00
C166   C     0.52589   0.83527   0.39422   0.00000  Uiso   1.00
C167   C     0.16473   0.69062   0.39422   0.00000  Uiso   1.00
C168   C     0.30938   0.47411   0.39422   0.00000  Uiso   1.00
S169   S     0.51516   0.19982   0.37111   0.00000  Uiso   1.00
S170   S     0.80018   0.31534   0.37111   0.00000  Uiso   1.00
S171   S     0.68466   0.48484   0.37111   0.00000  Uiso   1.00
S172   S     0.48484   0.80018   0.37111   0.00000  Uiso   1.00
S173   S     0.19982   0.68466   0.37111   0.00000  Uiso   1.00
S174   S     0.31534   0.51516   0.37111   0.00000  Uiso   1.00
H175   H     0.44682   0.43498   0.80183   0.00000  Uiso   1.00
H176   H     0.56502   0.01184   0.80183   0.00000  Uiso   1.00
H177   H     0.98816   0.55318   0.80183   0.00000  Uiso   1.00
H178   H     0.55318   0.56502   0.80183   0.00000  Uiso   1.00
H179   H     0.43498   0.98816   0.80183   0.00000  Uiso   1.00
H180   H     0.01184   0.44682   0.80183   0.00000  Uiso   1.00
H181   H     0.43934   0.37966   0.79306   0.00000  Uiso   1.00
H182   H     0.62034   0.05968   0.79306   0.00000  Uiso   1.00
H183   H     0.94032   0.56066   0.79306   0.00000  Uiso   1.00
H184   H     0.56066   0.62034   0.79306   0.00000  Uiso   1.00
H185   H     0.37966   0.94032   0.79306   0.00000  Uiso   1.00
H186   H     0.05968   0.43934   0.79306   0.00000  Uiso   1.00
H187   H     0.50381   0.40660   0.13152   0.00000  Uiso   1.00
H188   H     0.59340   0.09721   0.13152   0.00000  Uiso   1.00
H189   H     0.90279   0.49619   0.13152   0.00000  Uiso   1.00
H190   H     0.49619   0.59340   0.13152   0.00000  Uiso   1.00
H191   H     0.40660   0.90279   0.13152   0.00000  Uiso   1.00
H192   H     0.09721   0.50381   0.13152   0.00000  Uiso   1.00
H193   H     0.51072   0.46140   0.14393   0.00000  Uiso   1.00
H194   H     0.53860   0.04932   0.14393   0.00000  Uiso   1.00
H195   H     0.95068   0.48928   0.14393   0.00000  Uiso   1.00
H196   H     0.48928   0.53860   0.14393   0.00000  Uiso   1.00
H197   H     0.46140   0.95068   0.14393   0.00000  Uiso   1.00
H198   H     0.04932   0.51072   0.14393   0.00000  Uiso   1.00
H199   H     0.53208   0.32700   0.35554   0.00000  Uiso   1.00
H200   H     0.67300   0.20508   0.35554   0.00000  Uiso   1.00
H201   H     0.79492   0.46792   0.35554   0.00000  Uiso   1.00
H202   H     0.46792   0.67300   0.35554   0.00000  Uiso   1.00
H203   H     0.32700   0.79492   0.35554   0.00000  Uiso   1.00
H204   H     0.20508   0.53208   0.35554   0.00000  Uiso   1.00
H205   H     0.53905   0.27265   0.35120   0.00000  Uiso   1.00
H206   H     0.72735   0.26640   0.35120   0.00000  Uiso   1.00
H207   H     0.73360   0.46095   0.35120   0.00000  Uiso   1.00
H208   H     0.46095   0.72735   0.35120   0.00000  Uiso   1.00
H209   H     0.27265   0.73360   0.35120   0.00000  Uiso   1.00
H210   H     0.26640   0.53905   0.35120   0.00000  Uiso   1.00
H211   H     0.41753   0.20819   0.43888   0.00000  Uiso   1.00
H212   H     0.79181   0.20934   0.43888   0.00000  Uiso   1.00
H213   H     0.79066   0.58247   0.43888   0.00000  Uiso   1.00
H214   H     0.58247   0.79181   0.43888   0.00000  Uiso   1.00
H215   H     0.20819   0.79066   0.43888   0.00000  Uiso   1.00
H216   H     0.20934   0.41753   0.43888   0.00000  Uiso   1.00
H217   H     0.42456   0.15359   0.42127   0.00000  Uiso   1.00
H218   H     0.84641   0.27097   0.42127   0.00000  Uiso   1.00
H219   H     0.72903   0.57544   0.42127   0.00000  Uiso   1.00
H220   H     0.57544   0.84641   0.42127   0.00000  Uiso   1.00
H221   H     0.15359   0.72903   0.42127   0.00000  Uiso   1.00
H222   H     0.27097   0.42456   0.42127   0.00000  Uiso   1.00
H223   H     0.44342   0.11098   0.37202   0.00000  Uiso   1.00
H224   H     0.88902   0.33244   0.37202   0.00000  Uiso   1.00
H225   H     0.66756   0.55658   0.37202   0.00000  Uiso   1.00
H226   H     0.55658   0.88902   0.37202   0.00000  Uiso   1.00
H227   H     0.11098   0.66756   0.37202   0.00000  Uiso   1.00
H228   H     0.33244   0.44342   0.37202   0.00000  Uiso   1.00
H229   H     0.51389   0.36941   0.34694   0.00000  Uiso   1.00
H230   H     0.63059   0.14448   0.34694   0.00000  Uiso   1.00
H231   H     0.85552   0.48611   0.34694   0.00000  Uiso   1.00
H232   H     0.48611   0.63059   0.34694   0.00000  Uiso   1.00
H233   H     0.36941   0.85552   0.34694   0.00000  Uiso   1.00
H234   H     0.14448   0.51389   0.34694   0.00000  Uiso   1.00
H235   H     0.61941   0.54735   0.16036   0.00000  Uiso   1.00
H236   H     0.45265   0.07206   0.16036   0.00000  Uiso   1.00
H237   H     0.92794   0.38059   0.16036   0.00000  Uiso   1.00
H238   H     0.38059   0.45265   0.16036   0.00000  Uiso   1.00
H239   H     0.54735   0.92794   0.16036   0.00000  Uiso   1.00
H240   H     0.07206   0.61941   0.16036   0.00000  Uiso   1.00
H241   H     0.56868   0.54908   0.17619   0.00000  Uiso   1.00
H242   H     0.45092   0.01960   0.17619   0.00000  Uiso   1.00
H243   H     0.98040   0.43132   0.17619   0.00000  Uiso   1.00
H244   H     0.43132   0.45092   0.17619   0.00000  Uiso   1.00
H245   H     0.54908   0.98040   0.17619   0.00000  Uiso   1.00
H246   H     0.01960   0.56868   0.17619   0.00000  Uiso   1.00
H247   H     0.58314   0.47404   0.76138   0.00000  Uiso   1.00
H248   H     0.52596   0.10910   0.76138   0.00000  Uiso   1.00
H249   H     0.89090   0.41686   0.76138   0.00000  Uiso   1.00
H250   H     0.41686   0.52596   0.76138   0.00000  Uiso   1.00
H251   H     0.47404   0.89090   0.76138   0.00000  Uiso   1.00
H252   H     0.10910   0.58314   0.76138   0.00000  Uiso   1.00
H253   H     0.53260   0.47604   0.77652   0.00000  Uiso   1.00
H254   H     0.52396   0.05656   0.77652   0.00000  Uiso   1.00
H255   H     0.94344   0.46740   0.77652   0.00000  Uiso   1.00
H256   H     0.46740   0.52396   0.77652   0.00000  Uiso   1.00
H257   H     0.47604   0.94344   0.77652   0.00000  Uiso   1.00
H258   H     0.05656   0.53260   0.77652   0.00000  Uiso   1.00
loop_
_geom_bond_atom_site_label_1
_geom_bond_atom_site_label_2
_geom_bond_distance
_geom_bond_site_symmetry_2
_ccdc_geom_bond_type
C1     C4      1.353   .     D
C1     C10     1.464   .     S
C1     C16     1.472   .     S
C2     C5      1.353   1_565 D
C2     C11     1.464   1_565 S
C2     C17     1.472   .     S
C3     C6      1.353   1_455 D
C3     C12     1.464   1_455 S
C3     C18     1.472   .     S
C4     C7      1.464   .     S
C4     C13     1.472   .     S
C5     C2      1.353   1_545 D
C5     C8      1.464   1_545 S
C5     C14     1.472   .     S
C6     C3      1.353   1_655 D
C6     C9      1.464   1_655 S
C6     C15     1.472   .     S
C7     C52     1.313   .     D
C7     C76     1.298   .     S
C8     C5      1.464   1_565 S
C8     C53     1.313   .     D
C8     C77     1.298   .     S
C9     C6      1.464   1_455 S
C9     C54     1.313   .     D
C9     C78     1.298   .     S
C10    C49     1.313   .     D
C10    C73     1.298   .     S
C11    C2      1.464   1_545 S
C11    C50     1.313   .     D
C11    C74     1.298   .     S
C12    C3      1.464   1_655 S
C12    C51     1.313   .     D
C12    C75     1.298   .     S
C13    C19     1.322   .     D
C13    C43     1.321   .     S
C14    C20     1.322   .     D
C14    C44     1.321   .     S
C15    C21     1.322   .     D
C15    C45     1.321   .     S
C16    C22     1.322   .     D
C16    C46     1.321   .     S
C17    C23     1.322   .     D
C17    C47     1.321   .     S
C18    C24     1.322   .     D
C18    C48     1.321   .     S
C19    C25     1.372   .     S
C19    H241    1.015   .     S
C20    C26     1.372   .     S
C20    H242    1.015   .     S
C21    C27     1.372   .     S
C21    H243    1.015   .     S
C22    C28     1.372   .     S
C22    H244    1.015   .     S
C23    C29     1.372   .     S
C23    H245    1.015   .     S
C24    C30     1.372   .     S
C24    H246    1.015   .     S
C25    C31     1.324   .     D
C25    H235    1.011   .     S
C26    C32     1.324   .     D
C26    H236    1.011   .     S
C27    C33     1.324   .     D
C27    H237    1.011   .     S
C28    C34     1.324   .     D
C28    H238    1.011   .     S
C29    C35     1.324   .     D
C29    H239    1.011   .     S
C30    C36     1.324   .     D
C30    H240    1.011   .     S
C31    C37     1.311   .     S
C31    N91     1.407   .     S
C32    C38     1.311   .     S
C32    N92     1.407   .     S
C33    C39     1.311   .     S
C33    N93     1.407   .     S
C34    C40     1.311   .     S
C34    N94     1.407   .     S
C35    C41     1.311   .     S
C35    N95     1.407   .     S
C36    C42     1.311   .     S
C36    N96     1.407   .     S
C37    C43     1.369   .     D
C37    H247    1.020   .     S
C38    C44     1.369   .     D
C38    H248    1.020   .     S
C39    C45     1.369   .     D
C39    H249    1.020   .     S
C40    C46     1.369   .     D
C40    H250    1.020   .     S
C41    C47     1.369   .     D
C41    H251    1.020   .     S
C42    C48     1.369   .     D
C42    H252    1.020   .     S
C43    H253    1.002   .     S
C44    H254    1.002   .     S
C45    H255    1.002   .     S
C46    H256    1.002   .     S
C47    H257    1.002   .     S
C48    H258    1.002   .     S
C49    C55     1.373   .     S
C49    H175    1.004   .     S
C50    C56     1.373   .     S
C50    H176    1.004   .     S
C51    C57     1.373   .     S
C51    H177    1.004   .     S
C52    C58     1.373   .     S
C52    H178    1.004   .     S
C53    C59     1.373   .     S
C53    H179    1.004   .     S
C54    C60     1.373   .     S
C54    H180    1.004   .     S
C55    C61     1.305   .     D
C55    H181    1.009   .     S
C56    C62     1.305   .     D
C56    H182    1.009   .     S
C57    C63     1.305   .     D
C57    H183    1.009   .     S
C58    C64     1.305   .     D
C58    H184    1.009   .     S
C59    C65     1.305   .     D
C59    H185    1.009   .     S
C60    C66     1.305   .     D
C60    H186    1.009   .     S
C61    C67     1.309   .     S
C61    N82     1.408   .     S
C62    C68     1.309   .     S
C62    N83     1.408   .     S
C63    C69     1.309   .     S
C63    N84     1.408   .     S
C64    C70     1.309   .     S
C64    N79     1.408   .     S
C65    C71     1.309   .     S
C65    N80     1.408   .     S
C66    C72     1.309   .     S
C66    N81     1.408   .     S
C67    C73     1.369   .     D
C67    H187    1.002   .     S
C68    C74     1.369   .     D
C68    H188    1.002   .     S
C69    C75     1.369   .     D
C69    H189    1.002   .     S
C70    C76     1.369   .     D
C70    H190    1.002   .     S
C71    C77     1.369   .     D
C71    H191    1.002   .     S
C72    C78     1.369   .     D
C72    H192    1.002   .     S
C73    H193    0.996   .     S
C74    H194    0.996   .     S
C75    H195    0.996   .     S
C76    H196    0.996   .     S
C77    H197    0.996   .     S
C78    H198    0.996   .     S
N79    C85     1.263   .     D
N80    C86     1.263   .     D
N81    C87     1.263   .     D
N82    C88     1.263   .     D
N83    C89     1.263   .     D
N84    C90     1.263   .     D
C85    C106    1.439   .     S
C85    H232    1.056   .     S
C86    C107    1.439   .     S
C86    H233    1.056   .     S
C87    C108    1.439   .     S
C87    H234    1.056   .     S
C88    C103    1.439   .     S
C88    H229    1.056   .     S
C89    C104    1.439   .     S
C89    H230    1.056   .     S
C90    C105    1.439   .     S
C90    H231    1.056   .     S
N91    C97     1.266   .     D
N92    C98     1.266   .     D
N93    C99     1.266   .     D
N94    C100    1.266   .     D
N95    C101    1.266   .     D
N96    C102    1.266   .     D
C97    C165    1.439   .     S
C97    H225    1.061   .     S
C98    C163    1.439   .     S
C98    H223    1.061   .     S
C99    C164    1.439   .     S
C99    H224    1.061   .     S
C100   C168    1.439   .     S
C100   H228    1.061   .     S
C101   C166    1.439   .     S
C101   H226    1.061   .     S
C102   C167    1.439   .     S
C102   H227    1.061   .     S
C103   S109    1.786   .     S
C103   C127    1.304   .     D
C104   S110    1.786   .     S
C104   C128    1.304   .     D
C105   S111    1.786   .     S
C105   C129    1.304   .     D
C106   S112    1.786   .     S
C106   C130    1.304   .     D
C107   S113    1.786   .     S
C107   C131    1.304   .     D
C108   S114    1.786   .     S
C108   C132    1.304   .     D
S109   C115    1.765   .     S
S110   C116    1.765   .     S
S111   C117    1.765   .     S
S112   C118    1.765   .     S
S113   C119    1.765   .     S
S114   C120    1.765   .     S
C115   C121    1.359   .     D
C115   C151    1.374   .     S
C116   C122    1.359   .     S
C116   C152    1.374   .     D
C117   C123    1.359   .     S
C117   C153    1.374   .     D
C118   C124    1.359   .     D
C118   C154    1.374   .     S
C119   C125    1.359   .     S
C119   C155    1.374   .     D
C120   C126    1.359   .     D
C120   C156    1.374   .     S
C121   C127    1.421   .     S
C121   C133    1.373   .     S
C122   C128    1.421   .     S
C122   C134    1.373   .     D
C123   C129    1.421   .     S
C123   C135    1.373   .     D
C124   C130    1.421   .     S
C124   C136    1.373   .     S
C125   C131    1.421   .     S
C125   C137    1.373   .     D
C126   C132    1.421   .     S
C126   C138    1.373   .     S
C127   H199    1.062   .     S
C128   H200    1.062   .     S
C129   H201    1.062   .     S
C130   H202    1.062   .     S
C131   H203    1.062   .     S
C132   H204    1.062   .     S
C133   C139    1.373   .     D
C133   H205    1.061   .     S
C134   C140    1.373   .     S
C134   H206    1.061   .     S
C135   C141    1.373   .     S
C135   H207    1.061   .     S
C136   C142    1.373   .     D
C136   H208    1.061   .     S
C137   C143    1.373   .     S
C137   H209    1.061   .     S
C138   C144    1.373   .     D
C138   H210    1.061   .     S
C139   C145    1.360   .     S
C139   S169    1.762   .     S
C140   C146    1.360   .     D
C140   S170    1.762   .     S
C141   C147    1.360   .     D
C141   S171    1.762   .     S
C142   C148    1.360   .     S
C142   S172    1.762   .     S
C143   C149    1.360   .     D
C143   S173    1.762   .     S
C144   C150    1.360   .     S
C144   S174    1.762   .     S
C145   C151    1.375   .     D
C145   C157    1.423   .     S
C146   C152    1.375   .     S
C146   C158    1.423   .     S
C147   C153    1.375   .     S
C147   C159    1.423   .     S
C148   C154    1.375   .     D
C148   C160    1.423   .     S
C149   C155    1.375   .     S
C149   C161    1.423   .     S
C150   C156    1.375   .     D
C150   C162    1.423   .     S
C151   H211    1.061   .     S
C152   H212    1.061   .     S
C153   H213    1.061   .     S
C154   H214    1.061   .     S
C155   H215    1.061   .     S
C156   H216    1.061   .     S
C157   C163    1.306   .     D
C157   H217    1.062   .     S
C158   C164    1.306   .     D
C158   H218    1.062   .     S
C159   C165    1.306   .     D
C159   H219    1.062   .     S
C160   C166    1.306   .     D
C160   H220    1.062   .     S
C161   C167    1.306   .     D
C161   H221    1.062   .     S
C162   C168    1.306   .     D
C162   H222    1.062   .     S
C163   S169    1.786   .     S
C164   S170    1.786   .     S
C165   S171    1.786   .     S
C166   S172    1.786   .     S
C167   S173    1.786   .     S
C168   S174    1.786   .     S
