data_470
_audit_creation_date              2023-09-08
_audit_creation_method            'Materials Studio'
_symmetry_space_group_name_H-M    'P1'
_symmetry_Int_Tables_number       1
_symmetry_cell_setting            triclinic
loop_
_symmetry_equiv_pos_as_xyz
  x,y,z
_cell_length_a                    31.5800
_cell_length_b                    31.5800
_cell_length_c                    3.4100
_cell_angle_alpha                 90.0000
_cell_angle_beta                  90.0000
_cell_angle_gamma                 120.0000
loop_
_atom_site_label
_atom_site_type_symbol
_atom_site_fract_x
_atom_site_fract_y
_atom_site_fract_z
_atom_site_U_iso_or_equiv
_atom_site_adp_type
_atom_site_occupancy
B1     B     0.87034   0.42610   0.50000   0.00000  Uiso   1.00
C2     C     0.92400   0.45302   0.50000   0.00000  Uiso   1.00
O3     O     0.84097   0.37343   0.50000   0.00000  Uiso   1.00
C4     C     0.70974   0.33013   0.50000   0.00000  Uiso   1.00
C5     C     0.79652   0.37048   0.50000   0.00000  Uiso   1.00
C6     C     0.75334   0.32801   0.50000   0.00000  Uiso   1.00
H7     H     0.75647   0.29570   0.50000   0.00000  Uiso   1.00
O8     O     0.39147   0.84477   0.50000   0.00000  Uiso   1.00
C9     C     0.44469   0.94795   0.50000   0.00000  Uiso   1.00
C10    C     0.47674   0.99521   0.50000   0.00000  Uiso   1.00
C11    C     0.33582   0.71252   0.50000   0.00000  Uiso   1.00
C12    C     0.38411   0.79882   0.50000   0.00000  Uiso   1.00
C13    C     0.33928   0.75861   0.50000   0.00000  Uiso   1.00
H14    H     0.30955   0.76591   0.50000   0.00000  Uiso   1.00
S15    S     0.57570   0.53347   0.50000   0.00000  Uiso   1.00
H16    H     0.40526   0.93205   0.50000   0.00000  Uiso   1.00
B17    B     0.57391   0.44425   0.50000   0.00000  Uiso   1.00
C18    C     0.54698   0.47099   0.50000   0.00000  Uiso   1.00
O19    O     0.62657   0.46754   0.50000   0.00000  Uiso   1.00
C20    C     0.66987   0.37961   0.50000   0.00000  Uiso   1.00
C21    C     0.62952   0.42605   0.50000   0.00000  Uiso   1.00
C22    C     0.67199   0.42533   0.50000   0.00000  Uiso   1.00
H23    H     0.70430   0.46077   0.50000   0.00000  Uiso   1.00
O24    O     0.15524   0.54671   0.50000   0.00000  Uiso   1.00
C25    C     0.05205   0.49674   0.50000   0.00000  Uiso   1.00
C26    C     0.00479   0.48153   0.50000   0.00000  Uiso   1.00
C27    C     0.28748   0.62330   0.50000   0.00000  Uiso   1.00
C28    C     0.20118   0.58528   0.50000   0.00000  Uiso   1.00
C29    C     0.24139   0.58068   0.50000   0.00000  Uiso   1.00
H30    H     0.23409   0.54364   0.50000   0.00000  Uiso   1.00
S31    S     0.46653   0.04223   0.50000   0.00000  Uiso   1.00
H32    H     0.06795   0.47321   0.50000   0.00000  Uiso   1.00
B33    B     0.55575   0.12966   0.50000   0.00000  Uiso   1.00
C34    C     0.52901   0.07600   0.50000   0.00000  Uiso   1.00
O35    O     0.53246   0.15903   0.50000   0.00000  Uiso   1.00
C36    C     0.62039   0.29026   0.50000   0.00000  Uiso   1.00
C37    C     0.57395   0.20348   0.50000   0.00000  Uiso   1.00
C38    C     0.57467   0.24666   0.50000   0.00000  Uiso   1.00
H39    H     0.53923   0.24353   0.50000   0.00000  Uiso   1.00
O40    O     0.45329   0.60853   0.50000   0.00000  Uiso   1.00
C41    C     0.50326   0.55531   0.50000   0.00000  Uiso   1.00
C42    C     0.51847   0.52326   0.50000   0.00000  Uiso   1.00
C43    C     0.37670   0.66418   0.50000   0.00000  Uiso   1.00
C44    C     0.41472   0.61589   0.50000   0.00000  Uiso   1.00
C45    C     0.41933   0.66072   0.50000   0.00000  Uiso   1.00
H46    H     0.45636   0.69045   0.50000   0.00000  Uiso   1.00
S47    S     0.95777   0.42430   0.50000   0.00000  Uiso   1.00
H48    H     0.52679   0.59474   0.50000   0.00000  Uiso   1.00
B49    B     0.12966   0.57391   0.50000   0.00000  Uiso   1.00
C50    C     0.07600   0.54698   0.50000   0.00000  Uiso   1.00
O51    O     0.15903   0.62657   0.50000   0.00000  Uiso   1.00
C52    C     0.29026   0.66987   0.50000   0.00000  Uiso   1.00
C53    C     0.20348   0.62952   0.50000   0.00000  Uiso   1.00
C54    C     0.24666   0.67199   0.50000   0.00000  Uiso   1.00
H55    H     0.24353   0.70430   0.50000   0.00000  Uiso   1.00
O56    O     0.60853   0.15524   0.50000   0.00000  Uiso   1.00
C57    C     0.55531   0.05205   0.50000   0.00000  Uiso   1.00
C58    C     0.52326   0.00479   0.50000   0.00000  Uiso   1.00
C59    C     0.66418   0.28748   0.50000   0.00000  Uiso   1.00
C60    C     0.61589   0.20118   0.50000   0.00000  Uiso   1.00
C61    C     0.66072   0.24139   0.50000   0.00000  Uiso   1.00
H62    H     0.69045   0.23409   0.50000   0.00000  Uiso   1.00
S63    S     0.42430   0.46653   0.50000   0.00000  Uiso   1.00
H64    H     0.59474   0.06795   0.50000   0.00000  Uiso   1.00
B65    B     0.42610   0.55575   0.50000   0.00000  Uiso   1.00
C66    C     0.45302   0.52901   0.50000   0.00000  Uiso   1.00
O67    O     0.37343   0.53246   0.50000   0.00000  Uiso   1.00
C68    C     0.33013   0.62039   0.50000   0.00000  Uiso   1.00
C69    C     0.37048   0.57395   0.50000   0.00000  Uiso   1.00
C70    C     0.32801   0.57467   0.50000   0.00000  Uiso   1.00
H71    H     0.29570   0.53923   0.50000   0.00000  Uiso   1.00
O72    O     0.84476   0.45329   0.50000   0.00000  Uiso   1.00
C73    C     0.94795   0.50326   0.50000   0.00000  Uiso   1.00
C74    C     0.99521   0.51847   0.50000   0.00000  Uiso   1.00
C75    C     0.71252   0.37670   0.50000   0.00000  Uiso   1.00
C76    C     0.79882   0.41472   0.50000   0.00000  Uiso   1.00
C77    C     0.75861   0.41933   0.50000   0.00000  Uiso   1.00
H78    H     0.76591   0.45636   0.50000   0.00000  Uiso   1.00
S79    S     0.53347   0.95777   0.50000   0.00000  Uiso   1.00
H80    H     0.93205   0.52679   0.50000   0.00000  Uiso   1.00
B81    B     0.44425   0.87034   0.50000   0.00000  Uiso   1.00
C82    C     0.47099   0.92400   0.50000   0.00000  Uiso   1.00
O83    O     0.46754   0.84097   0.50000   0.00000  Uiso   1.00
C84    C     0.37961   0.70974   0.50000   0.00000  Uiso   1.00
C85    C     0.42605   0.79652   0.50000   0.00000  Uiso   1.00
C86    C     0.42533   0.75334   0.50000   0.00000  Uiso   1.00
H87    H     0.46077   0.75647   0.50000   0.00000  Uiso   1.00
O88    O     0.54671   0.39147   0.50000   0.00000  Uiso   1.00
C89    C     0.49674   0.44469   0.50000   0.00000  Uiso   1.00
C90    C     0.48153   0.47674   0.50000   0.00000  Uiso   1.00
C91    C     0.62330   0.33582   0.50000   0.00000  Uiso   1.00
C92    C     0.58528   0.38411   0.50000   0.00000  Uiso   1.00
C93    C     0.58068   0.33928   0.50000   0.00000  Uiso   1.00
H94    H     0.54364   0.30955   0.50000   0.00000  Uiso   1.00
S95    S     0.04223   0.57570   0.50000   0.00000  Uiso   1.00
H96    H     0.47321   0.40526   0.50000   0.00000  Uiso   1.00
loop_
_geom_bond_atom_site_label_1
_geom_bond_atom_site_label_2
_geom_bond_distance
_geom_bond_site_symmetry_2
_ccdc_geom_bond_type
B1     C2      1.468   .     S
B1     O3      1.444   .     S
B1     O72     1.444   .     S
C2     S47     1.711   .     S
C2     C73     1.375   .     D
O3     C5      1.359   .     S
C4     C6      1.412   .     S
C4     C59     1.395   .     S
C4     C75     1.429   .     D
C5     C6      1.353   .     D
C5     C76     1.362   .     S
C6     H7      1.073   .     S
O8     C12     1.350   .     S
O8     B81     1.444   .     S
C9     C10     1.320   .     S
C9     H16     1.085   .     S
C9     C82     1.375   .     D
C10    S31     1.669   1_565 S
C10    C58     1.344   1_565 D
C11    C13     1.404   .     S
C11    C52     1.395   .     D
C11    C84     1.429   .     S
C12    C13     1.349   .     D
C12    C85     1.362   .     S
C13    H14     1.073   .     S
S15    C18     1.711   .     S
S15    C42     1.669   .     S
B17    C18     1.468   .     S
B17    O19     1.444   .     S
B17    O88     1.444   .     S
C18    C89     1.375   .     D
O19    C21     1.359   .     S
C20    C22     1.412   .     D
C20    C75     1.395   .     S
C20    C91     1.429   .     S
C21    C22     1.353   .     S
C21    C92     1.362   .     D
C22    H23     1.073   .     S
O24    C28     1.350   .     S
O24    B49     1.444   .     S
C25    C26     1.320   .     S
C25    H32     1.085   .     S
C25    C50     1.375   .     D
C26    S47     1.669   1_455 S
C26    C74     1.344   1_455 D
C27    C29     1.404   .     S
C27    C52     1.429   .     S
C27    C68     1.395   .     D
C28    C29     1.349   .     D
C28    C53     1.362   .     S
C29    H30     1.073   .     S
S31    C10     1.669   1_545 S
S31    C34     1.711   .     S
B33    C34     1.468   .     S
B33    O35     1.444   .     S
B33    O56     1.444   .     S
C34    C57     1.375   .     D
O35    C37     1.359   .     S
C36    C38     1.412   .     D
C36    C59     1.429   .     S
C36    C91     1.395   .     S
C37    C38     1.353   .     S
C37    C60     1.362   .     D
C38    H39     1.073   .     S
O40    C44     1.350   .     S
O40    B65     1.444   .     S
C41    C42     1.320   .     S
C41    H48     1.085   .     S
C41    C66     1.375   .     D
C42    C90     1.344   .     D
C43    C45     1.404   .     S
C43    C68     1.429   .     S
C43    C84     1.395   .     D
C44    C45     1.349   .     D
C44    C69     1.362   .     S
C45    H46     1.073   .     S
S47    C26     1.669   1_655 S
B49    C50     1.468   .     S
B49    O51     1.444   .     S
C50    S95     1.711   .     S
O51    C53     1.359   .     S
C52    C54     1.412   .     S
C53    C54     1.353   .     D
C54    H55     1.073   .     S
O56    C60     1.350   .     S
C57    C58     1.320   .     S
C57    H64     1.085   .     S
C58    C10     1.344   1_545 D
C58    S79     1.669   1_545 S
C59    C61     1.404   .     D
C60    C61     1.349   .     S
C61    H62     1.073   .     S
S63    C66     1.711   .     S
S63    C90     1.669   .     S
B65    C66     1.468   .     S
B65    O67     1.444   .     S
O67    C69     1.359   .     S
C68    C70     1.412   .     S
C69    C70     1.353   .     D
C70    H71     1.073   .     S
O72    C76     1.350   .     S
C73    C74     1.320   .     S
C73    H80     1.085   .     S
C74    C26     1.344   1_655 D
C74    S95     1.669   1_655 S
C75    C77     1.404   .     S
C76    C77     1.349   .     D
C77    H78     1.073   .     S
S79    C58     1.669   1_565 S
S79    C82     1.711   .     S
B81    C82     1.468   .     S
B81    O83     1.444   .     S
O83    C85     1.359   .     S
C84    C86     1.412   .     S
C85    C86     1.353   .     D
C86    H87     1.073   .     S
O88    C92     1.350   .     S
C89    C90     1.320   .     S
C89    H96     1.085   .     S
C91    C93     1.404   .     D
C92    C93     1.349   .     S
C93    H94     1.073   .     S
S95    C74     1.669   1_455 S
