data_471
_audit_creation_date              2023-09-08
_audit_creation_method            'Materials Studio'
_symmetry_space_group_name_H-M    'P1'
_symmetry_Int_Tables_number       1
_symmetry_cell_setting            triclinic
loop_
_symmetry_equiv_pos_as_xyz
  x,y,z
_cell_length_a                    45.0200
_cell_length_b                    45.0200
_cell_length_c                    3.7100
_cell_angle_alpha                 90.0000
_cell_angle_beta                  90.0000
_cell_angle_gamma                 120.0000
loop_
_atom_site_label
_atom_site_type_symbol
_atom_site_fract_x
_atom_site_fract_y
_atom_site_fract_z
_atom_site_U_iso_or_equiv
_atom_site_adp_type
_atom_site_occupancy
C1     C     0.98086   0.51693  -0.10476   0.00000  Uiso   1.00
C2     C     0.96275   0.48091  -0.10722   0.00000  Uiso   1.00
C3     C     0.98145   0.46365  -0.13820   0.00000  Uiso   1.00
C4     C     0.92465   0.46180  -0.07056   0.00000  Uiso   1.00
C5     C     0.90489   0.47592  -0.19857   0.00000  Uiso   1.00
C6     C     0.86938   0.45865  -0.15012   0.00000  Uiso   1.00
C7     C     0.85277   0.42631   0.01417   0.00000  Uiso   1.00
C8     C     0.87204   0.41174   0.13749   0.00000  Uiso   1.00
C9     C     0.90770   0.42970   0.10359   0.00000  Uiso   1.00
H10    H     0.91665   0.49999  -0.34351   0.00000  Uiso   1.00
H11    H     0.85468   0.47004  -0.25039   0.00000  Uiso   1.00
H12    H     0.85955   0.38692   0.27051   0.00000  Uiso   1.00
H13    H     0.92213   0.41877   0.22193   0.00000  Uiso   1.00
C14    C     0.27010   0.60378   0.07502   0.00000  Uiso   1.00
C15    C     0.30184   0.63486   0.11702   0.00000  Uiso   1.00
C16    C     0.30163   0.66658   0.13004   0.00000  Uiso   1.00
C17    C     0.26960   0.66552   0.15698   0.00000  Uiso   1.00
C18    C     0.23953   0.63442   0.13149   0.00000  Uiso   1.00
C19    C     0.23982   0.60455   0.07824   0.00000  Uiso   1.00
O20    O     0.36901   0.79246   0.02571   0.00000  Uiso   1.00
O21    O     0.42318   0.79307   0.13322   0.00000  Uiso   1.00
B22    B     0.40631   0.81302   0.06099   0.00000  Uiso   1.00
H23    H     0.26784   0.57915   0.02765   0.00000  Uiso   1.00
H24    H     0.26690   0.68772   0.19795   0.00000  Uiso   1.00
O25    O     0.57148   0.53625  -0.21011   0.00000  Uiso   1.00
H26    H     0.53127   0.56358  -0.07229   0.00000  Uiso   1.00
H27    H     0.58081   0.56180  -0.23642   0.00000  Uiso   1.00
C28    C     0.48307   0.46393  -0.10476   0.00000  Uiso   1.00
C29    C     0.51909   0.48184  -0.10722   0.00000  Uiso   1.00
C30    C     0.53635   0.51780  -0.13820   0.00000  Uiso   1.00
C31    C     0.53820   0.46285  -0.07056   0.00000  Uiso   1.00
C32    C     0.52408   0.42897  -0.19857   0.00000  Uiso   1.00
C33    C     0.54136   0.41074  -0.15012   0.00000  Uiso   1.00
C34    C     0.57369   0.42647   0.01417   0.00000  Uiso   1.00
C35    C     0.58826   0.46030   0.13749   0.00000  Uiso   1.00
C36    C     0.57030   0.47800   0.10359   0.00000  Uiso   1.00
H37    H     0.50001   0.41666  -0.34351   0.00000  Uiso   1.00
H38    H     0.52996   0.38464  -0.25039   0.00000  Uiso   1.00
H39    H     0.61308   0.47263   0.27051   0.00000  Uiso   1.00
H40    H     0.58123   0.50336   0.22193   0.00000  Uiso   1.00
C41    C     0.39622   0.66632   0.07502   0.00000  Uiso   1.00
C42    C     0.36515   0.66698   0.11702   0.00000  Uiso   1.00
C43    C     0.33342   0.63505   0.13004   0.00000  Uiso   1.00
C44    C     0.33448   0.60407   0.15698   0.00000  Uiso   1.00
C45    C     0.36558   0.60510   0.13149   0.00000  Uiso   1.00
C46    C     0.39545   0.63527   0.07824   0.00000  Uiso   1.00
O47    O     0.20754   0.57655   0.02571   0.00000  Uiso   1.00
O48    O     0.20694   0.63012   0.13322   0.00000  Uiso   1.00
B49    B     0.18698   0.59329   0.06099   0.00000  Uiso   1.00
H50    H     0.42085   0.68869   0.02765   0.00000  Uiso   1.00
H51    H     0.31228   0.57918   0.19795   0.00000  Uiso   1.00
O52    O     0.46375   0.03523  -0.21011   0.00000  Uiso   1.00
H53    H     0.43642   0.96770  -0.07229   0.00000  Uiso   1.00
H54    H     0.43820   0.01901  -0.23642   0.00000  Uiso   1.00
C55    C     0.53607   0.01914  -0.10476   0.00000  Uiso   1.00
C56    C     0.51816   0.03725  -0.10722   0.00000  Uiso   1.00
C57    C     0.48220   0.01855  -0.13820   0.00000  Uiso   1.00
C58    C     0.53715   0.07536  -0.07056   0.00000  Uiso   1.00
C59    C     0.57104   0.09511  -0.19857   0.00000  Uiso   1.00
C60    C     0.58926   0.13062  -0.15012   0.00000  Uiso   1.00
C61    C     0.57354   0.14723   0.01417   0.00000  Uiso   1.00
C62    C     0.53970   0.12796   0.13749   0.00000  Uiso   1.00
C63    C     0.52200   0.09230   0.10359   0.00000  Uiso   1.00
H64    H     0.58334   0.08335  -0.34351   0.00000  Uiso   1.00
H65    H     0.61537   0.14532  -0.25039   0.00000  Uiso   1.00
H66    H     0.52737   0.14045   0.27051   0.00000  Uiso   1.00
H67    H     0.49664   0.07787   0.22193   0.00000  Uiso   1.00
C68    C     0.33368   0.72990   0.07502   0.00000  Uiso   1.00
C69    C     0.33302   0.69816   0.11702   0.00000  Uiso   1.00
C70    C     0.36495   0.69837   0.13004   0.00000  Uiso   1.00
C71    C     0.39593   0.73040   0.15698   0.00000  Uiso   1.00
C72    C     0.39490   0.76047   0.13149   0.00000  Uiso   1.00
C73    C     0.36473   0.76018   0.07824   0.00000  Uiso   1.00
O74    O     0.42345   0.63099   0.02571   0.00000  Uiso   1.00
O75    O     0.36988   0.57682   0.13322   0.00000  Uiso   1.00
B76    B     0.40671   0.59369   0.06099   0.00000  Uiso   1.00
H77    H     0.31131   0.73216   0.02765   0.00000  Uiso   1.00
H78    H     0.42082   0.73310   0.19795   0.00000  Uiso   1.00
O79    O     0.96478   0.42852  -0.21011   0.00000  Uiso   1.00
H80    H     0.03230   0.46873  -0.07229   0.00000  Uiso   1.00
H81    H     0.98099   0.41919  -0.23642   0.00000  Uiso   1.00
C82    C     0.01914   0.48307  -0.10476   0.00000  Uiso   1.00
C83    C     0.03725   0.51909  -0.10722   0.00000  Uiso   1.00
C84    C     0.01855   0.53635  -0.13820   0.00000  Uiso   1.00
C85    C     0.07536   0.53820  -0.07056   0.00000  Uiso   1.00
C86    C     0.09511   0.52408  -0.19857   0.00000  Uiso   1.00
C87    C     0.13062   0.54136  -0.15012   0.00000  Uiso   1.00
C88    C     0.14723   0.57369   0.01417   0.00000  Uiso   1.00
C89    C     0.12796   0.58826   0.13749   0.00000  Uiso   1.00
C90    C     0.09230   0.57030   0.10359   0.00000  Uiso   1.00
H91    H     0.08335   0.50002  -0.34351   0.00000  Uiso   1.00
H92    H     0.14532   0.52996  -0.25039   0.00000  Uiso   1.00
H93    H     0.14045   0.61308   0.27051   0.00000  Uiso   1.00
H94    H     0.07787   0.58123   0.22193   0.00000  Uiso   1.00
C95    C     0.72990   0.39622   0.07502   0.00000  Uiso   1.00
C96    C     0.69816   0.36515   0.11702   0.00000  Uiso   1.00
C97    C     0.69837   0.33342   0.13004   0.00000  Uiso   1.00
C98    C     0.73040   0.33448   0.15698   0.00000  Uiso   1.00
C99    C     0.76047   0.36558   0.13149   0.00000  Uiso   1.00
C100   C     0.76018   0.39545   0.07824   0.00000  Uiso   1.00
O101   O     0.63099   0.20754   0.02571   0.00000  Uiso   1.00
O102   O     0.57682   0.20694   0.13322   0.00000  Uiso   1.00
B103   B     0.59369   0.18698   0.06099   0.00000  Uiso   1.00
H104   H     0.73216   0.42085   0.02765   0.00000  Uiso   1.00
H105   H     0.73310   0.31228   0.19795   0.00000  Uiso   1.00
O106   O     0.42852   0.46375  -0.21011   0.00000  Uiso   1.00
H107   H     0.46873   0.43642  -0.07229   0.00000  Uiso   1.00
H108   H     0.41919   0.43820  -0.23642   0.00000  Uiso   1.00
C109   C     0.51693   0.53607  -0.10476   0.00000  Uiso   1.00
C110   C     0.48091   0.51816  -0.10722   0.00000  Uiso   1.00
C111   C     0.46365   0.48220  -0.13820   0.00000  Uiso   1.00
C112   C     0.46180   0.53715  -0.07056   0.00000  Uiso   1.00
C113   C     0.47592   0.57104  -0.19857   0.00000  Uiso   1.00
C114   C     0.45864   0.58926  -0.15012   0.00000  Uiso   1.00
C115   C     0.42631   0.57354   0.01417   0.00000  Uiso   1.00
C116   C     0.41174   0.53970   0.13749   0.00000  Uiso   1.00
C117   C     0.42970   0.52200   0.10359   0.00000  Uiso   1.00
H118   H     0.49999   0.58334  -0.34351   0.00000  Uiso   1.00
H119   H     0.47004   0.61537  -0.25039   0.00000  Uiso   1.00
H120   H     0.38692   0.52737   0.27051   0.00000  Uiso   1.00
H121   H     0.41877   0.49664   0.22193   0.00000  Uiso   1.00
C122   C     0.60378   0.33368   0.07502   0.00000  Uiso   1.00
C123   C     0.63486   0.33302   0.11702   0.00000  Uiso   1.00
C124   C     0.66658   0.36495   0.13004   0.00000  Uiso   1.00
C125   C     0.66552   0.39593   0.15698   0.00000  Uiso   1.00
C126   C     0.63442   0.39490   0.13149   0.00000  Uiso   1.00
C127   C     0.60455   0.36473   0.07824   0.00000  Uiso   1.00
O128   O     0.79246   0.42345   0.02571   0.00000  Uiso   1.00
O129   O     0.79307   0.36988   0.13322   0.00000  Uiso   1.00
B130   B     0.81302   0.40671   0.06099   0.00000  Uiso   1.00
H131   H     0.57915   0.31131   0.02765   0.00000  Uiso   1.00
H132   H     0.68772   0.42082   0.19795   0.00000  Uiso   1.00
O133   O     0.53625   0.96478  -0.21011   0.00000  Uiso   1.00
H134   H     0.56358   0.03230  -0.07229   0.00000  Uiso   1.00
H135   H     0.56180   0.98099  -0.23642   0.00000  Uiso   1.00
C136   C     0.46393   0.98086  -0.10476   0.00000  Uiso   1.00
C137   C     0.48184   0.96275  -0.10722   0.00000  Uiso   1.00
C138   C     0.51780   0.98145  -0.13820   0.00000  Uiso   1.00
C139   C     0.46285   0.92465  -0.07056   0.00000  Uiso   1.00
C140   C     0.42897   0.90489  -0.19857   0.00000  Uiso   1.00
C141   C     0.41074   0.86938  -0.15012   0.00000  Uiso   1.00
C142   C     0.42647   0.85277   0.01417   0.00000  Uiso   1.00
C143   C     0.46030   0.87204   0.13749   0.00000  Uiso   1.00
C144   C     0.47800   0.90770   0.10359   0.00000  Uiso   1.00
H145   H     0.41666   0.91665  -0.34351   0.00000  Uiso   1.00
H146   H     0.38464   0.85468  -0.25039   0.00000  Uiso   1.00
H147   H     0.47263   0.85955   0.27051   0.00000  Uiso   1.00
H148   H     0.50336   0.92213   0.22193   0.00000  Uiso   1.00
C149   C     0.66632   0.27010   0.07502   0.00000  Uiso   1.00
C150   C     0.66698   0.30184   0.11702   0.00000  Uiso   1.00
C151   C     0.63505   0.30163   0.13004   0.00000  Uiso   1.00
C152   C     0.60407   0.26960   0.15698   0.00000  Uiso   1.00
C153   C     0.60510   0.23953   0.13149   0.00000  Uiso   1.00
C154   C     0.63527   0.23982   0.07824   0.00000  Uiso   1.00
O155   O     0.57655   0.36901   0.02571   0.00000  Uiso   1.00
O156   O     0.63012   0.42318   0.13322   0.00000  Uiso   1.00
B157   B     0.59329   0.40631   0.06099   0.00000  Uiso   1.00
H158   H     0.68869   0.26784   0.02765   0.00000  Uiso   1.00
H159   H     0.57918   0.26690   0.19795   0.00000  Uiso   1.00
O160   O     0.03522   0.57148  -0.21011   0.00000  Uiso   1.00
H161   H     0.96770   0.53127  -0.07229   0.00000  Uiso   1.00
H162   H     0.01901   0.58081  -0.23642   0.00000  Uiso   1.00
loop_
_geom_bond_atom_site_label_1
_geom_bond_atom_site_label_2
_geom_bond_distance
_geom_bond_site_symmetry_2
_ccdc_geom_bond_type
C1     C2      1.404   .     S
C1     C84     1.475   1_655 D
C1     H161    1.080   .     S
C2     C3      1.407   .     D
C2     C4      1.492   .     S
C3     O79     1.396   .     S
C3     C82     1.475   1_655 S
C4     C5      1.409   .     D
C4     C9      1.409   .     S
C5     C6      1.396   .     S
C5     H10     1.081   .     S
C6     C7      1.401   .     D
C6     H11     1.086   .     S
C7     C8      1.400   .     S
C7     B130    1.560   .     S
C8     C9      1.396   .     D
C8     H12     1.086   .     S
C9     H13     1.085   .     S
C14    C15     1.423   .     D
C14    C19     1.381   .     S
C14    H23     1.076   .     S
C15    C16     1.434   .     S
C15    C43     1.418   .     S
C16    C17     1.422   .     D
C16    C69     1.418   .     S
C17    C18     1.381   .     S
C17    H24     1.076   .     S
C18    C19     1.366   .     D
C18    O48     1.381   .     S
C19    O47     1.381   .     S
O20    B22     1.463   .     S
O20    C73     1.381   .     S
O21    B22     1.462   .     S
O21    C72     1.381   .     S
B22    C142    1.560   .     S
O25    H27     1.013   .     S
O25    C30     1.396   .     S
H26    C109    1.080   .     S
C28    C29     1.404   .     D
C28    H107    1.080   .     S
C28    C111    1.475   .     S
C29    C30     1.407   .     S
C29    C31     1.492   .     S
C30    C109    1.475   .     D
C31    C32     1.410   .     D
C31    C36     1.409   .     S
C32    C33     1.396   .     S
C32    H37     1.081   .     S
C33    C34     1.401   .     D
C33    H38     1.086   .     S
C34    C35     1.400   .     S
C34    B157    1.560   .     S
C35    C36     1.396   .     D
C35    H39     1.086   .     S
C36    H40     1.085   .     S
C41    C42     1.423   .     D
C41    C46     1.381   .     S
C41    H50     1.076   .     S
C42    C43     1.434   .     S
C42    C70     1.418   .     S
C43    C44     1.422   .     D
C44    C45     1.381   .     S
C44    H51     1.076   .     S
C45    C46     1.366   .     D
C45    O75     1.381   .     S
C46    O74     1.381   .     S
O47    B49     1.463   .     S
O48    B49     1.462   .     S
B49    C88     1.560   .     S
O52    H54     1.013   .     S
O52    C57     1.396   .     S
H53    C136    1.080   .     S
C55    C56     1.404   .     D
C55    H134    1.080   .     S
C55    C138    1.475   1_545 S
C56    C57     1.407   .     S
C56    C58     1.492   .     S
C57    C136    1.475   1_545 D
C58    C59     1.410   .     D
C58    C63     1.409   .     S
C59    C60     1.396   .     S
C59    H64     1.081   .     S
C60    C61     1.401   .     D
C60    H65     1.086   .     S
C61    C62     1.400   .     S
C61    B103    1.560   .     S
C62    C63     1.396   .     D
C62    H66     1.086   .     S
C63    H67     1.085   .     S
C68    C69     1.423   .     D
C68    C73     1.381   .     S
C68    H77     1.076   .     S
C69    C70     1.434   .     S
C70    C71     1.422   .     D
C71    C72     1.381   .     S
C71    H78     1.076   .     S
C72    C73     1.366   .     D
O74    B76     1.463   .     S
O75    B76     1.462   .     S
B76    C115    1.560   .     S
O79    H81     1.013   .     S
H80    C82     1.080   .     S
C82    C3      1.475   1_455 S
C82    C83     1.404   .     D
C83    C84     1.407   .     S
C83    C85     1.492   .     S
C84    C1      1.475   1_455 D
C84    O160    1.396   .     S
C85    C86     1.409   .     D
C85    C90     1.409   .     S
C86    C87     1.396   .     S
C86    H91     1.081   .     S
C87    C88     1.401   .     D
C87    H92     1.086   .     S
C88    C89     1.400   .     S
C89    C90     1.396   .     D
C89    H93     1.086   .     S
C90    H94     1.085   .     S
C95    C96     1.423   .     D
C95    C100    1.381   .     S
C95    H104    1.076   .     S
C96    C97     1.434   .     S
C96    C124    1.418   .     S
C97    C98     1.422   .     D
C97    C150    1.418   .     S
C98    C99     1.381   .     S
C98    H105    1.076   .     S
C99    C100    1.366   .     D
C99    O129    1.381   .     S
C100   O128    1.381   .     S
O101   B103    1.463   .     S
O101   C154    1.381   .     S
O102   B103    1.462   .     S
O102   C153    1.381   .     S
O106   H108    1.013   .     S
O106   C111    1.396   .     S
C109   C110    1.404   .     S
C110   C111    1.407   .     D
C110   C112    1.492   .     S
C112   C113    1.410   .     D
C112   C117    1.409   .     S
C113   C114    1.396   .     S
C113   H118    1.081   .     S
C114   C115    1.401   .     D
C114   H119    1.086   .     S
C115   C116    1.400   .     S
C116   C117    1.396   .     D
C116   H120    1.086   .     S
C117   H121    1.085   .     S
C122   C123    1.423   .     S
C122   C127    1.381   .     D
C122   H131    1.076   .     S
C123   C124    1.434   .     D
C123   C151    1.418   .     S
C124   C125    1.422   .     S
C125   C126    1.381   .     D
C125   H132    1.076   .     S
C126   C127    1.366   .     S
C126   O156    1.381   .     S
C127   O155    1.381   .     S
O128   B130    1.463   .     S
O129   B130    1.462   .     S
O133   H135    1.013   .     S
O133   C138    1.396   .     S
C136   C57     1.475   1_565 D
C136   C137    1.404   .     S
C137   C138    1.407   .     D
C137   C139    1.492   .     S
C138   C55     1.475   1_565 S
C139   C140    1.410   .     D
C139   C144    1.409   .     S
C140   C141    1.396   .     S
C140   H145    1.081   .     S
C141   C142    1.401   .     D
C141   H146    1.086   .     S
C142   C143    1.400   .     S
C143   C144    1.396   .     D
C143   H147    1.086   .     S
C144   H148    1.085   .     S
C149   C150    1.423   .     S
C149   C154    1.381   .     D
C149   H158    1.076   .     S
C150   C151    1.434   .     D
C151   C152    1.422   .     S
C152   C153    1.381   .     D
C152   H159    1.076   .     S
C153   C154    1.366   .     S
O155   B157    1.463   .     S
O156   B157    1.462   .     S
O160   H162    1.013   .     S
