data_472
_audit_creation_date              2023-09-08
_audit_creation_method            'Materials Studio'
_symmetry_space_group_name_H-M    'P1'
_symmetry_Int_Tables_number       1
_symmetry_cell_setting            triclinic
loop_
_symmetry_equiv_pos_as_xyz
  x,y,z
_cell_length_a                    37.0496
_cell_length_b                    37.0496
_cell_length_c                    3.8675
_cell_angle_alpha                 90.0000
_cell_angle_beta                  90.0000
_cell_angle_gamma                 120.0000
loop_
_atom_site_label
_atom_site_type_symbol
_atom_site_fract_x
_atom_site_fract_y
_atom_site_fract_z
_atom_site_U_iso_or_equiv
_atom_site_adp_type
_atom_site_occupancy
O1     O     0.05515   0.58569   0.42302   0.00000  Uiso   1.00
C2     C     0.04162   0.61105   0.26016   0.00000  Uiso   1.00
C3     C     0.54232   0.01539   0.44875   0.00000  Uiso   1.00
C4     C     0.52716   0.04278   0.45557   0.00000  Uiso   1.00
C5     C     0.48437   0.02741   0.44178   0.00000  Uiso   1.00
C6     C     0.55724   0.08730   0.46685   0.00000  Uiso   1.00
C7     C     0.68941   0.37617   0.63488   0.00000  Uiso   1.00
C8     C     0.64630   0.35639   0.63377   0.00000  Uiso   1.00
C9     C     0.75591   0.37517   0.62243   0.00000  Uiso   1.00
C10    C     0.64230   0.41983   0.77848   0.00000  Uiso   1.00
C11    C     0.62271   0.44304   0.75678   0.00000  Uiso   1.00
C12    C     0.58501   0.42765   0.58691   0.00000  Uiso   1.00
C13    C     0.56711   0.38852   0.43285   0.00000  Uiso   1.00
C14    C     0.58692   0.36549   0.44915   0.00000  Uiso   1.00
N15    N     0.54649   0.11362   0.56492   0.00000  Uiso   1.00
H16    H     0.02036   0.61541   0.43167   0.00000  Uiso   1.00
H17    H     0.02665   0.59780   0.00689   0.00000  Uiso   1.00
H18    H     0.06873   0.64168   0.20864   0.00000  Uiso   1.00
H19    H     0.57513   0.02770   0.45379   0.00000  Uiso   1.00
H20    H     0.58896   0.09716   0.40809   0.00000  Uiso   1.00
H21    H     0.70701   0.40929   0.63303   0.00000  Uiso   1.00
H22    H     0.67065   0.43227   0.92434   0.00000  Uiso   1.00
H23    H     0.63648   0.47306   0.87759   0.00000  Uiso   1.00
H24    H     0.53885   0.37618   0.28694   0.00000  Uiso   1.00
H25    H     0.57318   0.33643   0.31274   0.00000  Uiso   1.00
O26    O     0.41431   0.46946   0.42302   0.00000  Uiso   1.00
C27    C     0.38895   0.43057   0.26016   0.00000  Uiso   1.00
C28    C     0.98461   0.52693   0.44875   0.00000  Uiso   1.00
C29    C     0.95722   0.48438   0.45557   0.00000  Uiso   1.00
C30    C     0.97259   0.45696   0.44178   0.00000  Uiso   1.00
C31    C     0.91270   0.46994   0.46685   0.00000  Uiso   1.00
C32    C     0.62383   0.31324   0.63488   0.00000  Uiso   1.00
C33    C     0.64361   0.28991   0.63377   0.00000  Uiso   1.00
C34    C     0.62483   0.38074   0.62243   0.00000  Uiso   1.00
C35    C     0.58017   0.22247   0.77848   0.00000  Uiso   1.00
C36    C     0.55696   0.17967   0.75678   0.00000  Uiso   1.00
C37    C     0.57235   0.15736   0.58691   0.00000  Uiso   1.00
C38    C     0.61148   0.17859   0.43285   0.00000  Uiso   1.00
C39    C     0.63451   0.22143   0.44915   0.00000  Uiso   1.00
N40    N     0.88638   0.43287   0.56492   0.00000  Uiso   1.00
H41    H     0.38459   0.40495   0.43167   0.00000  Uiso   1.00
H42    H     0.40220   0.42885   0.00689   0.00000  Uiso   1.00
H43    H     0.35832   0.42705   0.20864   0.00000  Uiso   1.00
H44    H     0.97230   0.54743   0.45379   0.00000  Uiso   1.00
H45    H     0.90284   0.49180   0.40809   0.00000  Uiso   1.00
H46    H     0.59071   0.29772   0.63303   0.00000  Uiso   1.00
H47    H     0.56773   0.23838   0.92434   0.00000  Uiso   1.00
H48    H     0.52694   0.16342   0.87759   0.00000  Uiso   1.00
H49    H     0.62382   0.16267   0.28694   0.00000  Uiso   1.00
H50    H     0.66357   0.23675   0.31274   0.00000  Uiso   1.00
O51    O     0.53054   0.94485   0.42302   0.00000  Uiso   1.00
C52    C     0.56943   0.95838   0.26016   0.00000  Uiso   1.00
C53    C     0.47307   0.45768   0.44875   0.00000  Uiso   1.00
C54    C     0.51562   0.47284   0.45557   0.00000  Uiso   1.00
C55    C     0.54304   0.51563   0.44178   0.00000  Uiso   1.00
C56    C     0.53006   0.44276   0.46685   0.00000  Uiso   1.00
C57    C     0.68676   0.31059   0.63488   0.00000  Uiso   1.00
C58    C     0.71009   0.35370   0.63377   0.00000  Uiso   1.00
C59    C     0.61926   0.24409   0.62243   0.00000  Uiso   1.00
C60    C     0.77753   0.35770   0.77848   0.00000  Uiso   1.00
C61    C     0.82033   0.37729   0.75678   0.00000  Uiso   1.00
C62    C     0.84264   0.41499   0.58691   0.00000  Uiso   1.00
C63    C     0.82141   0.43289   0.43285   0.00000  Uiso   1.00
C64    C     0.77857   0.41308   0.44915   0.00000  Uiso   1.00
N65    N     0.56713   0.45351   0.56492   0.00000  Uiso   1.00
H66    H     0.59505   0.97964   0.43167   0.00000  Uiso   1.00
H67    H     0.57115   0.97335   0.00689   0.00000  Uiso   1.00
H68    H     0.57295   0.93127   0.20864   0.00000  Uiso   1.00
H69    H     0.45257   0.42487   0.45379   0.00000  Uiso   1.00
H70    H     0.50820   0.41104   0.40809   0.00000  Uiso   1.00
H71    H     0.70228   0.29299   0.63303   0.00000  Uiso   1.00
H72    H     0.76162   0.32935   0.92434   0.00000  Uiso   1.00
H73    H     0.83658   0.36352   0.87759   0.00000  Uiso   1.00
H74    H     0.83733   0.46115   0.28694   0.00000  Uiso   1.00
H75    H     0.76325   0.42682   0.31274   0.00000  Uiso   1.00
O76    O     0.94485   0.41431   0.42302   0.00000  Uiso   1.00
C77    C     0.95838   0.38895   0.26016   0.00000  Uiso   1.00
C78    C     0.45768   0.98461   0.44875   0.00000  Uiso   1.00
C79    C     0.47284   0.95722   0.45557   0.00000  Uiso   1.00
C80    C     0.51563   0.97259   0.44178   0.00000  Uiso   1.00
C81    C     0.44276   0.91270   0.46685   0.00000  Uiso   1.00
C82    C     0.31059   0.62383   0.63488   0.00000  Uiso   1.00
C83    C     0.35370   0.64361   0.63377   0.00000  Uiso   1.00
C84    C     0.24409   0.62483   0.62243   0.00000  Uiso   1.00
C85    C     0.35770   0.58017   0.77848   0.00000  Uiso   1.00
C86    C     0.37729   0.55696   0.75678   0.00000  Uiso   1.00
C87    C     0.41499   0.57235   0.58691   0.00000  Uiso   1.00
C88    C     0.43289   0.61148   0.43285   0.00000  Uiso   1.00
C89    C     0.41308   0.63451   0.44915   0.00000  Uiso   1.00
N90    N     0.45351   0.88638   0.56492   0.00000  Uiso   1.00
H91    H     0.97964   0.38459   0.43167   0.00000  Uiso   1.00
H92    H     0.97335   0.40220   0.00689   0.00000  Uiso   1.00
H93    H     0.93127   0.35832   0.20864   0.00000  Uiso   1.00
H94    H     0.42487   0.97230   0.45379   0.00000  Uiso   1.00
H95    H     0.41104   0.90284   0.40809   0.00000  Uiso   1.00
H96    H     0.29299   0.59071   0.63303   0.00000  Uiso   1.00
H97    H     0.32935   0.56773   0.92434   0.00000  Uiso   1.00
H98    H     0.36352   0.52694   0.87759   0.00000  Uiso   1.00
H99    H     0.46115   0.62382   0.28694   0.00000  Uiso   1.00
H100   H     0.42682   0.66357   0.31274   0.00000  Uiso   1.00
O101   O     0.58569   0.53054   0.42302   0.00000  Uiso   1.00
C102   C     0.61105   0.56943   0.26016   0.00000  Uiso   1.00
C103   C     0.01539   0.47307   0.44875   0.00000  Uiso   1.00
C104   C     0.04278   0.51562   0.45557   0.00000  Uiso   1.00
C105   C     0.02741   0.54304   0.44178   0.00000  Uiso   1.00
C106   C     0.08730   0.53006   0.46685   0.00000  Uiso   1.00
C107   C     0.37617   0.68676   0.63488   0.00000  Uiso   1.00
C108   C     0.35639   0.71009   0.63377   0.00000  Uiso   1.00
C109   C     0.37517   0.61926   0.62243   0.00000  Uiso   1.00
C110   C     0.41983   0.77753   0.77848   0.00000  Uiso   1.00
C111   C     0.44304   0.82033   0.75678   0.00000  Uiso   1.00
C112   C     0.42765   0.84264   0.58691   0.00000  Uiso   1.00
C113   C     0.38852   0.82141   0.43285   0.00000  Uiso   1.00
C114   C     0.36549   0.77857   0.44915   0.00000  Uiso   1.00
N115   N     0.11362   0.56713   0.56492   0.00000  Uiso   1.00
H116   H     0.61541   0.59505   0.43167   0.00000  Uiso   1.00
H117   H     0.59780   0.57115   0.00689   0.00000  Uiso   1.00
H118   H     0.64168   0.57295   0.20864   0.00000  Uiso   1.00
H119   H     0.02770   0.45257   0.45379   0.00000  Uiso   1.00
H120   H     0.09716   0.50820   0.40809   0.00000  Uiso   1.00
H121   H     0.40929   0.70228   0.63303   0.00000  Uiso   1.00
H122   H     0.43227   0.76162   0.92434   0.00000  Uiso   1.00
H123   H     0.47306   0.83658   0.87759   0.00000  Uiso   1.00
H124   H     0.37618   0.83733   0.28694   0.00000  Uiso   1.00
H125   H     0.33643   0.76325   0.31274   0.00000  Uiso   1.00
O126   O     0.46946   0.05515   0.42302   0.00000  Uiso   1.00
C127   C     0.43057   0.04162   0.26016   0.00000  Uiso   1.00
C128   C     0.52693   0.54232   0.44875   0.00000  Uiso   1.00
C129   C     0.48438   0.52716   0.45557   0.00000  Uiso   1.00
C130   C     0.45696   0.48437   0.44178   0.00000  Uiso   1.00
C131   C     0.46994   0.55724   0.46685   0.00000  Uiso   1.00
C132   C     0.31324   0.68941   0.63488   0.00000  Uiso   1.00
C133   C     0.28991   0.64630   0.63377   0.00000  Uiso   1.00
C134   C     0.38074   0.75591   0.62243   0.00000  Uiso   1.00
C135   C     0.22247   0.64230   0.77848   0.00000  Uiso   1.00
C136   C     0.17967   0.62271   0.75678   0.00000  Uiso   1.00
C137   C     0.15736   0.58501   0.58691   0.00000  Uiso   1.00
C138   C     0.17859   0.56711   0.43285   0.00000  Uiso   1.00
C139   C     0.22143   0.58692   0.44915   0.00000  Uiso   1.00
N140   N     0.43287   0.54649   0.56492   0.00000  Uiso   1.00
H141   H     0.40495   0.02036   0.43167   0.00000  Uiso   1.00
H142   H     0.42885   0.02665   0.00689   0.00000  Uiso   1.00
H143   H     0.42705   0.06873   0.20864   0.00000  Uiso   1.00
H144   H     0.54743   0.57513   0.45379   0.00000  Uiso   1.00
H145   H     0.49180   0.58896   0.40809   0.00000  Uiso   1.00
H146   H     0.29772   0.70701   0.63303   0.00000  Uiso   1.00
H147   H     0.23838   0.67065   0.92434   0.00000  Uiso   1.00
H148   H     0.16342   0.63648   0.87759   0.00000  Uiso   1.00
H149   H     0.16267   0.53885   0.28694   0.00000  Uiso   1.00
H150   H     0.23675   0.57318   0.31274   0.00000  Uiso   1.00
loop_
_geom_bond_atom_site_label_1
_geom_bond_atom_site_label_2
_geom_bond_distance
_geom_bond_site_symmetry_2
_ccdc_geom_bond_type
O1     C2      1.415   .     S
O1     C105    1.391   .     S
C2     H16     1.102   .     S
C2     H17     1.112   .     S
C2     H18     1.094   .     S
C3     C4      1.384   .     S
C3     H19     1.064   .     S
C3     C80     1.387   1_545 D
C4     C5      1.392   .     D
C4     C6      1.458   .     S
C5     C78     1.387   1_545 S
C5     O126    1.391   .     S
C6     N15     1.281   .     D
C6     H20     1.066   .     S
C7     C8      1.385   .     D
C7     H21     1.063   .     S
C7     C58     1.385   .     S
C8     C32     1.385   .     S
C8     C34     1.472   .     S
C9     C58     1.472   .     S
C9     C60     1.394   .     D
C9     C64     1.396   .     S
C10    C11     1.377   .     S
C10    H22     1.072   .     S
C10    C34     1.394   .     D
C11    C12     1.382   .     D
C11    H23     1.072   .     S
C12    C13     1.391   .     S
C12    N65     1.414   .     S
C13    C14     1.377   .     D
C13    H24     1.070   .     S
C14    H25     1.072   .     S
C14    C34     1.396   .     S
N15    C37     1.414   .     S
O26    C27     1.415   .     S
O26    C130    1.391   .     S
C27    H41     1.102   .     S
C27    H42     1.112   .     S
C27    H43     1.094   .     S
C28    C29     1.384   .     D
C28    H44     1.064   .     S
C28    C105    1.387   1_655 S
C29    C30     1.392   .     S
C29    C31     1.458   .     S
C30    O76     1.391   .     S
C30    C103    1.387   1_655 D
C31    N40     1.281   .     D
C31    H45     1.066   .     S
C32    C33     1.385   .     D
C32    H46     1.063   .     S
C33    C57     1.385   .     S
C33    C59     1.472   .     S
C35    C36     1.377   .     S
C35    H47     1.072   .     S
C35    C59     1.394   .     D
C36    C37     1.382   .     D
C36    H48     1.072   .     S
C37    C38     1.391   .     S
C38    C39     1.377   .     D
C38    H49     1.070   .     S
C39    H50     1.072   .     S
C39    C59     1.396   .     S
N40    C62     1.414   .     S
O51    C52     1.415   .     S
O51    C80     1.391   .     S
C52    H66     1.102   .     S
C52    H67     1.112   .     S
C52    H68     1.094   .     S
C53    C54     1.384   .     S
C53    H69     1.064   .     S
C53    C130    1.387   .     D
C54    C55     1.392   .     D
C54    C56     1.458   .     S
C55    O101    1.391   .     S
C55    C128    1.387   .     S
C56    N65     1.281   .     D
C56    H70     1.066   .     S
C57    C58     1.385   .     D
C57    H71     1.063   .     S
C60    C61     1.377   .     S
C60    H72     1.072   .     S
C61    C62     1.382   .     D
C61    H73     1.072   .     S
C62    C63     1.391   .     S
C63    C64     1.377   .     D
C63    H74     1.070   .     S
C64    H75     1.072   .     S
O76    C77     1.415   .     S
C77    H91     1.102   .     S
C77    H92     1.112   .     S
C77    H93     1.094   .     S
C78    C5      1.387   1_565 S
C78    C79     1.384   .     D
C78    H94     1.064   .     S
C79    C80     1.392   .     S
C79    C81     1.458   .     S
C80    C3      1.387   1_565 D
C81    N90     1.281   .     D
C81    H95     1.066   .     S
C82    C83     1.385   .     D
C82    H96     1.063   .     S
C82    C133    1.385   .     S
C83    C107    1.385   .     S
C83    C109    1.472   .     S
C84    C133    1.472   .     S
C84    C135    1.394   .     S
C84    C139    1.396   .     D
C85    C86     1.377   .     S
C85    H97     1.072   .     S
C85    C109    1.394   .     D
C86    C87     1.382   .     D
C86    H98     1.072   .     S
C87    C88     1.391   .     S
C87    N140    1.414   .     S
C88    C89     1.377   .     D
C88    H99     1.070   .     S
C89    H100    1.072   .     S
C89    C109    1.396   .     S
N90    C112    1.414   .     S
O101   C102    1.415   .     S
C102   H116    1.102   .     S
C102   H117    1.112   .     S
C102   H118    1.094   .     S
C103   C30     1.387   1_455 D
C103   C104    1.384   .     S
C103   H119    1.064   .     S
C104   C105    1.392   .     D
C104   C106    1.458   .     S
C105   C28     1.387   1_455 S
C106   N115    1.281   .     D
C106   H120    1.066   .     S
C107   C108    1.385   .     D
C107   H121    1.063   .     S
C108   C132    1.385   .     S
C108   C134    1.472   .     S
C110   C111    1.377   .     S
C110   H122    1.072   .     S
C110   C134    1.394   .     D
C111   C112    1.382   .     D
C111   H123    1.072   .     S
C112   C113    1.391   .     S
C113   C114    1.377   .     D
C113   H124    1.070   .     S
C114   H125    1.072   .     S
C114   C134    1.396   .     S
N115   C137    1.414   .     S
O126   C127    1.415   .     S
C127   H141    1.102   .     S
C127   H142    1.112   .     S
C127   H143    1.094   .     S
C128   C129    1.384   .     D
C128   H144    1.064   .     S
C129   C130    1.392   .     S
C129   C131    1.458   .     S
C131   N140    1.281   .     D
C131   H145    1.066   .     S
C132   C133    1.385   .     D
C132   H146    1.063   .     S
C135   C136    1.377   .     D
C135   H147    1.072   .     S
C136   C137    1.382   .     S
C136   H148    1.072   .     S
C137   C138    1.391   .     D
C138   C139    1.377   .     S
C138   H149    1.070   .     S
C139   H150    1.072   .     S
