data_473
_audit_creation_date              2023-09-08
_audit_creation_method            'Materials Studio'
_symmetry_space_group_name_H-M    'P1'
_symmetry_Int_Tables_number       1
_symmetry_cell_setting            triclinic
loop_
_symmetry_equiv_pos_as_xyz
  x,y,z
_cell_length_a                    31.3283
_cell_length_b                    31.3283
_cell_length_c                    7.5183
_cell_angle_alpha                 90.0000
_cell_angle_beta                  90.0000
_cell_angle_gamma                 120.0000
loop_
_atom_site_label
_atom_site_type_symbol
_atom_site_fract_x
_atom_site_fract_y
_atom_site_fract_z
_atom_site_U_iso_or_equiv
_atom_site_adp_type
_atom_site_occupancy
B1     B     0.55701   0.44299   0.00000   0.00000  Uiso   1.00
C2     C     0.52779   0.47221   0.00000   0.00000  Uiso   1.00
B3     B     0.55701   0.11402   0.00000   0.00000  Uiso   1.00
C4     C     0.52779   0.05558   0.00000   0.00000  Uiso   1.00
B5     B     0.88598   0.44299   0.00000   0.00000  Uiso   1.00
C6     C     0.94442   0.47221   0.00000   0.00000  Uiso   1.00
B7     B     0.44299   0.55701   0.00000   0.00000  Uiso   1.00
C8     C     0.47221   0.52779   0.00000   0.00000  Uiso   1.00
B9     B     0.44299   0.88598   0.00000   0.00000  Uiso   1.00
C10    C     0.47221   0.94442   0.00000   0.00000  Uiso   1.00
B11    B     0.11402   0.55701   0.00000   0.00000  Uiso   1.00
C12    C     0.05558   0.52779   0.00000   0.00000  Uiso   1.00
C13    C     0.28159   0.64079   0.10278   0.00000  Uiso   1.00
C14    C     0.19057   0.59528  -0.09697   0.00000  Uiso   1.00
H15    H     0.23176   0.61588  -0.34269   0.00000  Uiso   1.00
O16    O     0.14311   0.57155  -0.16455   0.00000  Uiso   1.00
C17    C     0.35920   0.64079   0.10278   0.00000  Uiso   1.00
C18    C     0.40471   0.59528  -0.09697   0.00000  Uiso   1.00
H19    H     0.38412   0.61588  -0.34269   0.00000  Uiso   1.00
O20    O     0.42844   0.57156  -0.16455   0.00000  Uiso   1.00
C21    C     0.35920   0.71841   0.10278   0.00000  Uiso   1.00
C22    C     0.40471   0.80943  -0.09697   0.00000  Uiso   1.00
H23    H     0.38412   0.76824  -0.34269   0.00000  Uiso   1.00
O24    O     0.42844   0.85689  -0.16455   0.00000  Uiso   1.00
C25    C     0.71841   0.35920   0.10278   0.00000  Uiso   1.00
C26    C     0.80943   0.40471  -0.09697   0.00000  Uiso   1.00
H27    H     0.76824   0.38412  -0.34269   0.00000  Uiso   1.00
O28    O     0.85689   0.42844  -0.16455   0.00000  Uiso   1.00
C29    C     0.64079   0.35920   0.10278   0.00000  Uiso   1.00
C30    C     0.59528   0.40471  -0.09697   0.00000  Uiso   1.00
H31    H     0.61588   0.38412  -0.34269   0.00000  Uiso   1.00
O32    O     0.57155   0.42844  -0.16455   0.00000  Uiso   1.00
C33    C     0.64079   0.28159   0.10278   0.00000  Uiso   1.00
C34    C     0.59528   0.19057  -0.09697   0.00000  Uiso   1.00
H35    H     0.61588   0.23176  -0.34269   0.00000  Uiso   1.00
O36    O     0.57155   0.14311  -0.16455   0.00000  Uiso   1.00
C37    C     0.64079   0.28159  -0.10278   0.00000  Uiso   1.00
C38    C     0.59528   0.19057   0.09697   0.00000  Uiso   1.00
H39    H     0.61588   0.23176   0.34269   0.00000  Uiso   1.00
O40    O     0.57155   0.14311   0.16455   0.00000  Uiso   1.00
C41    C     0.64079   0.35920  -0.10278   0.00000  Uiso   1.00
C42    C     0.59528   0.40471   0.09697   0.00000  Uiso   1.00
H43    H     0.61588   0.38412   0.34269   0.00000  Uiso   1.00
O44    O     0.57155   0.42844   0.16455   0.00000  Uiso   1.00
C45    C     0.71841   0.35920  -0.10278   0.00000  Uiso   1.00
C46    C     0.80943   0.40471   0.09697   0.00000  Uiso   1.00
H47    H     0.76824   0.38412   0.34269   0.00000  Uiso   1.00
O48    O     0.85689   0.42844   0.16455   0.00000  Uiso   1.00
C49    C     0.35920   0.71841  -0.10278   0.00000  Uiso   1.00
C50    C     0.40471   0.80943   0.09697   0.00000  Uiso   1.00
H51    H     0.38412   0.76824   0.34269   0.00000  Uiso   1.00
O52    O     0.42844   0.85689   0.16455   0.00000  Uiso   1.00
C53    C     0.35920   0.64079  -0.10278   0.00000  Uiso   1.00
C54    C     0.40471   0.59528   0.09697   0.00000  Uiso   1.00
H55    H     0.38412   0.61588   0.34269   0.00000  Uiso   1.00
O56    O     0.42844   0.57156   0.16455   0.00000  Uiso   1.00
C57    C     0.28159   0.64079  -0.10278   0.00000  Uiso   1.00
C58    C     0.19057   0.59528   0.09697   0.00000  Uiso   1.00
H59    H     0.23176   0.61588   0.34269   0.00000  Uiso   1.00
O60    O     0.14311   0.57155   0.16455   0.00000  Uiso   1.00
C61    C     0.33333   0.66667   0.18683   0.00000  Uiso   1.00
H62    H     0.33333   0.66667  -0.33441   0.00000  Uiso   1.00
C63    C     0.66667   0.33333   0.18683   0.00000  Uiso   1.00
H64    H     0.66667   0.33333  -0.33441   0.00000  Uiso   1.00
C65    C     0.66667   0.33333  -0.18683   0.00000  Uiso   1.00
H66    H     0.66667   0.33333   0.33441   0.00000  Uiso   1.00
C67    C     0.33333   0.66667  -0.18683   0.00000  Uiso   1.00
H68    H     0.33333   0.66667   0.33441   0.00000  Uiso   1.00
C69    C     0.48599   0.51401   0.17676   0.00000  Uiso   1.00
H70    H     0.47588   0.52412   0.30519   0.00000  Uiso   1.00
C71    C     0.38244   0.61756   0.19633   0.00000  Uiso   1.00
C72    C     0.48599   0.97198   0.17676   0.00000  Uiso   1.00
H73    H     0.47588   0.95176   0.30519   0.00000  Uiso   1.00
C74    C     0.38244   0.76488   0.19633   0.00000  Uiso   1.00
C75    C     0.02802   0.51401   0.17676   0.00000  Uiso   1.00
H76    H     0.04824   0.52412   0.30519   0.00000  Uiso   1.00
C77    C     0.23512   0.61756   0.19633   0.00000  Uiso   1.00
C78    C     0.51401   0.48599   0.17676   0.00000  Uiso   1.00
H79    H     0.52412   0.47588   0.30519   0.00000  Uiso   1.00
C80    C     0.61756   0.38244   0.19633   0.00000  Uiso   1.00
C81    C     0.51401   0.02802   0.17676   0.00000  Uiso   1.00
H82    H     0.52412   0.04824   0.30519   0.00000  Uiso   1.00
C83    C     0.61756   0.23512   0.19633   0.00000  Uiso   1.00
C84    C     0.97198   0.48599   0.17676   0.00000  Uiso   1.00
H85    H     0.95176   0.47588   0.30519   0.00000  Uiso   1.00
C86    C     0.76488   0.38244   0.19633   0.00000  Uiso   1.00
C87    C     0.51401   0.48599  -0.17676   0.00000  Uiso   1.00
H88    H     0.52412   0.47588  -0.30519   0.00000  Uiso   1.00
C89    C     0.61756   0.38244  -0.19633   0.00000  Uiso   1.00
C90    C     0.97198   0.48599  -0.17676   0.00000  Uiso   1.00
H91    H     0.95176   0.47588  -0.30519   0.00000  Uiso   1.00
C92    C     0.76488   0.38244  -0.19633   0.00000  Uiso   1.00
C93    C     0.51401   0.02802  -0.17676   0.00000  Uiso   1.00
H94    H     0.52412   0.04824  -0.30519   0.00000  Uiso   1.00
C95    C     0.61756   0.23512  -0.19633   0.00000  Uiso   1.00
C96    C     0.48599   0.51401  -0.17676   0.00000  Uiso   1.00
H97    H     0.47588   0.52412  -0.30519   0.00000  Uiso   1.00
C98    C     0.38244   0.61756  -0.19633   0.00000  Uiso   1.00
C99    C     0.02802   0.51401  -0.17676   0.00000  Uiso   1.00
H100   H     0.04824   0.52412  -0.30519   0.00000  Uiso   1.00
C101   C     0.23512   0.61756  -0.19633   0.00000  Uiso   1.00
C102   C     0.48599   0.97198  -0.17676   0.00000  Uiso   1.00
H103   H     0.47588   0.95176  -0.30519   0.00000  Uiso   1.00
C104   C     0.38244   0.76488  -0.19633   0.00000  Uiso   1.00
loop_
_geom_bond_atom_site_label_1
_geom_bond_atom_site_label_2
_geom_bond_distance
_geom_bond_site_symmetry_2
_ccdc_geom_bond_type
B1     C2      1.586   .     S
B1     O32     1.467   .     S
B1     O44     1.467   .     S
C2     C78     1.525   .     D
C2     C87     1.525   .     S
B3     C4      1.586   .     S
B3     O36     1.467   .     S
B3     O40     1.467   .     S
C4     C81     1.525   .     D
C4     C93     1.525   .     S
B5     C6      1.586   .     S
B5     O28     1.467   .     S
B5     O48     1.467   .     S
C6     C84     1.525   .     D
C6     C90     1.525   .     S
B7     C8      1.586   .     S
B7     O20     1.467   .     S
B7     O56     1.467   .     S
C8     C69     1.525   .     D
C8     C96     1.525   .     S
B9     C10     1.586   .     S
B9     O24     1.467   .     S
B9     O52     1.467   .     S
C10    C72     1.525   .     D
C10    C102    1.525   .     S
B11    C12     1.586   .     S
B11    O16     1.467   .     S
B11    O60     1.467   .     S
C12    C75     1.525   .     D
C12    C99     1.525   .     S
C13    C57     1.545   .     D
C13    C61     1.540   .     S
C13    C77     1.444   .     S
C14    O16     1.384   .     S
C14    C58     1.458   .     S
C14    C101    1.421   .     D
H15    C101    1.104   .     S
C17    C53     1.545   .     D
C17    C61     1.540   .     S
C17    C71     1.444   .     S
C18    O20     1.384   .     S
C18    C54     1.458   .     S
C18    C98     1.421   .     D
H19    C98     1.104   .     S
C21    C49     1.545   .     D
C21    C61     1.540   .     S
C21    C74     1.444   .     S
C22    O24     1.384   .     S
C22    C50     1.458   .     S
C22    C104    1.421   .     D
H23    C104    1.104   .     S
C25    C45     1.545   .     D
C25    C63     1.540   .     S
C25    C86     1.444   .     S
C26    O28     1.384   .     S
C26    C46     1.458   .     S
C26    C92     1.421   .     D
H27    C92     1.104   .     S
C29    C41     1.545   .     D
C29    C63     1.540   .     S
C29    C80     1.444   .     S
C30    O32     1.384   .     S
C30    C42     1.458   .     S
C30    C89     1.421   .     D
H31    C89     1.104   .     S
C33    C37     1.545   .     D
C33    C63     1.540   .     S
C33    C83     1.444   .     S
C34    O36     1.384   .     S
C34    C38     1.458   .     S
C34    C95     1.421   .     D
H35    C95     1.104   .     S
C37    C65     1.540   .     S
C37    C95     1.444   .     S
C38    O40     1.384   .     S
C38    C83     1.421   .     D
H39    C83     1.104   .     S
C41    C65     1.540   .     S
C41    C89     1.444   .     S
C42    O44     1.384   .     S
C42    C80     1.421   .     D
H43    C80     1.104   .     S
C45    C65     1.540   .     S
C45    C92     1.444   .     S
C46    O48     1.384   .     S
C46    C86     1.421   .     D
H47    C86     1.104   .     S
C49    C67     1.540   .     S
C49    C104    1.444   .     S
C50    O52     1.384   .     S
C50    C74     1.421   .     D
H51    C74     1.104   .     S
C53    C67     1.540   .     S
C53    C98     1.444   .     S
C54    O56     1.384   .     S
C54    C71     1.421   .     D
H55    C71     1.104   .     S
C57    C67     1.540   .     S
C57    C101    1.444   .     S
C58    O60     1.384   .     S
C58    C77     1.421   .     D
H59    C77     1.104   .     S
C61    H68     1.110   .     S
H62    C67     1.110   .     S
C63    H66     1.110   .     S
H64    C65     1.110   .     S
C69    H70     1.111   .     S
C69    C78     1.520   .     S
C72    H73     1.111   .     S
C72    C81     1.520   1_565 S
C75    H76     1.111   .     S
C75    C84     1.520   1_455 S
C78    H79     1.111   .     S
C81    C72     1.520   1_545 S
C81    H82     1.111   .     S
C84    C75     1.520   1_655 S
C84    H85     1.111   .     S
C87    H88     1.111   .     S
C87    C96     1.520   .     D
C90    H91     1.111   .     S
C90    C99     1.520   1_655 D
C93    H94     1.111   .     S
C93    C102    1.520   1_545 D
C96    H97     1.111   .     S
C99    C90     1.520   1_455 D
C99    H100    1.111   .     S
C102   C93     1.520   1_565 D
C102   H103    1.111   .     S
