data_474
_audit_creation_date              2023-09-08
_audit_creation_method            'Materials Studio'
_symmetry_space_group_name_H-M    'P1'
_symmetry_Int_Tables_number       1
_symmetry_cell_setting            triclinic
loop_
_symmetry_equiv_pos_as_xyz
  x,y,z
_cell_length_a                    29.9071
_cell_length_b                    29.9071
_cell_length_c                    3.5708
_cell_angle_alpha                 90.0000
_cell_angle_beta                  90.0000
_cell_angle_gamma                 120.0000
loop_
_atom_site_label
_atom_site_type_symbol
_atom_site_fract_x
_atom_site_fract_y
_atom_site_fract_z
_atom_site_U_iso_or_equiv
_atom_site_adp_type
_atom_site_occupancy
H1     H     0.58930   0.58250   0.50000   0.00000  Uiso   1.00
H2     H     0.41400   0.42070   0.50000   0.00000  Uiso   1.00
S3     S     0.50430   0.39770   0.50000   0.00000  Uiso   1.00
S4     S     0.49880   0.60540   0.50000   0.00000  Uiso   1.00
O5     O     0.29770   0.56250   0.50000   0.00000  Uiso   1.00
O6     O     0.70440   0.43790   0.50000   0.00000  Uiso   1.00
N7     N     0.39540   0.58160   0.50000   0.00000  Uiso   1.00
N8     N     0.60730   0.42090   0.50000   0.00000  Uiso   1.00
N9     N     0.41460   0.51370   0.50000   0.00000  Uiso   1.00
H10    H     0.35620   0.55470   0.50000   0.00000  Uiso   1.00
N11    N     0.58860   0.48930   0.50000   0.00000  Uiso   1.00
H12    H     0.64660   0.44740   0.50000   0.00000  Uiso   1.00
C13    C     0.31410   0.61000   0.50000   0.00000  Uiso   1.00
C14    C     0.37040   0.64760   0.50000   0.00000  Uiso   1.00
C15    C     0.40700   0.63180   0.50000   0.00000  Uiso   1.00
C16    C     0.45170   0.45540   0.50000   0.00000  Uiso   1.00
C17    C     0.49720   0.45330   0.50000   0.00000  Uiso   1.00
C18    C     0.54720   0.49850   0.50000   0.00000  Uiso   1.00
H19    H     0.55370   0.34150   0.50000   0.00000  Uiso   1.00
C20    C     0.55160   0.54770   0.50000   0.00000  Uiso   1.00
C21    C     0.50600   0.54990   0.50000   0.00000  Uiso   1.00
C22    C     0.45610   0.50460   0.50000   0.00000  Uiso   1.00
H23    H     0.44790   0.66130   0.50000   0.00000  Uiso   1.00
C24    C     0.57300   0.43960   0.50000   0.00000  Uiso   1.00
C25    C     0.43000   0.56340   0.50000   0.00000  Uiso   1.00
C26    C     0.59480   0.37050   0.50000   0.00000  Uiso   1.00
C27    C     0.63060   0.35360   0.50000   0.00000  Uiso   1.00
C28    C     0.68710   0.39030   0.50000   0.00000  Uiso   1.00
H29    H     0.41750   0.00680   0.50000   0.00000  Uiso   1.00
H30    H     0.57930   0.99330   0.50000   0.00000  Uiso   1.00
S31    S     0.60230   0.10660   0.50000   0.00000  Uiso   1.00
S32    S     0.39460   0.89340   0.50000   0.00000  Uiso   1.00
O33    O     0.43750   0.73520   0.50000   0.00000  Uiso   1.00
O34    O     0.56210   0.26650   0.50000   0.00000  Uiso   1.00
N35    N     0.41840   0.81380   0.50000   0.00000  Uiso   1.00
N36    N     0.57910   0.18640   0.50000   0.00000  Uiso   1.00
N37    N     0.48630   0.90090   0.50000   0.00000  Uiso   1.00
H38    H     0.44530   0.80150   0.50000   0.00000  Uiso   1.00
N39    N     0.51070   0.09930   0.50000   0.00000  Uiso   1.00
H40    H     0.55260   0.19920   0.50000   0.00000  Uiso   1.00
C41    C     0.39000   0.70410   0.50000   0.00000  Uiso   1.00
C42    C     0.35240   0.72280   0.50000   0.00000  Uiso   1.00
C43    C     0.36820   0.77520   0.50000   0.00000  Uiso   1.00
C44    C     0.54460   0.99630   0.50000   0.00000  Uiso   1.00
C45    C     0.54670   0.04390   0.50000   0.00000  Uiso   1.00
C46    C     0.50150   0.04870   0.50000   0.00000  Uiso   1.00
H47    H     0.65850   0.21220   0.50000   0.00000  Uiso   1.00
C48    C     0.45230   0.00390   0.50000   0.00000  Uiso   1.00
C49    C     0.45010   0.95610   0.50000   0.00000  Uiso   1.00
C50    C     0.49540   0.95150   0.50000   0.00000  Uiso   1.00
H51    H     0.33870   0.78660   0.50000   0.00000  Uiso   1.00
C52    C     0.56040   0.13340   0.50000   0.00000  Uiso   1.00
C53    C     0.43660   0.86660   0.50000   0.00000  Uiso   1.00
C54    C     0.62950   0.22430   0.50000   0.00000  Uiso   1.00
C55    C     0.64640   0.27700   0.50000   0.00000  Uiso   1.00
C56    C     0.60970   0.29680   0.50000   0.00000  Uiso   1.00
H57    H     0.99320   0.41070   0.50000   0.00000  Uiso   1.00
H58    H     0.00670   0.58600   0.50000   0.00000  Uiso   1.00
S59    S     0.89340   0.49570   0.50000   0.00000  Uiso   1.00
S60    S     0.10660   0.50120   0.50000   0.00000  Uiso   1.00
O61    O     0.26480   0.70230   0.50000   0.00000  Uiso   1.00
O62    O     0.73350   0.29560   0.50000   0.00000  Uiso   1.00
N63    N     0.18620   0.60460   0.50000   0.00000  Uiso   1.00
N64    N     0.81360   0.39270   0.50000   0.00000  Uiso   1.00
N65    N     0.09910   0.58540   0.50000   0.00000  Uiso   1.00
H66    H     0.19850   0.64380   0.50000   0.00000  Uiso   1.00
N67    N     0.90070   0.41140   0.50000   0.00000  Uiso   1.00
H68    H     0.80080   0.35340   0.50000   0.00000  Uiso   1.00
C69    C     0.29590   0.68590   0.50000   0.00000  Uiso   1.00
C70    C     0.27720   0.62960   0.50000   0.00000  Uiso   1.00
C71    C     0.22480   0.59300   0.50000   0.00000  Uiso   1.00
C72    C     0.00370   0.54830   0.50000   0.00000  Uiso   1.00
C73    C     0.95610   0.50280   0.50000   0.00000  Uiso   1.00
C74    C     0.95130   0.45280   0.50000   0.00000  Uiso   1.00
H75    H     0.78780   0.44630   0.50000   0.00000  Uiso   1.00
C76    C     0.99610   0.44840   0.50000   0.00000  Uiso   1.00
C77    C     0.04390   0.49400   0.50000   0.00000  Uiso   1.00
C78    C     0.04850   0.54390   0.50000   0.00000  Uiso   1.00
H79    H     0.21340   0.55210   0.50000   0.00000  Uiso   1.00
C80    C     0.86660   0.42700   0.50000   0.00000  Uiso   1.00
C81    C     0.13340   0.57000   0.50000   0.00000  Uiso   1.00
C82    C     0.77570   0.40520   0.50000   0.00000  Uiso   1.00
C83    C     0.72300   0.36940   0.50000   0.00000  Uiso   1.00
C84    C     0.70320   0.31290   0.50000   0.00000  Uiso   1.00
loop_
_geom_bond_atom_site_label_1
_geom_bond_atom_site_label_2
_geom_bond_distance
_geom_bond_site_symmetry_2
_ccdc_geom_bond_type
H1     C20     1.087   .     S
H2     C16     1.085   .     S
S3     C17     1.779   .     S
S3     C24     1.794   .     S
S4     C21     1.777   .     S
S4     C25     1.796   .     S
O5     C13     1.250   .     D
O6     C28     1.248   .     D
N7     H10     1.039   .     S
N7     C15     1.361   .     S
N7     C25     1.389   .     S
N8     H12     1.038   .     S
N8     C24     1.392   .     S
N8     C26     1.360   .     S
N9     C22     1.397   .     S
N9     C25     1.318   .     D
N11    C18     1.396   .     S
N11    C24     1.317   .     D
C13    C14     1.485   .     S
C13    C70     1.486   .     S
C14    C15     1.392   .     D
C14    C41     1.486   .     S
C15    H23     1.093   .     S
C16    C17     1.393   .     D
C16    C22     1.410   .     S
C17    C18     1.429   .     S
C18    C20     1.410   .     D
H19    C26     1.094   .     S
C20    C21     1.398   .     S
C21    C22     1.429   .     D
C26    C27     1.394   .     D
C27    C28     1.485   .     S
C27    C56     1.488   .     S
C28    C83     1.488   .     S
H29    C48     1.087   .     S
H30    C44     1.085   .     S
S31    C45     1.779   .     S
S31    C52     1.794   .     S
S32    C49     1.777   .     S
S32    C53     1.796   .     S
O33    C41     1.250   .     D
O34    C56     1.248   .     D
N35    H38     1.039   .     S
N35    C43     1.361   .     S
N35    C53     1.389   .     S
N36    H40     1.038   .     S
N36    C52     1.392   .     S
N36    C54     1.360   .     S
N37    C50     1.397   .     S
N37    C53     1.318   .     D
N39    C46     1.396   .     S
N39    C52     1.317   .     D
C41    C42     1.485   .     S
C42    C43     1.392   .     D
C42    C69     1.486   .     S
C43    H51     1.093   .     S
C44    C45     1.393   1_565 S
C44    C50     1.410   .     D
C45    C44     1.393   1_545 S
C45    C46     1.429   .     D
C46    C48     1.410   .     S
H47    C54     1.094   .     S
C48    C49     1.398   1_545 D
C49    C48     1.398   1_565 D
C49    C50     1.429   .     S
C54    C55     1.394   .     D
C55    C56     1.485   .     S
C55    C84     1.488   .     S
H57    C76     1.087   .     S
H58    C72     1.085   .     S
S59    C73     1.779   .     S
S59    C80     1.794   .     S
S60    C77     1.777   .     S
S60    C81     1.796   .     S
O61    C69     1.250   .     D
O62    C84     1.248   .     D
N63    H66     1.039   .     S
N63    C71     1.361   .     S
N63    C81     1.389   .     S
N64    H68     1.038   .     S
N64    C80     1.392   .     S
N64    C82     1.360   .     S
N65    C78     1.397   .     S
N65    C81     1.318   .     D
N67    C74     1.396   .     S
N67    C80     1.317   .     D
C69    C70     1.485   .     S
C70    C71     1.392   .     D
C71    H79     1.093   .     S
C72    C73     1.393   1_455 S
C72    C78     1.410   .     D
C73    C72     1.393   1_655 S
C73    C74     1.429   .     D
C74    C76     1.410   .     S
H75    C82     1.094   .     S
C76    C77     1.398   1_655 D
C77    C76     1.398   1_455 D
C77    C78     1.429   .     S
C82    C83     1.394   .     D
C83    C84     1.485   .     S
