data_475
_audit_creation_date              2023-09-08
_audit_creation_method            'Materials Studio'
_symmetry_space_group_name_H-M    'P1'
_symmetry_Int_Tables_number       1
_symmetry_cell_setting            triclinic
loop_
_symmetry_equiv_pos_as_xyz
  x,y,z
_cell_length_a                    32.2005
_cell_length_b                    32.2005
_cell_length_c                    3.8282
_cell_angle_alpha                 90.0000
_cell_angle_beta                  90.0000
_cell_angle_gamma                 120.0000
loop_
_atom_site_label
_atom_site_type_symbol
_atom_site_fract_x
_atom_site_fract_y
_atom_site_fract_z
_atom_site_U_iso_or_equiv
_atom_site_adp_type
_atom_site_occupancy
N1     N     0.57889   0.66917   0.50001   0.00000  Uiso   1.00
N2     N     0.65622   0.57306   0.50001   0.00000  Uiso   1.00
N3     N     0.33083   0.90973   0.50001   0.00000  Uiso   1.00
N4     N     0.42694   0.08316   0.50001   0.00000  Uiso   1.00
N5     N     0.09028   0.42111   0.50001   0.00000  Uiso   1.00
N6     N     0.91684   0.34378   0.50001   0.00000  Uiso   1.00
C7     C     0.57012   0.70606   0.50001   0.00000  Uiso   1.00
C8     C     0.62095   0.52656   0.50001   0.00000  Uiso   1.00
C9     C     0.29394   0.86406   0.50001   0.00000  Uiso   1.00
C10    C     0.47344   0.09439   0.50001   0.00000  Uiso   1.00
C11    C     0.13594   0.42988   0.50001   0.00000  Uiso   1.00
C12    C     0.90561   0.37905   0.50001   0.00000  Uiso   1.00
C13    C     0.66653   0.70788   0.50001   0.00000  Uiso   1.00
C14    C     0.65618   0.61527   0.50001   0.00000  Uiso   1.00
C15    C     0.29212   0.95865   0.50001   0.00000  Uiso   1.00
C16    C     0.38473   0.04090   0.50001   0.00000  Uiso   1.00
C17    C     0.04135   0.33347   0.50001   0.00000  Uiso   1.00
C18    C     0.95910   0.34382   0.50001   0.00000  Uiso   1.00
C19    C     0.70787   0.70324   0.50001   0.00000  Uiso   1.00
C20    C     0.61526   0.62102   0.50001   0.00000  Uiso   1.00
C21    C     0.29676   0.00463   0.50001   0.00000  Uiso   1.00
C22    C     0.37898   0.99423   0.50001   0.00000  Uiso   1.00
C23    C     0.99537   0.29213   0.50001   0.00000  Uiso   1.00
C24    C     0.00577   0.38474   0.50001   0.00000  Uiso   1.00
C25    C     0.70208   0.65675   0.50001   0.00000  Uiso   1.00
C26    C     0.62001   0.66717   0.50001   0.00000  Uiso   1.00
C27    C     0.34325   0.04533   0.50001   0.00000  Uiso   1.00
C28    C     0.33283   0.95284   0.50001   0.00000  Uiso   1.00
C29    C     0.95467   0.29792   0.50001   0.00000  Uiso   1.00
C30    C     0.04716   0.37999   0.50001   0.00000  Uiso   1.00
H31    H     0.59818   0.74045   0.50001   0.00000  Uiso   1.00
H32    H     0.58598   0.51821   0.50001   0.00000  Uiso   1.00
H33    H     0.25955   0.85773   0.50001   0.00000  Uiso   1.00
H34    H     0.48179   0.06778   0.50001   0.00000  Uiso   1.00
H35    H     0.14227   0.40182   0.50001   0.00000  Uiso   1.00
H36    H     0.93222   0.41402   0.50001   0.00000  Uiso   1.00
O37    O     0.57382   0.58534   0.50001   0.00000  Uiso   1.00
O38    O     0.41466   0.98848   0.50001   0.00000  Uiso   1.00
O39    O     0.01152   0.42618   0.50001   0.00000  Uiso   1.00
C40    C     0.32559   0.70500   0.50001   0.00000  Uiso   1.00
C41    C     0.62897   0.28692   0.50001   0.00000  Uiso   1.00
C42    C     0.29500   0.62059   0.50001   0.00000  Uiso   1.00
C43    C     0.71308   0.34206   0.50001   0.00000  Uiso   1.00
C44    C     0.37941   0.67442   0.50001   0.00000  Uiso   1.00
C45    C     0.65794   0.37103   0.50001   0.00000  Uiso   1.00
N46    N     0.28865   0.65916   0.50001   0.00000  Uiso   1.00
N47    N     0.67513   0.29677   0.50001   0.00000  Uiso   1.00
N48    N     0.34084   0.62948   0.50001   0.00000  Uiso   1.00
N49    N     0.70323   0.37836   0.50001   0.00000  Uiso   1.00
N50    N     0.37052   0.71135   0.50001   0.00000  Uiso   1.00
N51    N     0.62164   0.32487   0.50001   0.00000  Uiso   1.00
C52    C     0.31771   0.74451   0.50001   0.00000  Uiso   1.00
C53    C     0.59013   0.23916   0.50001   0.00000  Uiso   1.00
C54    C     0.25549   0.57320   0.50001   0.00000  Uiso   1.00
C55    C     0.76084   0.35097   0.50001   0.00000  Uiso   1.00
C56    C     0.42680   0.68229   0.50001   0.00000  Uiso   1.00
C57    C     0.64903   0.40987   0.50001   0.00000  Uiso   1.00
C58    C     0.43564   0.64336   0.50001   0.00000  Uiso   1.00
C59    C     0.68712   0.45809   0.50001   0.00000  Uiso   1.00
C60    C     0.35663   0.79227   0.50001   0.00000  Uiso   1.00
C61    C     0.54191   0.22903   0.50001   0.00000  Uiso   1.00
C62    C     0.20773   0.56436   0.50001   0.00000  Uiso   1.00
C63    C     0.77097   0.31288   0.50001   0.00000  Uiso   1.00
C64    C     0.48261   0.65098   0.50001   0.00000  Uiso   1.00
C65    C     0.67825   0.49667   0.50001   0.00000  Uiso   1.00
C66    C     0.34902   0.83163   0.50001   0.00000  Uiso   1.00
C67    C     0.50333   0.18157   0.50001   0.00000  Uiso   1.00
C68    C     0.16837   0.51739   0.50001   0.00000  Uiso   1.00
C69    C     0.81843   0.32175   0.50001   0.00000  Uiso   1.00
C70    C     0.52281   0.69786   0.50001   0.00000  Uiso   1.00
C71    C     0.63087   0.48860   0.50001   0.00000  Uiso   1.00
C72    C     0.30214   0.82495   0.50001   0.00000  Uiso   1.00
C73    C     0.51140   0.14227   0.50001   0.00000  Uiso   1.00
C74    C     0.17505   0.47719   0.50001   0.00000  Uiso   1.00
C75    C     0.85773   0.36913   0.50001   0.00000  Uiso   1.00
C76    C     0.51428   0.73687   0.50001   0.00000  Uiso   1.00
C77    C     0.59272   0.44061   0.50001   0.00000  Uiso   1.00
C78    C     0.26313   0.77741   0.50001   0.00000  Uiso   1.00
C79    C     0.55939   0.15212   0.50001   0.00000  Uiso   1.00
C80    C     0.22258   0.48572   0.50001   0.00000  Uiso   1.00
C81    C     0.84788   0.40728   0.50001   0.00000  Uiso   1.00
C82    C     0.46724   0.72921   0.50001   0.00000  Uiso   1.00
C83    C     0.60164   0.40208   0.50001   0.00000  Uiso   1.00
C84    C     0.27079   0.73803   0.50001   0.00000  Uiso   1.00
C85    C     0.59792   0.19956   0.50001   0.00000  Uiso   1.00
C86    C     0.26197   0.53276   0.50001   0.00000  Uiso   1.00
C87    C     0.80044   0.39836   0.50001   0.00000  Uiso   1.00
H88    H     0.40781   0.60875   0.50001   0.00000  Uiso   1.00
H89    H     0.72202   0.46574   0.50001   0.00000  Uiso   1.00
H90    H     0.39125   0.79905   0.50001   0.00000  Uiso   1.00
H91    H     0.53426   0.25628   0.50001   0.00000  Uiso   1.00
H92    H     0.20095   0.59219   0.50001   0.00000  Uiso   1.00
H93    H     0.74372   0.27798   0.50001   0.00000  Uiso   1.00
H94    H     0.48730   0.62179   0.50001   0.00000  Uiso   1.00
H95    H     0.70679   0.53096   0.50001   0.00000  Uiso   1.00
H96    H     0.37821   0.86551   0.50001   0.00000  Uiso   1.00
H97    H     0.46904   0.17583   0.50001   0.00000  Uiso   1.00
H98    H     0.13449   0.51270   0.50001   0.00000  Uiso   1.00
H99    H     0.82417   0.29321   0.50001   0.00000  Uiso   1.00
H100   H     0.54236   0.77137   0.50001   0.00000  Uiso   1.00
H101   H     0.55787   0.43317   0.50001   0.00000  Uiso   1.00
H102   H     0.22863   0.77100   0.50001   0.00000  Uiso   1.00
H103   H     0.56683   0.12471   0.50001   0.00000  Uiso   1.00
H104   H     0.22900   0.45763   0.50001   0.00000  Uiso   1.00
H105   H     0.87529   0.44213   0.50001   0.00000  Uiso   1.00
H106   H     0.46290   0.75859   0.50001   0.00000  Uiso   1.00
H107   H     0.57280   0.36801   0.50001   0.00000  Uiso   1.00
H108   H     0.24141   0.70431   0.50001   0.00000  Uiso   1.00
H109   H     0.63199   0.20479   0.50001   0.00000  Uiso   1.00
H110   H     0.29569   0.53710   0.50001   0.00000  Uiso   1.00
H111   H     0.79521   0.42720   0.50001   0.00000  Uiso   1.00
H112   H     0.76025   0.76880   0.27614   0.00000  Uiso   1.00
H113   H     0.23120   0.99145   0.27614   0.00000  Uiso   1.00
H114   H     0.00855   0.23975   0.27614   0.00000  Uiso   1.00
H115   H     0.76025   0.76880   0.72387   0.00000  Uiso   1.00
H116   H     0.23120   0.99145   0.72387   0.00000  Uiso   1.00
H117   H     0.00855   0.23975   0.72387   0.00000  Uiso   1.00
H118   H     0.73191   0.65309   0.50001   0.00000  Uiso   1.00
H119   H     0.67065   0.74146   0.50001   0.00000  Uiso   1.00
C120   C     0.75606   0.74671   0.50001   0.00000  Uiso   1.00
H121   H     0.78498   0.73831   0.50001   0.00000  Uiso   1.00
H122   H     0.34691   0.07882   0.50001   0.00000  Uiso   1.00
H123   H     0.25853   0.92918   0.50001   0.00000  Uiso   1.00
C124   C     0.25329   0.00936   0.50001   0.00000  Uiso   1.00
H125   H     0.26169   0.04667   0.50001   0.00000  Uiso   1.00
H126   H     0.92118   0.26809   0.50001   0.00000  Uiso   1.00
H127   H     0.07082   0.32935   0.50001   0.00000  Uiso   1.00
C128   C     0.99064   0.24394   0.50001   0.00000  Uiso   1.00
H129   H     0.95333   0.21502   0.50001   0.00000  Uiso   1.00
loop_
_geom_bond_atom_site_label_1
_geom_bond_atom_site_label_2
_geom_bond_distance
_geom_bond_site_symmetry_2
_ccdc_geom_bond_type
N1     C7      1.351   .     S
N1     C26     1.357   .     D
N2     C8      1.353   .     D
N2     C14     1.360   .     S
N3     C9      1.351   .     S
N3     C28     1.357   .     D
N4     C10     1.353   .     D
N4     C16     1.360   .     S
N5     C11     1.351   .     S
N5     C30     1.357   .     D
N6     C12     1.353   .     D
N6     C18     1.360   .     S
C7     H31     1.021   .     S
C7     C70     1.410   .     D
C8     H32     1.019   .     S
C8     C71     1.409   .     S
C9     H33     1.021   .     S
C9     C72     1.410   .     D
C10    H34     1.019   .     S
C10    C73     1.409   .     S
C11    H35     1.021   .     S
C11    C74     1.410   .     D
C12    H36     1.019   .     S
C12    C75     1.409   .     S
C13    C19     1.412   .     D
C13    C26     1.414   .     S
C13    H119    1.022   .     S
C14    C20     1.419   .     S
C14    C25     1.412   .     D
C15    C21     1.412   1_565 D
C15    C28     1.414   .     S
C15    H123    1.022   .     S
C16    C22     1.419   1_545 S
C16    C27     1.412   .     D
C17    C23     1.412   1_455 D
C17    C30     1.414   .     S
C17    H127    1.022   .     S
C18    C24     1.419   1_655 S
C18    C29     1.412   .     D
C19    C25     1.413   .     S
C19    C120    1.482   .     S
C20    C26     1.416   .     S
C20    O37     1.252   .     D
C21    C15     1.412   1_545 D
C21    C27     1.413   .     S
C21    C124    1.482   .     S
C22    C16     1.419   1_565 S
C22    C28     1.416   .     S
C22    O38     1.252   .     D
C23    C17     1.412   1_655 D
C23    C29     1.413   .     S
C23    C128    1.482   .     S
C24    C18     1.419   1_455 S
C24    C30     1.416   .     S
C24    O39     1.252   .     D
C25    H118    1.025   .     S
C27    H122    1.025   .     S
C29    H126    1.025   .     S
C40    N46     1.356   .     S
C40    N50     1.356   .     S
C40    C52     1.416   .     D
C41    N47     1.356   .     S
C41    N51     1.356   .     D
C41    C53     1.416   .     S
C42    N46     1.356   .     S
C42    N48     1.356   .     S
C42    C54     1.416   .     D
C43    N47     1.356   .     D
C43    N49     1.356   .     S
C43    C55     1.416   .     S
C44    N48     1.356   .     D
C44    N50     1.356   .     S
C44    C56     1.416   .     S
C45    N49     1.356   .     D
C45    N51     1.356   .     S
C45    C57     1.416   .     S
C52    C60     1.417   .     S
C52    C84     1.418   .     S
C53    C61     1.418   .     D
C53    C85     1.417   .     S
C54    C62     1.417   .     S
C54    C86     1.418   .     S
C55    C63     1.418   .     S
C55    C87     1.417   .     D
C56    C58     1.417   .     S
C56    C82     1.418   .     S
C57    C59     1.418   .     D
C57    C83     1.417   .     S
C58    C64     1.406   .     D
C58    H88     1.023   .     S
C59    C65     1.407   .     S
C59    H89     1.023   .     S
C60    C66     1.406   .     D
C60    H90     1.023   .     S
C61    C67     1.407   .     S
C61    H91     1.023   .     S
C62    C68     1.406   .     D
C62    H92     1.023   .     S
C63    C69     1.407   .     D
C63    H93     1.023   .     S
C64    C70     1.414   .     S
C64    H94     1.024   .     S
C65    C71     1.414   .     D
C65    H95     1.024   .     S
C66    C72     1.414   .     S
C66    H96     1.024   .     S
C67    C73     1.414   .     D
C67    H97     1.024   .     S
C68    C74     1.414   .     S
C68    H98     1.024   .     S
C69    C75     1.414   .     S
C69    H99     1.024   .     S
C70    C76     1.414   .     S
C71    C77     1.414   .     S
C72    C78     1.414   .     S
C73    C79     1.414   .     S
C74    C80     1.414   .     S
C75    C81     1.414   .     D
C76    C82     1.408   .     D
C76    H100    1.023   .     S
C77    C83     1.406   .     D
C77    H101    1.024   .     S
C78    C84     1.408   .     D
C78    H102    1.023   .     S
C79    C85     1.406   .     D
C79    H103    1.024   .     S
C80    C86     1.408   .     D
C80    H104    1.023   .     S
C81    C87     1.406   .     S
C81    H105    1.024   .     S
C82    H106    1.023   .     S
C83    H107    1.023   .     S
C84    H108    1.023   .     S
C85    H109    1.023   .     S
C86    H110    1.023   .     S
C87    H111    1.023   .     S
H112   C120    1.078   .     S
H113   C124    1.078   1_565 S
H114   C128    1.078   1_455 S
H115   C120    1.078   .     S
H116   C124    1.078   1_565 S
H117   C128    1.078   1_455 S
C120   H121    1.092   .     S
C124   H116    1.078   1_545 S
C124   H113    1.078   1_545 S
C124   H125    1.092   .     S
C128   H117    1.078   1_655 S
C128   H114    1.078   1_655 S
C128   H129    1.092   .     S
