data_476
_audit_creation_date              2023-09-08
_audit_creation_method            'Materials Studio'
_symmetry_space_group_name_H-M    'P1'
_symmetry_Int_Tables_number       1
_symmetry_cell_setting            triclinic
loop_
_symmetry_equiv_pos_as_xyz
  x,y,z
_cell_length_a                    40.3158
_cell_length_b                    40.3158
_cell_length_c                    3.5000
_cell_angle_alpha                 90.0000
_cell_angle_beta                  90.0000
_cell_angle_gamma                 119.9950
loop_
_atom_site_label
_atom_site_type_symbol
_atom_site_fract_x
_atom_site_fract_y
_atom_site_fract_z
_atom_site_U_iso_or_equiv
_atom_site_adp_type
_atom_site_occupancy
xx1    C     0.31944   0.68023   0.41324   0.00000  Uiso   1.00
xx2    C     0.29140   0.63938   0.44506   0.00000  Uiso   1.00
xx3    C     0.30951   0.61632   0.47894   0.00000  Uiso   1.00
xx4    C     0.35002   0.62991   0.47403   0.00000  Uiso   1.00
xx5    C     0.37336   0.67037   0.43158   0.00000  Uiso   1.00
xx6    C     0.36113   0.69792   0.40384   0.00000  Uiso   1.00
xx7    C     0.04384   0.51566   0.48689   0.00000  Uiso   1.00
xx8    C     0.02622   0.53816   0.55834   0.00000  Uiso   1.00
xx9    C     0.98519   0.52411   0.56661   0.00000  Uiso   1.00
xx10   O     0.02796   0.45086   0.37253   0.00000  Uiso   1.00
xx11   C     0.00690   0.41111   0.26367   0.00000  Uiso   1.00
xx12   C     0.08567   0.53020   0.46143   0.00000  Uiso   1.00
xx13   N     0.11910   0.56642   0.50454   0.00000  Uiso   1.00
xx14   N     0.97151   0.60825   0.74799   0.00000  Uiso   1.00
xx15   N     0.93530   0.59345   0.82539   0.00000  Uiso   1.00
xx16   N     0.92496   0.61952   0.84167   0.00000  Uiso   1.00
xx17   C     0.95675   0.65328   0.76299   0.00000  Uiso   1.00
xx18   C     0.98632   0.64604   0.70198   0.00000  Uiso   1.00
xx19   C     0.88318   0.64478   1.06179   0.00000  Uiso   1.00
xx20   C     0.88911   0.61300   0.94915   0.00000  Uiso   1.00
xx21   C     0.14015   0.42553   0.92948   0.00000  Uiso   1.00
xx22   C     0.18183   0.43849   0.75793   0.00000  Uiso   1.00
xx23   C     0.17304   0.39888   0.59588   0.00000  Uiso   1.00
xx24   C     0.15452   0.35742   0.75990   0.00000  Uiso   1.00
xx25   O     0.19579   0.40336   0.35980   0.00000  Uiso   1.00
xx26   C     0.81220   0.52021   0.39172   0.00000  Uiso   1.00
xx27   C     0.77288   0.54138   0.10681   0.00000  Uiso   1.00
xx28   C     0.86866   0.68773   0.38229   0.00000  Uiso   1.00
xx29   C     0.80825   0.64635   0.10569   0.00000  Uiso   1.00
xx30   C     0.81952   0.43599   0.63443   0.00000  Uiso   1.00
xx31   C     0.84034   0.41749   0.52311   0.00000  Uiso   1.00
xx32   C     0.22186   0.58217   0.35322   0.00000  Uiso   1.00
xx33   C     0.24877   0.62149   0.44847   0.00000  Uiso   1.00
xx34   C     0.22753   0.64015   0.54764   0.00000  Uiso   1.00
xx35   C     0.18614   0.62201   0.56110   0.00000  Uiso   1.00
xx36   C     0.49647   0.95278   0.37853   0.00000  Uiso   1.00
xx37   C     0.52559   0.99448   0.34088   0.00000  Uiso   1.00
xx38   C     0.53106   0.03343   0.48969   0.00000  Uiso   1.00
xx39   O     0.43924   0.93560   0.68028   0.00000  Uiso   1.00
xx40   C     0.45513   0.91672   0.87261   0.00000  Uiso   1.00
xx41   C     0.48070   0.89893   0.37297   0.00000  Uiso   1.00
xx42   N     0.48353   0.86498   0.35266   0.00000  Uiso   1.00
xx43   N     0.48320   0.06967   0.12517   0.00000  Uiso   1.00
xx44   N     0.46169   0.08863   0.13573   0.00000  Uiso   1.00
xx45   N     0.42259   0.06815   0.09078   0.00000  Uiso   1.00
xx46   C     0.42019   0.03824  -0.06073   0.00000  Uiso   1.00
xx47   C     0.44785   0.03825   0.13559   0.00000  Uiso   1.00
xx48   C     0.37492   0.09321   0.04689   0.00000  Uiso   1.00
xx49   C     0.38588   0.06384   0.14759   0.00000  Uiso   1.00
xx50   C     0.64708   0.97622   0.70126   0.00000  Uiso   1.00
xx51   C     0.69113   1.00198   0.84983   0.00000  Uiso   1.00
xx52   C     0.70089   0.97070   0.96811   0.00000  Uiso   1.00
xx53   C     0.67407   0.92488   0.02855   0.00000  Uiso   1.00
xx54   O     0.73461   0.97800   0.98131   0.00000  Uiso   1.00
xx55   C     0.26765   0.96741   0.33651   0.00000  Uiso   1.00
xx56   C     0.31308   0.96269   0.97453   0.00000  Uiso   1.00
xx57   C     0.30264   0.10282   0.03198   0.00000  Uiso   1.00
xx58   C     0.32419   0.08147   0.64914   0.00000  Uiso   1.00
xx59   C     0.58594   0.19031   0.53431   0.00000  Uiso   1.00
xx60   C     0.54614   0.17522   0.63388   0.00000  Uiso   1.00
xx61   C     0.38481   0.77002   0.47079   0.00000  Uiso   1.00
xx62   C     0.39088   0.73906   0.37780   0.00000  Uiso   1.00
xx63   C     0.43049   0.75421   0.26856   0.00000  Uiso   1.00
xx64   C     0.45995   0.79401   0.26884   0.00000  Uiso   1.00
xx65   C     0.51951   0.47712   0.44116   0.00000  Uiso   1.00
xx66   C     0.53734   0.51273   0.62733   0.00000  Uiso   1.00
xx67   C     0.51866   0.53445   0.68325   0.00000  Uiso   1.00
xx68   O     0.46235   0.43199   0.13322   0.00000  Uiso   1.00
xx69   C     0.42479   0.41023  -0.02307   0.00000  Uiso   1.00
xx70   C     0.53834   0.45496   0.38411   0.00000  Uiso   1.00
xx71   N     0.57359   0.46130   0.50945   0.00000  Uiso   1.00
xx72   N     0.57490   0.62066   0.21313   0.00000  Uiso   1.00
xx73   N     0.60525   0.65105   0.32704   0.00000  Uiso   1.00
xx74   N     0.59624   0.67392   0.50028   0.00000  Uiso   1.00
xx75   C     0.55765   0.65705   0.50434   0.00000  Uiso   1.00
xx76   C     0.54424   0.62366   0.30892   0.00000  Uiso   1.00
xx77   C     0.60598   0.73274   0.78282   0.00000  Uiso   1.00
xx78   C     0.62227   0.70976   0.62459   0.00000  Uiso   1.00
xx79   C     0.33599   0.27402   0.47750   0.00000  Uiso   1.00
xx80   C     0.29997   0.23313   0.33475   0.00000  Uiso   1.00
xx81   C     0.31860   0.20814   0.22226   0.00000  Uiso   1.00
xx82   C     0.36394   0.22057   0.15194   0.00000  Uiso   1.00
xx83   O     0.29914   0.17296   0.21784   0.00000  Uiso   1.00
xx84   C     0.73942   0.80099   0.47626   0.00000  Uiso   1.00
xx85   C     0.72412   0.74750   0.84297   0.00000  Uiso   1.00
xx86   C     0.61419   0.80827   0.78227   0.00000  Uiso   1.00
xx87   C     0.63549   0.78582   0.17102   0.00000  Uiso   1.00
xx88   C     0.42589   0.59911   0.63627   0.00000  Uiso   1.00
xx89   C     0.40838   0.56053   0.51165   0.00000  Uiso   1.00
xx90   C     0.59359   0.37964   0.36246   0.00000  Uiso   1.00
xx91   C     0.63198   0.39387   0.49676   0.00000  Uiso   1.00
xx92   C     0.64970   0.43316   0.60763   0.00000  Uiso   1.00
xx93   C     0.63046   0.45489   0.60349   0.00000  Uiso   1.00
xx94   H     0.30876   0.69836   0.39099   0.00000  Uiso   1.00
xx95   H     0.29219   0.58757   0.51620   0.00000  Uiso   1.00
xx96   H     0.40191   0.68057   0.42054   0.00000  Uiso   1.00
xx97   H     0.04466   0.56657   0.60330   0.00000  Uiso   1.00
xx98   H    -0.00343   0.41124  -0.01457   0.00000  Uiso   1.00
xx99   H    -0.01927   0.39420   0.42617   0.00000  Uiso   1.00
xx100  H     0.09243   0.50958   0.39776   0.00000  Uiso   1.00
xx101  H     0.95960   0.67989   0.75356   0.00000  Uiso   1.00
xx102  H     1.01409   0.66591   0.64011   0.00000  Uiso   1.00
xx103  H     0.89951   0.66849   0.88398   0.00000  Uiso   1.00
xx104  H     0.90291   0.65253   1.29795   0.00000  Uiso   1.00
xx105  H     0.13769   0.44610   1.09692   0.00000  Uiso   1.00
xx106  H     0.12328   0.42506   0.68714   0.00000  Uiso   1.00
xx107  H     0.80281   0.49972   0.16021   0.00000  Uiso   1.00
xx108  H     0.79013   0.50431   0.59538   0.00000  Uiso   1.00
xx109  H     0.83650   0.51738   0.47557   0.00000  Uiso   1.00
xx110  H     0.75185   0.51407   0.23524   0.00000  Uiso   1.00
xx111  H     0.76694   0.53486  -0.18311   0.00000  Uiso   1.00
xx112  H     0.75955   0.55853   0.16583   0.00000  Uiso   1.00
xx113  H     0.87259   0.70664   0.14637   0.00000  Uiso   1.00
xx114  H     0.89860   0.70158   0.46592   0.00000  Uiso   1.00
xx115  H     0.85496   0.69712   0.58190   0.00000  Uiso   1.00
xx116  H     0.78070   0.62072   0.15263   0.00000  Uiso   1.00
xx117  H     0.80725   0.65258  -0.18203   0.00000  Uiso   1.00
xx118  H     0.80322   0.66789   0.24133   0.00000  Uiso   1.00
xx119  H     0.83516   0.46391   0.71623   0.00000  Uiso   1.00
xx120  H     0.23249   0.56527   0.26321   0.00000  Uiso   1.00
xx121  H     0.24266   0.66849   0.61936   0.00000  Uiso   1.00
xx122  H     0.17482   0.63873   0.63976   0.00000  Uiso   1.00
xx123  H     0.55267   1.00416   0.27831   0.00000  Uiso   1.00
xx124  H     0.54564   0.03227   0.73889   0.00000  Uiso   1.00
xx125  H     0.43339   0.88626   0.84725   0.00000  Uiso   1.00
xx126  H     0.43544   0.91270   1.09742   0.00000  Uiso   1.00
xx127  H     0.45310   0.88106   0.37076   0.00000  Uiso   1.00
xx128  H     0.39858   0.01477  -0.18542   0.00000  Uiso   1.00
xx129  H     0.43755   0.01173   0.21535   0.00000  Uiso   1.00
xx130  H     0.39306   0.10628  -0.19904   0.00000  Uiso   1.00
xx131  H     0.38891   0.11813   0.22733   0.00000  Uiso   1.00
xx132  H     0.63428   0.99369   0.67151   0.00000  Uiso   1.00
xx133  H     0.64877   0.97276   0.41282   0.00000  Uiso   1.00
xx134  H     0.26103   0.93913   0.42536   0.00000  Uiso   1.00
xx135  H     0.24512   0.95747   0.12190   0.00000  Uiso   1.00
xx136  H     0.25739   0.97902   0.54714   0.00000  Uiso   1.00
xx137  H     0.33604   0.96974   0.78238   0.00000  Uiso   1.00
xx138  H     0.28855   0.93658   0.87783   0.00000  Uiso   1.00
xx139  H     0.32081   0.94933   1.20143   0.00000  Uiso   1.00
xx140  H     0.27378   0.08672   0.15241   0.00000  Uiso   1.00
xx141  H     0.29497   0.11592  -0.20650   0.00000  Uiso   1.00
xx142  H     0.31903   0.12828   0.19105   0.00000  Uiso   1.00
xx143  H     0.33567   0.06610   0.56162   0.00000  Uiso   1.00
xx144  H     0.34455   0.11126   0.57134   0.00000  Uiso   1.00
xx145  H     0.29414   0.06497   0.54729   0.00000  Uiso   1.00
xx146  H     0.59535   0.17211   0.45717   0.00000  Uiso   1.00
xx147  H     0.35792   0.76374   0.55177   0.00000  Uiso   1.00
xx148  H     0.43941   0.73595   0.17752   0.00000  Uiso   1.00
xx149  H     0.48700   0.80069   0.18906   0.00000  Uiso   1.00
xx150  H     0.56464   0.52311   0.72571   0.00000  Uiso   1.00
xx151  H     0.41823   0.42691  -0.21870   0.00000  Uiso   1.00
xx152  H     0.40255   0.39979   0.19245   0.00000  Uiso   1.00
xx153  H     0.52336   0.43053   0.23073   0.00000  Uiso   1.00
xx154  H     0.54045   0.66636   0.61866   0.00000  Uiso   1.00
xx155  H     0.51628   0.60539   0.25107   0.00000  Uiso   1.00
xx156  H     0.59087   0.71701   1.03210   0.00000  Uiso   1.00
xx157  H     0.58063   0.72839   0.63258   0.00000  Uiso   1.00
xx158  H     0.33253   0.29910   0.44181   0.00000  Uiso   1.00
xx159  H     0.33758   0.27235   0.77251   0.00000  Uiso   1.00
xx160  H     0.73500   0.81689   0.26025   0.00000  Uiso   1.00
xx161  H     0.76278   0.79676   0.39102   0.00000  Uiso   1.00
xx162  H     0.75595   0.82304   0.68697   0.00000  Uiso   1.00
xx163  H     0.73022   0.73272   0.61732   0.00000  Uiso   1.00
xx164  H     0.70978   0.72427   1.04109   0.00000  Uiso   1.00
xx165  H     0.75344   0.76475   0.93479   0.00000  Uiso   1.00
xx166  H     0.58383   0.79005   0.70912   0.00000  Uiso   1.00
xx167  H     0.62625   0.83078   0.58199   0.00000  Uiso   1.00
xx168  H     0.61136   0.82543   1.00940   0.00000  Uiso   1.00
xx169  H     0.65713   0.81550   0.25607   0.00000  Uiso   1.00
xx170  H     0.64398   0.76730   0.26007   0.00000  Uiso   1.00
xx171  H     0.60524   0.77164   0.26379   0.00000  Uiso   1.00
xx172  H     0.45362   0.61250   0.72925   0.00000  Uiso   1.00
xx173  H     0.57837   0.35256   0.25462   0.00000  Uiso   1.00
xx174  H     0.67736   0.44666   0.70288   0.00000  Uiso   1.00
xx175  H     0.64531   0.48278   0.69233   0.00000  Uiso   1.00
xx176  C     0.68056   0.31977   0.58676   0.00000  Uiso   1.00
xx177  C     0.70860   0.36062   0.55494   0.00000  Uiso   1.00
xx178  C     0.69049   0.38368   0.52106   0.00000  Uiso   1.00
xx179  C     0.64998   0.37009   0.52597   0.00000  Uiso   1.00
xx180  C     0.62664   0.32963   0.56842   0.00000  Uiso   1.00
xx181  C     0.63887   0.30208   0.59616   0.00000  Uiso   1.00
xx182  C     0.95616   0.48434   0.51311   0.00000  Uiso   1.00
xx183  C     0.97378   0.46184   0.44166   0.00000  Uiso   1.00
xx184  C     0.01481   0.47589   0.43339   0.00000  Uiso   1.00
xx185  O     0.97204   0.54914   0.62747   0.00000  Uiso   1.00
xx186  C     0.99310   0.58889   0.73633   0.00000  Uiso   1.00
xx187  C     0.91433   0.46980   0.53857   0.00000  Uiso   1.00
xx188  N     0.88090   0.43358   0.49546   0.00000  Uiso   1.00
xx189  N     0.02849   0.39175   0.25201   0.00000  Uiso   1.00
xx190  N     0.06470   0.40655   0.17461   0.00000  Uiso   1.00
xx191  N     0.07504   0.38048   0.15833   0.00000  Uiso   1.00
xx192  C     0.04325   0.34672   0.23701   0.00000  Uiso   1.00
xx193  C     0.01368   0.35396   0.29802   0.00000  Uiso   1.00
xx194  C     0.11682   0.35522  -0.06179   0.00000  Uiso   1.00
xx195  C     0.11089   0.38700   0.05085   0.00000  Uiso   1.00
xx196  C     0.85985   0.57447   0.07052   0.00000  Uiso   1.00
xx197  C     0.81817   0.56151   0.24207   0.00000  Uiso   1.00
xx198  C     0.82696   0.60112   0.40412   0.00000  Uiso   1.00
xx199  C     0.84548   0.64258   0.24010   0.00000  Uiso   1.00
xx200  O     0.80421   0.59664   0.64020   0.00000  Uiso   1.00
xx201  C     0.18780   0.47979   0.60828   0.00000  Uiso   1.00
xx202  C     0.22712   0.45862   0.89319   0.00000  Uiso   1.00
xx203  C     0.13134   0.31227   0.61771   0.00000  Uiso   1.00
xx204  C     0.19175   0.35365   0.89431   0.00000  Uiso   1.00
xx205  C     0.18048   0.56401   0.36557   0.00000  Uiso   1.00
xx206  C     0.15966   0.58251   0.47689   0.00000  Uiso   1.00
xx207  C     0.77814   0.41783   0.64678   0.00000  Uiso   1.00
xx208  C     0.75123   0.37851   0.55153   0.00000  Uiso   1.00
xx209  C     0.77247   0.35985   0.45236   0.00000  Uiso   1.00
xx210  C     0.81386   0.37799   0.43890   0.00000  Uiso   1.00
xx211  C     0.50353   0.04722   0.62147   0.00000  Uiso   1.00
xx212  C     0.47441   0.00552   0.65912   0.00000  Uiso   1.00
xx213  C     0.46894   0.96657   0.51031   0.00000  Uiso   1.00
xx214  O     0.56076   0.06440   0.31972   0.00000  Uiso   1.00
xx215  C     0.54487   0.08328   0.12739   0.00000  Uiso   1.00
xx216  C     0.51930   0.10107   0.62703   0.00000  Uiso   1.00
xx217  N     0.51647   0.13502   0.64734   0.00000  Uiso   1.00
xx218  N     0.51680   0.93033   0.87483   0.00000  Uiso   1.00
xx219  N     0.53831   0.91137   0.86427   0.00000  Uiso   1.00
xx220  N     0.57741   0.93185   0.90922   0.00000  Uiso   1.00
xx221  C     0.57981   0.96176   1.06073   0.00000  Uiso   1.00
xx222  C     0.55215   0.96175   0.86441   0.00000  Uiso   1.00
xx223  C     0.62508   0.90679   0.95311   0.00000  Uiso   1.00
xx224  C     0.61412   0.93616   0.85241   0.00000  Uiso   1.00
xx225  C     0.35292   0.02378   0.29874   0.00000  Uiso   1.00
xx226  C     0.30887  -0.00198   0.15017   0.00000  Uiso   1.00
xx227  C     0.29911   0.02930   0.03189   0.00000  Uiso   1.00
xx228  C     0.32593   0.07512   0.97145   0.00000  Uiso   1.00
xx229  O     0.26539   0.02200   0.01869   0.00000  Uiso   1.00
xx230  C     0.73235   0.03259   0.66349   0.00000  Uiso   1.00
xx231  C     0.68692   0.03731   0.02547   0.00000  Uiso   1.00
xx232  C     0.69736   0.89718   0.96802   0.00000  Uiso   1.00
xx233  C     0.67581   0.91853   0.35086   0.00000  Uiso   1.00
xx234  C     0.41406   0.80969   0.46569   0.00000  Uiso   1.00
xx235  C     0.45386   0.82478   0.36612   0.00000  Uiso   1.00
xx236  C     0.61519   0.22998   0.52921   0.00000  Uiso   1.00
xx237  C     0.60912   0.26094   0.62220   0.00000  Uiso   1.00
xx238  C     0.56951   0.24579   0.73144   0.00000  Uiso   1.00
xx239  C     0.54005   0.20599   0.73116   0.00000  Uiso   1.00
xx240  C     0.48049   0.52288   0.55884   0.00000  Uiso   1.00
xx241  C     0.46266   0.48727   0.37267   0.00000  Uiso   1.00
xx242  C     0.48134   0.46555   0.31675   0.00000  Uiso   1.00
xx243  O     0.53765   0.56801   0.86678   0.00000  Uiso   1.00
xx244  C     0.57521   0.58977   1.02307   0.00000  Uiso   1.00
xx245  C     0.46166   0.54504   0.61589   0.00000  Uiso   1.00
xx246  N     0.42641   0.53870   0.49055   0.00000  Uiso   1.00
xx247  N     0.42510   0.37934   0.78687   0.00000  Uiso   1.00
xx248  N     0.39475   0.34895   0.67296   0.00000  Uiso   1.00
xx249  N     0.40376   0.32608   0.49972   0.00000  Uiso   1.00
xx250  C     0.44235   0.34295   0.49566   0.00000  Uiso   1.00
xx251  C     0.45576   0.37634   0.69108   0.00000  Uiso   1.00
xx252  C     0.39402   0.26726   0.21718   0.00000  Uiso   1.00
xx253  C     0.37773   0.29024   0.37541   0.00000  Uiso   1.00
xx254  C     0.66401   0.72598   0.52250   0.00000  Uiso   1.00
xx255  C     0.70003   0.76687   0.66525   0.00000  Uiso   1.00
xx256  C     0.68140   0.79186   0.77774   0.00000  Uiso   1.00
xx257  C     0.63606   0.77943   0.84806   0.00000  Uiso   1.00
xx258  O     0.70086   0.82704   0.78216   0.00000  Uiso   1.00
xx259  C     0.26058   0.19901   0.52374   0.00000  Uiso   1.00
xx260  C     0.27588   0.25250   0.15703   0.00000  Uiso   1.00
xx261  C     0.38581   0.19173   0.21773   0.00000  Uiso   1.00
xx262  C     0.36451   0.21418   0.82898   0.00000  Uiso   1.00
xx263  C     0.57411   0.40089   0.36373   0.00000  Uiso   1.00
xx264  C     0.59162   0.43947   0.48835   0.00000  Uiso   1.00
xx265  C     0.40641   0.62036   0.63754   0.00000  Uiso   1.00
xx266  C     0.36802   0.60613   0.50324   0.00000  Uiso   1.00
xx267  C     0.35030   0.56684   0.39237   0.00000  Uiso   1.00
xx268  C     0.36954   0.54511   0.39651   0.00000  Uiso   1.00
xx269  H     0.69124   0.30164   0.60901   0.00000  Uiso   1.00
xx270  H     0.70781   0.41243   0.48380   0.00000  Uiso   1.00
xx271  H     0.59809   0.31943   0.57946   0.00000  Uiso   1.00
xx272  H     0.95534   0.43343   0.39670   0.00000  Uiso   1.00
xx273  H     1.00343   0.58876   1.01457   0.00000  Uiso   1.00
xx274  H     1.01927   0.60580   0.57383   0.00000  Uiso   1.00
xx275  H     0.90757   0.49042   0.60224   0.00000  Uiso   1.00
xx276  H     0.04040   0.32011   0.24644   0.00000  Uiso   1.00
xx277  H    -0.01409   0.33409   0.35989   0.00000  Uiso   1.00
xx278  H     0.10049   0.33151   0.11602   0.00000  Uiso   1.00
xx279  H     0.09709   0.34747  -0.29795   0.00000  Uiso   1.00
xx280  H     0.86231   0.55390  -0.09692   0.00000  Uiso   1.00
xx281  H     0.87672   0.57494   0.31286   0.00000  Uiso   1.00
xx282  H     0.19719   0.50028   0.83979   0.00000  Uiso   1.00
xx283  H     0.20987   0.49569   0.40462   0.00000  Uiso   1.00
xx284  H     0.16350   0.48262   0.52443   0.00000  Uiso   1.00
xx285  H     0.24815   0.48593   0.76476   0.00000  Uiso   1.00
xx286  H     0.23306   0.46514   1.18311   0.00000  Uiso   1.00
xx287  H     0.24045   0.44147   0.83417   0.00000  Uiso   1.00
xx288  H     0.12741   0.29336   0.85363   0.00000  Uiso   1.00
xx289  H     0.10140   0.29842   0.53408   0.00000  Uiso   1.00
xx290  H     0.14504   0.30288   0.41810   0.00000  Uiso   1.00
xx291  H     0.21930   0.37928   0.84737   0.00000  Uiso   1.00
xx292  H     0.19275   0.34742   1.18203   0.00000  Uiso   1.00
xx293  H     0.19678   0.33211   0.75867   0.00000  Uiso   1.00
xx294  H     0.16484   0.53609   0.28377   0.00000  Uiso   1.00
xx295  H     0.76751   0.43473   0.73679   0.00000  Uiso   1.00
xx296  H     0.75734   0.33151   0.38064   0.00000  Uiso   1.00
xx297  H     0.82518   0.36127   0.36024   0.00000  Uiso   1.00
xx298  H     0.44733  -0.00416   0.72169   0.00000  Uiso   1.00
xx299  H     0.45436   0.96773   0.26111   0.00000  Uiso   1.00
xx300  H     0.56661   0.11374   0.15275   0.00000  Uiso   1.00
xx301  H     0.56456   0.08730  -0.09742   0.00000  Uiso   1.00
xx302  H     0.54690   0.11894   0.62924   0.00000  Uiso   1.00
xx303  H     0.60142   0.98523   1.18542   0.00000  Uiso   1.00
xx304  H     0.56245   0.98827   0.78465   0.00000  Uiso   1.00
xx305  H     0.60694   0.89372   1.19904   0.00000  Uiso   1.00
xx306  H     0.61109   0.88187   0.77267   0.00000  Uiso   1.00
xx307  H     0.36572   0.00631   0.32849   0.00000  Uiso   1.00
xx308  H     0.35123   0.02724   0.58718   0.00000  Uiso   1.00
xx309  H     0.73897   0.06087   0.57464   0.00000  Uiso   1.00
xx310  H     0.75488   0.04253   0.87810   0.00000  Uiso   1.00
xx311  H     0.74261   0.02098   0.45286   0.00000  Uiso   1.00
xx312  H     0.66396   0.03026   0.21762   0.00000  Uiso   1.00
xx313  H     0.71145   0.06342   0.12217   0.00000  Uiso   1.00
xx314  H     0.67919   0.05067  -0.20143   0.00000  Uiso   1.00
xx315  H     0.72622   0.91328   0.84759   0.00000  Uiso   1.00
xx316  H     0.70503   0.88408   1.20650   0.00000  Uiso   1.00
xx317  H     0.68097   0.87172   0.80895   0.00000  Uiso   1.00
xx318  H     0.66433   0.93390   0.43838   0.00000  Uiso   1.00
xx319  H     0.65545   0.88874   0.42866   0.00000  Uiso   1.00
xx320  H     0.70586   0.93503   0.45271   0.00000  Uiso   1.00
xx321  H     0.40465   0.82789   0.54283   0.00000  Uiso   1.00
xx322  H     0.64208   0.23626   0.44823   0.00000  Uiso   1.00
xx323  H     0.56059   0.26405   0.82248   0.00000  Uiso   1.00
xx324  H     0.51300   0.19931   0.81094   0.00000  Uiso   1.00
xx325  H     0.43536   0.47689   0.27429   0.00000  Uiso   1.00
xx326  H     0.58177   0.57309   1.21870   0.00000  Uiso   1.00
xx327  H     0.59745   0.60021   0.80755   0.00000  Uiso   1.00
xx328  H     0.47664   0.56947   0.76927   0.00000  Uiso   1.00
xx329  H     0.45955   0.33364   0.38134   0.00000  Uiso   1.00
xx330  H     0.48372   0.39461   0.74893   0.00000  Uiso   1.00
xx331  H     0.40913   0.28299  -0.03210   0.00000  Uiso   1.00
xx332  H     0.41937   0.27161   0.36742   0.00000  Uiso   1.00
xx333  H     0.66747   0.70090   0.55819   0.00000  Uiso   1.00
xx334  H     0.66242   0.72765   0.22749   0.00000  Uiso   1.00
xx335  H     0.26500   0.18311   0.73975   0.00000  Uiso   1.00
xx336  H     0.23722   0.20324   0.60898   0.00000  Uiso   1.00
xx337  H     0.24405   0.17696   0.31303   0.00000  Uiso   1.00
xx338  H     0.26978   0.26728   0.38268   0.00000  Uiso   1.00
xx339  H     0.29022   0.27573  -0.04109   0.00000  Uiso   1.00
xx340  H     0.24656   0.23525   0.06521   0.00000  Uiso   1.00
xx341  H     0.41617   0.20995   0.29088   0.00000  Uiso   1.00
xx342  H     0.37375   0.16922   0.41801   0.00000  Uiso   1.00
xx343  H     0.38864   0.17457  -0.00940   0.00000  Uiso   1.00
xx344  H     0.34287   0.18450   0.74393   0.00000  Uiso   1.00
xx345  H     0.35602   0.23270   0.73993   0.00000  Uiso   1.00
xx346  H     0.39476   0.22836   0.73621   0.00000  Uiso   1.00
xx347  H     0.54638   0.38750   0.27075   0.00000  Uiso   1.00
xx348  H     0.42163   0.64744   0.74538   0.00000  Uiso   1.00
xx349  H     0.32264   0.55334   0.29712   0.00000  Uiso   1.00
xx350  H     0.35469   0.51722   0.30767   0.00000  Uiso   1.00
loop_
_geom_bond_atom_site_label_1
_geom_bond_atom_site_label_2
_geom_bond_distance
_geom_bond_site_symmetry_2
_ccdc_geom_bond_type
xx1    xx94    1.020   .     S
xx1    xx6     1.462   .     S
xx1    xx2     1.463   .     D
xx2    xx33    1.495   .     S
xx2    xx3     1.446   .     S
xx3    xx4     1.440   .     D
xx3    xx95    1.019   .     S
xx4    xx5     1.426   .     S
xx4    xx266   1.467   .     S
xx5    xx6     1.426   .     D
xx5    xx96    1.011   .     S
xx6    xx62    1.486   .     S
xx7    xx12    1.486   .     S
xx7    xx184   1.449   .     D
xx7    xx8     1.426   .     S
xx8    xx97    1.019   .     S
xx8    xx9     1.456   1_455 D
xx9    xx185   1.371   .     S
xx9    xx182   1.449   .     S
xx9    xx8     1.456   1_655 D
xx10   xx11    1.440   .     S
xx10   xx184   1.371   .     S
xx11   xx99    1.087   .     S
xx11   xx189   1.431   .     S
xx11   xx98    1.060   .     S
xx12   xx100   1.021   .     S
xx12   xx13    1.416   .     D
xx13   xx206   1.430   .     S
xx14   xx186   1.431   .     S
xx14   xx15    1.300   .     D
xx14   xx18    1.339   .     S
xx15   xx16    1.311   .     S
xx16   xx17    1.352   .     S
xx16   xx20    1.386   .     D
xx17   xx18    1.378   .     D
xx17   xx101   1.021   .     S
xx18   xx102   1.022   .     S
xx19   xx104   1.079   .     S
xx19   xx103   1.051   .     S
xx19   xx20    1.470   .     S
xx19   xx199   1.604   1_556 S
xx20   xx196   1.467   1_556 S
xx21   xx106   1.081   .     S
xx21   xx22    1.606   .     S
xx21   xx105   1.060   .     S
xx21   xx195   1.467   1_556 S
xx22   xx202   1.654   .     S
xx22   xx201   1.644   .     S
xx22   xx23    1.559   .     S
xx23   xx24    1.560   .     S
xx23   xx25    1.179   .     D
xx24   xx203   1.653   .     S
xx24   xx204   1.651   .     S
xx24   xx194   1.604   1_556 S
xx26   xx109   1.082   .     S
xx26   xx197   1.644   .     S
xx26   xx107   1.081   .     S
xx26   xx108   1.068   .     S
xx27   xx110   1.095   .     S
xx27   xx112   1.087   .     S
xx27   xx197   1.654   .     S
xx27   xx111   1.046   .     S
xx28   xx113   1.080   .     S
xx28   xx114   1.087   .     S
xx28   xx199   1.653   .     S
xx28   xx115   1.070   .     S
xx29   xx199   1.651   .     S
xx29   xx116   1.087   .     S
xx29   xx118   1.094   .     S
xx29   xx117   1.044   .     S
xx30   xx207   1.449   .     S
xx30   xx31    1.428   .     D
xx30   xx119   1.018   .     S
xx31   xx188   1.430   .     S
xx31   xx210   1.436   .     S
xx32   xx120   1.019   .     S
xx32   xx205   1.449   .     S
xx32   xx33    1.443   .     D
xx33   xx34    1.437   .     S
xx34   xx35    1.450   .     D
xx34   xx121   1.022   .     S
xx35   xx122   1.023   .     S
xx35   xx206   1.436   .     S
xx36   xx37    1.500   .     D
xx36   xx213   1.540   .     S
xx37   xx123   0.983   .     S
xx37   xx38    1.562   1_565 S
xx38   xx214   1.361   .     S
xx38   xx211   1.540   .     S
xx38   xx124   1.066   .     S
xx38   xx37    1.562   1_545 S
xx39   xx40    1.389   .     D
xx39   xx213   1.361   .     S
xx40   xx125   1.099   .     S
xx40   xx126   1.071   .     S
xx41   xx127   0.978   .     S
xx41   xx42    1.431   .     T
xx42   xx235   1.456   .     S
xx43   xx44    1.414   .     D
xx43   xx47    1.354   .     S
xx44   xx45    1.375   .     S
xx45   xx49    1.415   .     D
xx45   xx46    1.276   .     S
xx46   xx128   1.010   .     S
xx46   xx47    1.310   .     D
xx47   xx129   0.974   .     S
xx48   xx49    1.498   .     S
xx48   xx131   1.077   .     S
xx48   xx130   1.081   .     S
xx48   xx228   1.750   1_554 S
xx49   xx225   1.584   .     S
xx50   xx132   1.066   .     S
xx50   xx51    1.631   .     S
xx50   xx224   1.584   .     S
xx50   xx133   1.026   .     S
xx51   xx52    1.553   .     S
xx51   xx230   1.631   1_565 S
xx51   xx231   1.636   1_566 S
xx52   xx54    1.240   .     S
xx52   xx53    1.621   1_556 D
xx53   xx233   1.167   .     S
xx53   xx52    1.621   1_554 D
xx53   xx223   1.750   1_554 S
xx55   xx134   1.079   .     S
xx55   xx135   1.089   .     S
xx55   xx136   1.062   .     S
xx55   xx226   1.631   1_565 S
xx56   xx138   1.077   .     S
xx56   xx137   1.062   .     S
xx56   xx139   1.089   .     S
xx56   xx226   1.636   1_566 S
xx57   xx142   1.059   .     S
xx57   xx140   1.094   .     S
xx57   xx141   1.111   .     S
xx58   xx143   0.989   .     S
xx58   xx228   1.167   .     S
xx58   xx145   1.110   .     S
xx58   xx144   1.098   .     S
xx59   xx60    1.446   .     D
xx59   xx236   1.436   .     S
xx59   xx146   1.017   .     S
xx60   xx239   1.421   .     S
xx60   xx217   1.456   .     S
xx61   xx234   1.436   .     S
xx61   xx62    1.424   .     D
xx61   xx147   1.022   .     S
xx62   xx63    1.447   .     S
xx63   xx148   1.019   .     S
xx63   xx64    1.442   .     D
xx64   xx149   1.023   .     S
xx64   xx235   1.421   .     S
xx65   xx242   1.434   .     S
xx65   xx70    1.447   .     S
xx65   xx66    1.404   .     D
xx66   xx150   1.022   .     S
xx66   xx67    1.425   .     S
xx67   xx240   1.434   .     D
xx67   xx243   1.339   .     S
xx68   xx242   1.339   .     S
xx68   xx69    1.426   .     S
xx69   xx151   1.081   .     S
xx69   xx152   1.083   .     S
xx69   xx247   1.417   1_554 S
xx70   xx153   1.014   .     S
xx70   xx71    1.384   .     D
xx71   xx264   1.396   .     S
xx72   xx73    1.288   .     D
xx72   xx76    1.343   .     S
xx72   xx244   1.417   1_554 S
xx73   xx74    1.298   .     S
xx74   xx75    1.351   .     S
xx74   xx78    1.365   .     D
xx75   xx76    1.358   .     D
xx75   xx154   1.021   .     S
xx76   xx155   1.012   .     S
xx77   xx157   1.083   .     S
xx77   xx257   1.668   .     S
xx77   xx78    1.485   .     S
xx77   xx156   1.072   .     S
xx78   xx254   1.512   .     S
xx79   xx158   1.095   .     S
xx79   xx253   1.512   .     S
xx79   xx80    1.638   .     S
xx79   xx159   1.039   .     S
xx80   xx81    1.578   .     S
xx80   xx260   1.643   .     S
xx80   xx259   1.633   .     S
xx81   xx82    1.654   .     D
xx81   xx83    1.231   .     S
xx82   xx252   1.668   .     S
xx82   xx262   1.162   1_554 S
xx84   xx161   1.080   .     S
xx84   xx160   1.062   .     S
xx84   xx162   1.089   .     S
xx84   xx255   1.633   .     S
xx85   xx163   1.089   .     S
xx85   xx255   1.643   .     S
xx85   xx165   1.078   .     S
xx85   xx164   1.073   .     S
xx86   xx166   1.097   .     S
xx86   xx167   1.054   .     S
xx86   xx168   1.097   .     S
xx87   xx170   1.014   .     S
xx87   xx171   1.106   .     S
xx87   xx169   1.113   .     S
xx87   xx257   1.162   1_554 S
xx88   xx89    1.418   .     S
xx88   xx265   1.422   .     D
xx88   xx172   1.022   .     S
xx89   xx268   1.424   .     D
xx89   xx246   1.396   .     S
xx90   xx91    1.434   .     S
xx90   xx263   1.422   .     D
xx90   xx173   1.020   .     S
xx91   xx92    1.428   .     D
xx91   xx179   1.467   .     S
xx92   xx93    1.431   .     S
xx92   xx174   1.022   .     S
xx93   xx175   1.023   .     S
xx93   xx264   1.424   .     D
xx176  xx177   1.463   .     D
xx176  xx181   1.462   .     S
xx176  xx269   1.020   .     S
xx177  xx208   1.495   .     S
xx177  xx178   1.446   .     S
xx178  xx179   1.440   .     D
xx178  xx270   1.019   .     S
xx179  xx180   1.426   .     S
xx180  xx271   1.011   .     S
xx180  xx181   1.426   .     D
xx181  xx237   1.486   .     S
xx182  xx187   1.486   .     S
xx182  xx183   1.426   .     D
xx183  xx272   1.019   .     S
xx183  xx184   1.456   1_655 S
xx184  xx183   1.456   1_455 S
xx185  xx186   1.440   .     S
xx186  xx274   1.087   .     S
xx186  xx273   1.060   .     S
xx187  xx275   1.021   .     S
xx187  xx188   1.416   .     D
xx189  xx190   1.300   .     D
xx189  xx193   1.339   .     S
xx190  xx191   1.311   .     S
xx191  xx195   1.386   .     D
xx191  xx192   1.352   .     S
xx192  xx276   1.021   .     S
xx192  xx193   1.378   .     D
xx193  xx277   1.022   .     S
xx194  xx279   1.079   .     S
xx194  xx195   1.470   .     S
xx194  xx278   1.051   .     S
xx194  xx24    1.604   1_554 S
xx195  xx21    1.467   1_554 S
xx196  xx281   1.081   .     S
xx196  xx197   1.606   .     S
xx196  xx280   1.060   .     S
xx196  xx20    1.467   1_554 S
xx197  xx198   1.559   .     S
xx198  xx199   1.560   .     S
xx198  xx200   1.179   .     D
xx199  xx19    1.604   1_554 S
xx201  xx282   1.081   .     S
xx201  xx284   1.082   .     S
xx201  xx283   1.068   .     S
xx202  xx285   1.095   .     S
xx202  xx287   1.087   .     S
xx202  xx286   1.046   .     S
xx203  xx288   1.080   .     S
xx203  xx289   1.087   .     S
xx203  xx290   1.070   .     S
xx204  xx293   1.094   .     S
xx204  xx291   1.087   .     S
xx204  xx292   1.044   .     S
xx205  xx206   1.428   .     D
xx205  xx294   1.018   .     S
xx207  xx295   1.019   .     S
xx207  xx208   1.443   .     D
xx208  xx209   1.437   .     S
xx209  xx210   1.450   .     D
xx209  xx296   1.022   .     S
xx210  xx297   1.023   .     S
xx211  xx212   1.500   .     D
xx212  xx298   0.983   .     S
xx212  xx213   1.562   1_545 S
xx213  xx299   1.066   .     S
xx213  xx212   1.562   1_565 S
xx214  xx215   1.389   .     D
xx215  xx300   1.099   .     S
xx215  xx301   1.071   .     S
xx216  xx217   1.431   .     T
xx216  xx302   0.978   .     S
xx218  xx222   1.354   .     S
xx218  xx219   1.414   .     D
xx219  xx220   1.375   .     S
xx220  xx224   1.415   .     D
xx220  xx221   1.276   .     S
xx221  xx303   1.010   .     S
xx221  xx222   1.310   .     D
xx222  xx304   0.974   .     S
xx223  xx306   1.077   .     S
xx223  xx224   1.498   .     S
xx223  xx305   1.081   .     S
xx223  xx53    1.750   1_556 S
xx225  xx307   1.066   .     S
xx225  xx226   1.631   .     S
xx225  xx308   1.026   .     S
xx226  xx227   1.553   .     S
xx226  xx55    1.631   1_545 S
xx226  xx56    1.636   1_544 S
xx227  xx229   1.240   .     S
xx227  xx228   1.621   1_554 D
xx228  xx48    1.750   1_556 S
xx228  xx227   1.621   1_556 D
xx230  xx310   1.089   .     S
xx230  xx309   1.079   .     S
xx230  xx311   1.062   .     S
xx230  xx51    1.631   1_545 S
xx231  xx312   1.062   .     S
xx231  xx313   1.077   .     S
xx231  xx314   1.089   .     S
xx231  xx51    1.636   1_544 S
xx232  xx317   1.059   .     S
xx232  xx315   1.094   .     S
xx232  xx316   1.111   .     S
xx233  xx318   0.989   .     S
xx233  xx320   1.110   .     S
xx233  xx319   1.098   .     S
xx234  xx235   1.446   .     D
xx234  xx321   1.017   .     S
xx236  xx237   1.424   .     D
xx236  xx322   1.022   .     S
xx237  xx238   1.447   .     S
xx238  xx239   1.442   .     D
xx238  xx323   1.019   .     S
xx239  xx324   1.023   .     S
xx240  xx245   1.447   .     S
xx240  xx241   1.404   .     S
xx241  xx325   1.022   .     S
xx241  xx242   1.425   .     D
xx243  xx244   1.426   .     S
xx244  xx326   1.081   .     S
xx244  xx327   1.083   .     S
xx244  xx72    1.417   1_556 S
xx245  xx328   1.014   .     S
xx245  xx246   1.384   .     D
xx247  xx251   1.343   .     S
xx247  xx248   1.288   .     D
xx247  xx69    1.417   1_556 S
xx248  xx249   1.298   .     S
xx249  xx250   1.351   .     S
xx249  xx253   1.365   .     D
xx250  xx329   1.021   .     S
xx250  xx251   1.358   .     D
xx251  xx330   1.012   .     S
xx252  xx253   1.485   .     S
xx252  xx332   1.083   .     S
xx252  xx331   1.072   .     S
xx254  xx255   1.638   .     S
xx254  xx333   1.095   .     S
xx254  xx334   1.039   .     S
xx255  xx256   1.578   .     S
xx256  xx257   1.654   .     D
xx256  xx258   1.231   .     S
xx257  xx87    1.162   1_556 S
xx259  xx335   1.062   .     S
xx259  xx336   1.080   .     S
xx259  xx337   1.089   .     S
xx260  xx340   1.078   .     S
xx260  xx338   1.089   .     S
xx260  xx339   1.073   .     S
xx261  xx342   1.054   .     S
xx261  xx341   1.097   .     S
xx261  xx343   1.097   .     S
xx262  xx345   1.014   .     S
xx262  xx346   1.106   .     S
xx262  xx344   1.113   .     S
xx262  xx82    1.162   1_556 S
xx263  xx347   1.022   .     S
xx263  xx264   1.418   .     S
xx265  xx348   1.020   .     S
xx265  xx266   1.434   .     S
xx266  xx267   1.428   .     D
xx267  xx349   1.022   .     S
xx267  xx268   1.431   .     S
xx268  xx350   1.023   .     S
