data_477
_audit_creation_date              2023-09-08
_audit_creation_method            'Materials Studio'
_symmetry_space_group_name_H-M    'P1'
_symmetry_Int_Tables_number       1
_symmetry_cell_setting            triclinic
loop_
_symmetry_equiv_pos_as_xyz
  x,y,z
_cell_length_a                    30.4969
_cell_length_b                    30.4969
_cell_length_c                    4.0329
_cell_angle_alpha                 90.0000
_cell_angle_beta                  90.0000
_cell_angle_gamma                 120.0000
loop_
_atom_site_label
_atom_site_type_symbol
_atom_site_fract_x
_atom_site_fract_y
_atom_site_fract_z
_atom_site_U_iso_or_equiv
_atom_site_adp_type
_atom_site_occupancy
C1     C     0.89468   0.42465   0.50000   0.00000  Uiso   1.00
C2     C     0.57535   0.47003   0.50000   0.00000  Uiso   1.00
C3     C     0.52997   0.10532   0.50000   0.00000  Uiso   1.00
C4     C     0.10532   0.57535   0.50000   0.00000  Uiso   1.00
C5     C     0.42465   0.52997   0.50000   0.00000  Uiso   1.00
C6     C     0.47003   0.89468   0.50000   0.00000  Uiso   1.00
C7     C     0.94663   0.46292   0.50000   0.00000  Uiso   1.00
C8     C     0.53708   0.48371   0.50000   0.00000  Uiso   1.00
C9     C     0.51629   0.05337   0.50000   0.00000  Uiso   1.00
C10    C     0.05337   0.53708   0.50000   0.00000  Uiso   1.00
C11    C     0.46292   0.51629   0.50000   0.00000  Uiso   1.00
C12    C     0.48371   0.94663   0.50000   0.00000  Uiso   1.00
C13    C     0.44763   0.96312   0.50000   0.00000  Uiso   1.00
C14    C     0.03688   0.48451   0.50000   0.00000  Uiso   1.00
C15    C     0.51549   0.55237   0.50000   0.00000  Uiso   1.00
C16    C     0.55237   0.03688   0.50000   0.00000  Uiso   1.00
C17    C     0.96312   0.51549   0.50000   0.00000  Uiso   1.00
C18    C     0.48451   0.44763   0.50000   0.00000  Uiso   1.00
O19    O     0.88317   0.37893   0.50000   0.00000  Uiso   1.00
O20    O     0.62107   0.50424   0.50000   0.00000  Uiso   1.00
O21    O     0.49576   0.11684   0.50000   0.00000  Uiso   1.00
O22    O     0.11684   0.62107   0.50000   0.00000  Uiso   1.00
O23    O     0.37893   0.49576   0.50000   0.00000  Uiso   1.00
O24    O     0.50424   0.88317   0.50000   0.00000  Uiso   1.00
N25    N     0.59171   0.19186   0.50000   0.00000  Uiso   1.00
N26    N     0.80814   0.39985   0.50000   0.00000  Uiso   1.00
N27    N     0.60015   0.40829   0.50000   0.00000  Uiso   1.00
N28    N     0.40829   0.80814   0.50000   0.00000  Uiso   1.00
N29    N     0.19186   0.60015   0.50000   0.00000  Uiso   1.00
N30    N     0.39985   0.59171   0.50000   0.00000  Uiso   1.00
N31    N     0.85588   0.43409   0.50000   0.00000  Uiso   1.00
N32    N     0.56592   0.42179   0.50000   0.00000  Uiso   1.00
N33    N     0.57821   0.14412   0.50000   0.00000  Uiso   1.00
N34    N     0.14412   0.56592   0.50000   0.00000  Uiso   1.00
N35    N     0.43409   0.57821   0.50000   0.00000  Uiso   1.00
N36    N     0.42179   0.85588   0.50000   0.00000  Uiso   1.00
C37    C     0.98464   0.44892   0.50000   0.00000  Uiso   1.00
C38    C     0.55108   0.53572   0.50000   0.00000  Uiso   1.00
C39    C     0.46428   0.01537   0.50000   0.00000  Uiso   1.00
C40    C     0.01537   0.55108   0.50000   0.00000  Uiso   1.00
C41    C     0.44892   0.46428   0.50000   0.00000  Uiso   1.00
C42    C     0.53572   0.98464   0.50000   0.00000  Uiso   1.00
H43    H     0.97419   0.41149   0.50000   0.00000  Uiso   1.00
H44    H     0.58851   0.56270   0.50000   0.00000  Uiso   1.00
H45    H     0.43730   0.02581   0.50000   0.00000  Uiso   1.00
H46    H     0.02581   0.58851   0.50000   0.00000  Uiso   1.00
H47    H     0.41149   0.43730   0.50000   0.00000  Uiso   1.00
H48    H     0.56270   0.97419   0.50000   0.00000  Uiso   1.00
C49    C     0.77006   0.41022   0.50000   0.00000  Uiso   1.00
C50    C     0.58978   0.35984   0.50000   0.00000  Uiso   1.00
C51    C     0.64016   0.22995   0.50000   0.00000  Uiso   1.00
C52    C     0.22995   0.58978   0.50000   0.00000  Uiso   1.00
C53    C     0.41022   0.64016   0.50000   0.00000  Uiso   1.00
C54    C     0.35984   0.77006   0.50000   0.00000  Uiso   1.00
C55    C     0.28122   0.62832   0.50000   0.00000  Uiso   1.00
C56    C     0.37168   0.65290   0.50000   0.00000  Uiso   1.00
C57    C     0.34710   0.71878   0.50000   0.00000  Uiso   1.00
C58    C     0.71878   0.37168   0.50000   0.00000  Uiso   1.00
C59    C     0.62832   0.34710   0.50000   0.00000  Uiso   1.00
C60    C     0.65290   0.28122   0.50000   0.00000  Uiso   1.00
C61    C     0.31978   0.61546   0.50000   0.00000  Uiso   1.00
C62    C     0.38454   0.70432   0.50000   0.00000  Uiso   1.00
C63    C     0.29568   0.68022   0.50000   0.00000  Uiso   1.00
C64    C     0.68022   0.38454   0.50000   0.00000  Uiso   1.00
C65    C     0.61546   0.29568   0.50000   0.00000  Uiso   1.00
C66    C     0.70432   0.31978   0.50000   0.00000  Uiso   1.00
H67    H     0.26808   0.69006   0.50000   0.00000  Uiso   1.00
H68    H     0.30994   0.57801   0.50000   0.00000  Uiso   1.00
H69    H     0.42199   0.73192   0.50000   0.00000  Uiso   1.00
H70    H     0.73192   0.30994   0.50000   0.00000  Uiso   1.00
H71    H     0.69006   0.42199   0.50000   0.00000  Uiso   1.00
H72    H     0.57801   0.26808   0.50000   0.00000  Uiso   1.00
H73    H     0.39684   0.35310   0.71845   0.00000  Uiso   1.00
H74    H     0.64690   0.04374   0.71845   0.00000  Uiso   1.00
H75    H     0.95626   0.60316   0.71845   0.00000  Uiso   1.00
H76    H     0.60316   0.64690   0.71845   0.00000  Uiso   1.00
H77    H     0.35310   0.95626   0.71845   0.00000  Uiso   1.00
H78    H     0.04374   0.39684   0.71845   0.00000  Uiso   1.00
H79    H     0.60316   0.64690   0.28154   0.00000  Uiso   1.00
H80    H     0.35310   0.95626   0.28154   0.00000  Uiso   1.00
H81    H     0.04374   0.39684   0.28154   0.00000  Uiso   1.00
H82    H     0.39684   0.35310   0.28154   0.00000  Uiso   1.00
H83    H     0.64690   0.04374   0.28154   0.00000  Uiso   1.00
H84    H     0.95626   0.60316   0.28154   0.00000  Uiso   1.00
H85    H     0.77910   0.44740   0.50000   0.00000  Uiso   1.00
H86    H     0.55260   0.33170   0.50000   0.00000  Uiso   1.00
H87    H     0.66830   0.22090   0.50000   0.00000  Uiso   1.00
H88    H     0.22090   0.55260   0.50000   0.00000  Uiso   1.00
H89    H     0.44740   0.66830   0.50000   0.00000  Uiso   1.00
H90    H     0.33170   0.77910   0.50000   0.00000  Uiso   1.00
H91    H     0.86567   0.46938   0.50000   0.00000  Uiso   1.00
H92    H     0.53062   0.39629   0.50000   0.00000  Uiso   1.00
H93    H     0.60371   0.13433   0.50000   0.00000  Uiso   1.00
H94    H     0.13433   0.53062   0.50000   0.00000  Uiso   1.00
H95    H     0.46938   0.60371   0.50000   0.00000  Uiso   1.00
H96    H     0.39629   0.86567   0.50000   0.00000  Uiso   1.00
O97    O     0.46789   0.39685   0.50000   0.00000  Uiso   1.00
O98    O     0.60315   0.07104   0.50000   0.00000  Uiso   1.00
O99    O     0.92896   0.53211   0.50000   0.00000  Uiso   1.00
O100   O     0.53211   0.60315   0.50000   0.00000  Uiso   1.00
O101   O     0.39685   0.92896   0.50000   0.00000  Uiso   1.00
O102   O     0.07104   0.46789   0.50000   0.00000  Uiso   1.00
C103   C     0.41785   0.35337   0.50000   0.00000  Uiso   1.00
C104   C     0.64663   0.06447   0.50000   0.00000  Uiso   1.00
C105   C     0.93553   0.58216   0.50000   0.00000  Uiso   1.00
C106   C     0.58215   0.64663   0.50000   0.00000  Uiso   1.00
C107   C     0.35337   0.93553   0.50000   0.00000  Uiso   1.00
C108   C     0.06447   0.41785   0.50000   0.00000  Uiso   1.00
H109   H     0.42058   0.31903   0.50000   0.00000  Uiso   1.00
H110   H     0.68097   0.10155   0.50000   0.00000  Uiso   1.00
H111   H     0.89845   0.57942   0.50000   0.00000  Uiso   1.00
H112   H     0.57942   0.68097   0.50000   0.00000  Uiso   1.00
H113   H     0.31903   0.89845   0.50000   0.00000  Uiso   1.00
H114   H     0.10155   0.42058   0.50000   0.00000  Uiso   1.00
loop_
_geom_bond_atom_site_label_1
_geom_bond_atom_site_label_2
_geom_bond_distance
_geom_bond_site_symmetry_2
_ccdc_geom_bond_type
C1     C7      1.422   .     S
C1     O19     1.256   .     D
C1     N31     1.350   .     S
C2     C8      1.422   .     S
C2     O20     1.256   .     D
C2     N32     1.350   .     S
C3     C9      1.422   .     S
C3     O21     1.256   .     D
C3     N33     1.350   .     S
C4     C10     1.422   .     S
C4     O22     1.256   .     D
C4     N34     1.350   .     S
C5     C11     1.422   .     S
C5     O23     1.256   .     D
C5     N35     1.350   .     S
C6     C12     1.422   .     S
C6     O24     1.256   .     D
C6     N36     1.350   .     S
C7     C17     1.420   .     S
C7     C37     1.422   .     D
C8     C18     1.420   .     D
C8     C38     1.422   .     S
C9     C16     1.420   .     D
C9     C39     1.422   .     S
C10    C14     1.420   .     D
C10    C40     1.422   .     S
C11    C15     1.420   .     S
C11    C41     1.422   .     D
C12    C13     1.420   .     S
C12    C42     1.422   .     D
C13    C39     1.410   1_565 D
C13    O101    1.368   .     S
C14    C37     1.410   1_455 S
C14    O102    1.368   .     S
C15    C38     1.410   .     D
C15    O100    1.368   .     S
C16    C42     1.410   1_545 S
C16    O98     1.368   .     S
C17    C40     1.410   1_655 D
C17    O99     1.368   .     S
C18    C41     1.410   .     S
C18    O97     1.368   .     S
N25    N33     1.300   .     S
N25    C51     1.348   .     D
N26    N31     1.300   .     S
N26    C49     1.348   .     D
N27    N32     1.300   .     S
N27    C50     1.348   .     D
N28    N36     1.300   .     S
N28    C54     1.348   .     D
N29    N34     1.300   .     S
N29    C52     1.348   .     D
N30    N35     1.300   .     S
N30    C53     1.348   .     D
N31    H91     0.963   .     S
N32    H92     0.963   .     S
N33    H93     0.963   .     S
N34    H94     0.963   .     S
N35    H95     0.963   .     S
N36    H96     0.963   .     S
C37    C14     1.410   1_655 S
C37    H43     1.020   .     S
C38    H44     1.020   .     S
C39    C13     1.410   1_545 D
C39    H45     1.020   .     S
C40    C17     1.410   1_455 D
C40    H46     1.020   .     S
C41    H47     1.020   .     S
C42    C16     1.410   1_565 S
C42    H48     1.020   .     S
C49    C58     1.410   .     S
C49    H85     1.024   .     S
C50    C59     1.410   .     S
C50    H86     1.024   .     S
C51    C60     1.410   .     S
C51    H87     1.024   .     S
C52    C55     1.410   .     S
C52    H88     1.024   .     S
C53    C56     1.410   .     S
C53    H89     1.024   .     S
C54    C57     1.410   .     S
C54    H90     1.024   .     S
C55    C61     1.414   .     S
C55    C63     1.415   .     D
C56    C61     1.415   .     D
C56    C62     1.414   .     S
C57    C62     1.415   .     D
C57    C63     1.414   .     S
C58    C64     1.414   .     D
C58    C66     1.415   .     S
C59    C64     1.415   .     S
C59    C65     1.414   .     D
C60    C65     1.415   .     S
C60    C66     1.414   .     D
C61    H68     1.025   .     S
C62    H69     1.025   .     S
C63    H67     1.025   .     S
C64    H71     1.025   .     S
C65    H72     1.025   .     S
C66    H70     1.025   .     S
H73    C103    1.087   .     S
H74    C104    1.087   .     S
H75    C105    1.087   .     S
H76    C106    1.087   .     S
H77    C107    1.087   .     S
H78    C108    1.087   .     S
H79    C106    1.087   .     S
H80    C107    1.087   .     S
H81    C108    1.087   .     S
H82    C103    1.087   .     S
H83    C104    1.087   .     S
H84    C105    1.087   .     S
O97    C103    1.437   .     S
O98    C104    1.437   .     S
O99    C105    1.437   .     S
O100   C106    1.437   .     S
O101   C107    1.437   .     S
O102   C108    1.437   .     S
C103   H109    1.091   .     S
C104   H110    1.091   .     S
C105   H111    1.091   .     S
C106   H112    1.091   .     S
C107   H113    1.091   .     S
C108   H114    1.091   .     S
