data_478
_audit_creation_date              2023-09-08
_audit_creation_method            'Materials Studio'
_symmetry_space_group_name_H-M    'P1'
_symmetry_Int_Tables_number       1
_symmetry_cell_setting            triclinic
loop_
_symmetry_equiv_pos_as_xyz
  x,y,z
_cell_length_a                    30.1486
_cell_length_b                    30.1486
_cell_length_c                    3.5373
_cell_angle_alpha                 90.0000
_cell_angle_beta                  90.0000
_cell_angle_gamma                 120.0000
loop_
_atom_site_label
_atom_site_type_symbol
_atom_site_fract_x
_atom_site_fract_y
_atom_site_fract_z
_atom_site_U_iso_or_equiv
_atom_site_adp_type
_atom_site_occupancy
C1     C     0.70406   0.31871   0.49999   0.00000  Uiso   1.00
C2     C     0.71963   0.37143   0.49999   0.00000  Uiso   1.00
H3     H     0.73148   0.30813   0.49999   0.00000  Uiso   1.00
C4     C     0.34820   0.71963   0.49999   0.00000  Uiso   1.00
C5     C     0.38535   0.70406   0.49999   0.00000  Uiso   1.00
H6     H     0.42335   0.73148   0.49999   0.00000  Uiso   1.00
C7     C     0.68129   0.38535   0.49999   0.00000  Uiso   1.00
C8     C     0.62857   0.34820   0.49999   0.00000  Uiso   1.00
H9     H     0.69187   0.42335   0.49999   0.00000  Uiso   1.00
C10    C     0.28037   0.62857   0.49999   0.00000  Uiso   1.00
C11    C     0.29594   0.68129   0.49999   0.00000  Uiso   1.00
H12    H     0.26852   0.69187   0.49999   0.00000  Uiso   1.00
C13    C     0.61465   0.29594   0.49999   0.00000  Uiso   1.00
C14    C     0.65180   0.28037   0.49999   0.00000  Uiso   1.00
H15    H     0.57665   0.26852   0.49999   0.00000  Uiso   1.00
C16    C     0.37143   0.65180   0.49999   0.00000  Uiso   1.00
C17    C     0.31871   0.61465   0.49999   0.00000  Uiso   1.00
H18    H     0.30813   0.57665   0.49999   0.00000  Uiso   1.00
C19    C     0.77177   0.40973   0.49999   0.00000  Uiso   1.00
H20    H     0.78113   0.44734   0.49999   0.00000  Uiso   1.00
C21    C     0.59027   0.36204   0.49999   0.00000  Uiso   1.00
H22    H     0.55266   0.33380   0.49999   0.00000  Uiso   1.00
C23    C     0.63796   0.22823   0.49999   0.00000  Uiso   1.00
H24    H     0.66620   0.21886   0.49999   0.00000  Uiso   1.00
C25    C     0.22823   0.59027   0.49999   0.00000  Uiso   1.00
H26    H     0.21887   0.55266   0.49999   0.00000  Uiso   1.00
C27    C     0.40973   0.63796   0.49999   0.00000  Uiso   1.00
H28    H     0.44734   0.66620   0.49999   0.00000  Uiso   1.00
C29    C     0.36204   0.77177   0.49999   0.00000  Uiso   1.00
H30    H     0.33380   0.78113   0.49999   0.00000  Uiso   1.00
N31    N     0.80951   0.39786   0.49999   0.00000  Uiso   1.00
N32    N     0.60214   0.41165   0.49999   0.00000  Uiso   1.00
N33    N     0.58835   0.19049   0.49999   0.00000  Uiso   1.00
N34    N     0.19049   0.60214   0.49999   0.00000  Uiso   1.00
N35    N     0.39786   0.58835   0.49999   0.00000  Uiso   1.00
N36    N     0.41165   0.80951   0.49999   0.00000  Uiso   1.00
C37    C     0.13883   0.57203   0.49999   0.00000  Uiso   1.00
C38    C     0.42797   0.56680   0.49999   0.00000  Uiso   1.00
C39    C     0.43320   0.86117   0.49999   0.00000  Uiso   1.00
C40    C     0.86117   0.42797   0.49999   0.00000  Uiso   1.00
C41    C     0.57203   0.43320   0.49999   0.00000  Uiso   1.00
C42    C     0.56680   0.13883   0.49999   0.00000  Uiso   1.00
C43    C     0.11010   0.59700   0.49999   0.00000  Uiso   1.00
C44    C     0.59396   0.11209   0.49999   0.00000  Uiso   1.00
C45    C     0.40300   0.51310   0.49999   0.00000  Uiso   1.00
C46    C     0.88791   0.48188   0.49999   0.00000  Uiso   1.00
C47    C     0.48690   0.88990   0.49999   0.00000  Uiso   1.00
C48    C     0.51812   0.40603   0.49999   0.00000  Uiso   1.00
C49    C     0.88990   0.40300   0.49999   0.00000  Uiso   1.00
C50    C     0.40603   0.88791   0.49999   0.00000  Uiso   1.00
C51    C     0.59700   0.48690   0.49999   0.00000  Uiso   1.00
C52    C     0.11209   0.51812   0.49999   0.00000  Uiso   1.00
C53    C     0.51310   0.11010   0.49999   0.00000  Uiso   1.00
C54    C     0.48188   0.59396   0.49999   0.00000  Uiso   1.00
C55    C     0.05816   0.49034   0.49999   0.00000  Uiso   1.00
C56    C     0.48725   0.05620   0.49999   0.00000  Uiso   1.00
C57    C     0.50966   0.56782   0.49999   0.00000  Uiso   1.00
C58    C     0.94380   0.43105   0.49999   0.00000  Uiso   1.00
C59    C     0.43218   0.94184   0.49999   0.00000  Uiso   1.00
C60    C     0.56895   0.51275   0.49999   0.00000  Uiso   1.00
C61    C     0.94184   0.50966   0.49999   0.00000  Uiso   1.00
C62    C     0.51275   0.94380   0.49999   0.00000  Uiso   1.00
C63    C     0.49034   0.43218   0.49999   0.00000  Uiso   1.00
C64    C     0.05620   0.56895   0.49999   0.00000  Uiso   1.00
C65    C     0.56782   0.05816   0.49999   0.00000  Uiso   1.00
C66    C     0.43105   0.48725   0.49999   0.00000  Uiso   1.00
H67    H     0.12852   0.63616   0.49999   0.00000  Uiso   1.00
H68    H     0.63302   0.13151   0.49999   0.00000  Uiso   1.00
H69    H     0.36384   0.49236   0.49999   0.00000  Uiso   1.00
H70    H     0.86849   0.50151   0.49999   0.00000  Uiso   1.00
H71    H     0.50764   0.87147   0.49999   0.00000  Uiso   1.00
H72    H     0.49849   0.36698   0.49999   0.00000  Uiso   1.00
H73    H     0.87147   0.36384   0.49999   0.00000  Uiso   1.00
H74    H     0.36698   0.86849   0.49999   0.00000  Uiso   1.00
H75    H     0.63616   0.50764   0.49999   0.00000  Uiso   1.00
H76    H     0.13151   0.49849   0.49999   0.00000  Uiso   1.00
H77    H     0.49236   0.12852   0.49999   0.00000  Uiso   1.00
H78    H     0.50151   0.63302   0.49999   0.00000  Uiso   1.00
C79    C     0.02759   0.51430   0.49999   0.00000  Uiso   1.00
C80    C     0.48570   0.51329   0.49999   0.00000  Uiso   1.00
C81    C     0.48671   0.97241   0.49999   0.00000  Uiso   1.00
C82    C     0.97241   0.48570   0.49999   0.00000  Uiso   1.00
C83    C     0.51430   0.48671   0.49999   0.00000  Uiso   1.00
C84    C     0.51329   0.02759   0.49999   0.00000  Uiso   1.00
H85    H     0.95768   0.54836   0.49999   0.00000  Uiso   1.00
H86    H     0.55158   0.96108   0.49999   0.00000  Uiso   1.00
H87    H     0.45164   0.40931   0.49999   0.00000  Uiso   1.00
H88    H     0.03892   0.59050   0.49999   0.00000  Uiso   1.00
H89    H     0.59068   0.04232   0.49999   0.00000  Uiso   1.00
H90    H     0.40950   0.44842   0.49999   0.00000  Uiso   1.00
H91    H     0.04232   0.45164   0.49999   0.00000  Uiso   1.00
H92    H     0.44842   0.03892   0.49999   0.00000  Uiso   1.00
H93    H     0.54836   0.59069   0.49999   0.00000  Uiso   1.00
H94    H     0.96108   0.40950   0.49999   0.00000  Uiso   1.00
H95    H     0.40932   0.95768   0.49999   0.00000  Uiso   1.00
H96    H     0.59050   0.55158   0.49999   0.00000  Uiso   1.00
loop_
_geom_bond_atom_site_label_1
_geom_bond_atom_site_label_2
_geom_bond_distance
_geom_bond_site_symmetry_2
_ccdc_geom_bond_type
C1     C2      1.414   .     D
C1     H3      1.024   .     S
C1     C14     1.413   .     S
C2     C7      1.413   .     S
C2     C19     1.410   .     S
C4     C5      1.414   .     D
C4     C11     1.413   .     S
C4     C29     1.410   .     S
C5     H6      1.024   .     S
C5     C16     1.413   .     S
C7     C8      1.414   .     D
C7     H9      1.024   .     S
C8     C13     1.413   .     S
C8     C21     1.410   .     S
C10    C11     1.414   .     D
C10    C17     1.413   .     S
C10    C25     1.410   .     S
C11    H12     1.024   .     S
C13    C14     1.414   .     D
C13    H15     1.024   .     S
C14    C23     1.410   .     S
C16    C17     1.414   .     D
C16    C27     1.410   .     S
C17    H18     1.024   .     S
C19    H20     1.022   .     S
C19    N31     1.353   .     D
C21    H22     1.022   .     S
C21    N32     1.353   .     D
C23    H24     1.022   .     S
C23    N33     1.353   .     D
C25    H26     1.022   .     S
C25    N34     1.353   .     D
C27    H28     1.022   .     S
C27    N35     1.353   .     D
C29    H30     1.022   .     S
C29    N36     1.353   .     D
N31    C40     1.355   .     S
N32    C41     1.355   .     S
N33    C42     1.355   .     S
N34    C37     1.355   .     S
N35    C38     1.355   .     S
N36    C39     1.355   .     S
C37    C43     1.403   .     D
C37    C52     1.408   .     S
C38    C45     1.403   .     D
C38    C54     1.408   .     S
C39    C47     1.403   .     S
C39    C50     1.408   .     D
C40    C46     1.408   .     D
C40    C49     1.403   .     S
C41    C48     1.408   .     D
C41    C51     1.403   .     S
C42    C44     1.408   .     S
C42    C53     1.403   .     D
C43    C64     1.408   .     S
C43    H67     1.023   .     S
C44    C65     1.408   .     D
C44    H68     1.020   .     S
C45    C66     1.408   .     S
C45    H69     1.023   .     S
C46    C61     1.408   .     S
C46    H70     1.020   .     S
C47    C62     1.408   .     D
C47    H71     1.023   .     S
C48    C63     1.408   .     S
C48    H72     1.020   .     S
C49    C58     1.408   .     D
C49    H73     1.023   .     S
C50    C59     1.408   .     S
C50    H74     1.020   .     S
C51    C60     1.408   .     D
C51    H75     1.023   .     S
C52    C55     1.408   .     D
C52    H76     1.020   .     S
C53    C56     1.408   .     S
C53    H77     1.023   .     S
C54    C57     1.408   .     D
C54    H78     1.020   .     S
C55    C79     1.427   .     S
C55    H91     1.016   .     S
C56    C84     1.427   .     D
C56    H92     1.016   .     S
C57    C80     1.427   .     S
C57    H93     1.016   .     S
C58    C82     1.427   .     S
C58    H94     1.016   .     S
C59    C81     1.427   .     D
C59    H95     1.016   .     S
C60    C83     1.427   .     S
C60    H96     1.016   .     S
C61    C82     1.427   .     D
C61    H85     1.016   .     S
C62    C81     1.427   .     S
C62    H86     1.016   .     S
C63    C83     1.427   .     D
C63    H87     1.016   .     S
C64    C79     1.427   .     D
C64    H88     1.016   .     S
C65    C84     1.427   .     S
C65    H89     1.016   .     S
C66    C80     1.427   .     D
C66    H90     1.016   .     S
C79    C82     1.441   1_455 S
C80    C83     1.441   .     S
C81    C84     1.441   1_565 S
C82    C79     1.441   1_655 S
C84    C81     1.441   1_545 S
