data_479
_audit_creation_date              2023-09-08
_audit_creation_method            'Materials Studio'
_symmetry_space_group_name_H-M    'P1'
_symmetry_Int_Tables_number       1
_symmetry_cell_setting            triclinic
loop_
_symmetry_equiv_pos_as_xyz
  x,y,z
_cell_length_a                    29.3509
_cell_length_b                    29.3509
_cell_length_c                    3.4357
_cell_angle_alpha                 90.0000
_cell_angle_beta                  90.0000
_cell_angle_gamma                 120.0000
loop_
_atom_site_label
_atom_site_type_symbol
_atom_site_fract_x
_atom_site_fract_y
_atom_site_fract_z
_atom_site_U_iso_or_equiv
_atom_site_adp_type
_atom_site_occupancy
C1     C     0.94774   0.46497   0.48633   0.00000  Uiso   1.00
C2     C     0.98289   0.44938   0.40874   0.00000  Uiso   1.00
C3     C     0.03519   0.48376   0.40819   0.00000  Uiso   1.00
C4     C     0.89328   0.42622   0.48295   0.00000  Uiso   1.00
N5     N     0.85754   0.43697   0.34955   0.00000  Uiso   1.00
N6     N     0.80641   0.39976   0.35281   0.00000  Uiso   1.00
C7     C     0.77136   0.41036   0.27332   0.00000  Uiso   1.00
C8     C     0.71791   0.37067   0.27459   0.00000  Uiso   1.00
O9     O     0.88037   0.38352   0.59452   0.00000  Uiso   1.00
C10    C     0.70375   0.31942   0.27388   0.00000  Uiso   1.00
O11    O     0.92894   0.53057   0.67084   0.00000  Uiso   1.00
C12    C     0.94519   0.57962   0.83122   0.00000  Uiso   1.00
H13    H     0.96881   0.40994   0.34660   0.00000  Uiso   1.00
H14    H     0.86806   0.47212   0.22710   0.00000  Uiso   1.00
H15    H     0.78122   0.44901   0.21324   0.00000  Uiso   1.00
H16    H     0.69156   0.42390   0.27229   0.00000  Uiso   1.00
C17    C     0.05230   0.53488   0.49699   0.00000  Uiso   1.00
C18    C     0.01715   0.55047   0.57431   0.00000  Uiso   1.00
C19    C     0.96487   0.51606   0.57609   0.00000  Uiso   1.00
C20    C     0.10674   0.57366   0.50009   0.00000  Uiso   1.00
O21    O     0.11964   0.61627   0.38630   0.00000  Uiso   1.00
N22    N     0.14247   0.56304   0.63584   0.00000  Uiso   1.00
N23    N     0.19360   0.60024   0.63213   0.00000  Uiso   1.00
C24    C     0.22864   0.58967   0.71307   0.00000  Uiso   1.00
C25    C     0.28208   0.62934   0.71157   0.00000  Uiso   1.00
C26    C     0.29625   0.68060   0.71228   0.00000  Uiso   1.00
O27    O     0.07113   0.46910   0.31728   0.00000  Uiso   1.00
C28    C     0.05490   0.42019   0.15387   0.00000  Uiso   1.00
H29    H     0.03123   0.58992   0.63603   0.00000  Uiso   1.00
H30    H     0.13192   0.52802   0.76102   0.00000  Uiso   1.00
H31    H     0.21876   0.55104   0.77450   0.00000  Uiso   1.00
H32    H     0.30842   0.57609   0.71395   0.00000  Uiso   1.00
C33    C     0.58204   0.68228   0.01111   0.00000  Uiso   1.00
C34    C     0.62225   0.72773   0.07360   0.00000  Uiso   1.00
C35    C     0.41795   0.31799   0.97489   0.00000  Uiso   1.00
C36    C     0.37392   0.27570   1.02997   0.00000  Uiso   1.00
H37    H     0.96588   0.61049   0.61795   0.00000  Uiso   1.00
H38    H     0.97241   0.58726   1.06770   0.00000  Uiso   1.00
H39    H     0.02837   0.41331  -0.08601   0.00000  Uiso   1.00
H40    H     0.03325   0.38896   0.36271   0.00000  Uiso   1.00
H41    H     0.55012   0.67978  -0.14893   0.00000  Uiso   1.00
H42    H     0.65525   0.73200   0.22850   0.00000  Uiso   1.00
H43    H     0.62241   0.76122  -0.03361   0.00000  Uiso   1.00
H44    H     0.45257   0.31818   1.04798   0.00000  Uiso   1.00
H45    H     0.37320   0.24203   1.13958   0.00000  Uiso   1.00
H46    H     0.33849   0.27436   0.96771   0.00000  Uiso   1.00
C47    C     0.53503   0.48277   0.48633   0.00000  Uiso   1.00
C48    C     0.55062   0.53351   0.40874   0.00000  Uiso   1.00
C49    C     0.51624   0.55143   0.40819   0.00000  Uiso   1.00
C50    C     0.57378   0.46706   0.48295   0.00000  Uiso   1.00
N51    N     0.56303   0.42057   0.34955   0.00000  Uiso   1.00
N52    N     0.60024   0.40665   0.35281   0.00000  Uiso   1.00
C53    C     0.58964   0.36100   0.27332   0.00000  Uiso   1.00
C54    C     0.62933   0.34724   0.27459   0.00000  Uiso   1.00
O55    O     0.61648   0.49685   0.59452   0.00000  Uiso   1.00
C56    C     0.68058   0.38433   0.27388   0.00000  Uiso   1.00
O57    O     0.46943   0.39837   0.67084   0.00000  Uiso   1.00
C58    C     0.42038   0.36557   0.83122   0.00000  Uiso   1.00
H59    H     0.59006   0.55887   0.34660   0.00000  Uiso   1.00
H60    H     0.52788   0.39594   0.22710   0.00000  Uiso   1.00
H61    H     0.55099   0.33221   0.21324   0.00000  Uiso   1.00
H62    H     0.57610   0.26766   0.27229   0.00000  Uiso   1.00
C63    C     0.46512   0.51742   0.49699   0.00000  Uiso   1.00
C64    C     0.44953   0.46668   0.57431   0.00000  Uiso   1.00
C65    C     0.48394   0.44881   0.57609   0.00000  Uiso   1.00
C66    C     0.42634   0.53308   0.50009   0.00000  Uiso   1.00
O67    O     0.38373   0.50337   0.38630   0.00000  Uiso   1.00
N68    N     0.43696   0.57943   0.63584   0.00000  Uiso   1.00
N69    N     0.39976   0.59336   0.63213   0.00000  Uiso   1.00
C70    C     0.41033   0.63897   0.71307   0.00000  Uiso   1.00
C71    C     0.37066   0.65274   0.71157   0.00000  Uiso   1.00
C72    C     0.31940   0.61565   0.71228   0.00000  Uiso   1.00
O73    O     0.53090   0.60203   0.31728   0.00000  Uiso   1.00
C74    C     0.57981   0.63471   0.15387   0.00000  Uiso   1.00
H75    H     0.41008   0.44131   0.63603   0.00000  Uiso   1.00
H76    H     0.47198   0.60390   0.76102   0.00000  Uiso   1.00
H77    H     0.44896   0.66772   0.77450   0.00000  Uiso   1.00
H78    H     0.42391   0.73233   0.71395   0.00000  Uiso   1.00
C79    C     0.31772   0.89976   0.01111   0.00000  Uiso   1.00
C80    C     0.27227   0.89452   0.07360   0.00000  Uiso   1.00
C81    C     0.68201   0.09996   0.97489   0.00000  Uiso   1.00
C82    C     0.72430   0.09822   1.02997   0.00000  Uiso   1.00
H83    H     0.38951   0.35539   0.61795   0.00000  Uiso   1.00
H84    H     0.41274   0.38515   1.06770   0.00000  Uiso   1.00
H85    H     0.58669   0.61506  -0.08601   0.00000  Uiso   1.00
H86    H     0.61104   0.64429   0.36271   0.00000  Uiso   1.00
H87    H     0.32022   0.87034  -0.14893   0.00000  Uiso   1.00
H88    H     0.26800   0.92325   0.22850   0.00000  Uiso   1.00
H89    H     0.23878   0.86119  -0.03361   0.00000  Uiso   1.00
H90    H     0.68182   0.13439   1.04798   0.00000  Uiso   1.00
H91    H     0.75797   0.13117   1.13958   0.00000  Uiso   1.00
H92    H     0.72564   0.06413   0.96771   0.00000  Uiso   1.00
C93    C     0.51723   0.05226   0.48633   0.00000  Uiso   1.00
C94    C     0.46649   0.01711   0.40874   0.00000  Uiso   1.00
C95    C     0.44857   0.96481   0.40819   0.00000  Uiso   1.00
C96    C     0.53294   0.10672   0.48295   0.00000  Uiso   1.00
N97    N     0.57943   0.14246   0.34955   0.00000  Uiso   1.00
N98    N     0.59335   0.19359   0.35281   0.00000  Uiso   1.00
C99    C     0.63900   0.22864   0.27332   0.00000  Uiso   1.00
C100   C     0.65276   0.28209   0.27459   0.00000  Uiso   1.00
O101   O     0.50315   0.11963   0.59452   0.00000  Uiso   1.00
C102   C     0.61567   0.29625   0.27388   0.00000  Uiso   1.00
O103   O     0.60163   0.07106   0.67084   0.00000  Uiso   1.00
C104   C     0.63443   0.05481   0.83122   0.00000  Uiso   1.00
H105   H     0.44113   0.03119   0.34660   0.00000  Uiso   1.00
H106   H     0.60406   0.13194   0.22710   0.00000  Uiso   1.00
H107   H     0.66779   0.21878   0.21324   0.00000  Uiso   1.00
H108   H     0.73234   0.30844   0.27229   0.00000  Uiso   1.00
C109   C     0.48258   0.94770   0.49699   0.00000  Uiso   1.00
C110   C     0.53332   0.98285   0.57431   0.00000  Uiso   1.00
C111   C     0.55119   0.03513   0.57609   0.00000  Uiso   1.00
C112   C     0.46692   0.89326   0.50009   0.00000  Uiso   1.00
O113   O     0.49663   0.88036   0.38630   0.00000  Uiso   1.00
N114   N     0.42057   0.85753   0.63584   0.00000  Uiso   1.00
N115   N     0.40664   0.80640   0.63213   0.00000  Uiso   1.00
C116   C     0.36103   0.77136   0.71307   0.00000  Uiso   1.00
C117   C     0.34726   0.71792   0.71157   0.00000  Uiso   1.00
C118   C     0.38435   0.70375   0.71228   0.00000  Uiso   1.00
O119   O     0.39797   0.92887   0.31728   0.00000  Uiso   1.00
C120   C     0.36529   0.94510   0.15387   0.00000  Uiso   1.00
H121   H     0.55869   0.96877   0.63603   0.00000  Uiso   1.00
H122   H     0.39610   0.86808   0.76102   0.00000  Uiso   1.00
H123   H     0.33228   0.78124   0.77450   0.00000  Uiso   1.00
H124   H     0.26767   0.69158   0.71395   0.00000  Uiso   1.00
C125   C     0.10024   0.41796   0.01111   0.00000  Uiso   1.00
C126   C     0.10548   0.37775   0.07360   0.00000  Uiso   1.00
C127   C     0.90004   0.58205   0.97489   0.00000  Uiso   1.00
C128   C     0.90178   0.62608   1.02997   0.00000  Uiso   1.00
H129   H     0.64461   0.03412   0.61795   0.00000  Uiso   1.00
H130   H     0.61485   0.02759   1.06770   0.00000  Uiso   1.00
H131   H     0.38494   0.97163  -0.08601   0.00000  Uiso   1.00
H132   H     0.35571   0.96675   0.36271   0.00000  Uiso   1.00
H133   H     0.12966   0.44988  -0.14893   0.00000  Uiso   1.00
H134   H     0.07675   0.34475   0.22850   0.00000  Uiso   1.00
H135   H     0.13881   0.37759  -0.03361   0.00000  Uiso   1.00
H136   H     0.86561   0.54743   1.04798   0.00000  Uiso   1.00
H137   H     0.86883   0.62680   1.13958   0.00000  Uiso   1.00
H138   H     0.93587   0.66151   0.96771   0.00000  Uiso   1.00
loop_
_geom_bond_atom_site_label_1
_geom_bond_atom_site_label_2
_geom_bond_distance
_geom_bond_site_symmetry_2
_ccdc_geom_bond_type
C1     C2      1.348   .     S
C1     C4      1.425   .     S
C1     C19     1.357   .     D
C2     C3      1.351   1_655 D
C2     H13     1.038   .     S
C3     C2      1.351   1_455 D
C3     C17     1.358   .     S
C3     O27     1.360   .     S
C4     N5      1.319   .     S
C4     O9      1.177   .     D
N5     N6      1.344   .     S
N5     H14     1.009   .     S
N6     C7      1.245   .     D
C7     C8      1.411   .     S
C7     H15     1.042   .     S
C8     C10     1.345   .     S
C8     C56     1.342   .     D
C10    C100    1.342   .     D
C10    H108    1.038   .     S
O11    C12     1.385   .     S
O11    C19     1.360   .     S
C12    H37     1.085   .     S
C12    H38     1.081   .     S
C12    C127    1.449   .     S
H16    C56     1.038   .     S
C17    C18     1.348   .     D
C17    C20     1.425   .     S
C18    C19     1.351   1_455 S
C18    H29     1.038   .     S
C19    C18     1.351   1_655 S
C20    O21     1.178   .     D
C20    N22     1.320   .     S
N22    N23     1.344   .     S
N22    H30     1.009   .     S
N23    C24     1.245   .     D
C24    C25     1.411   .     S
C24    H31     1.042   .     S
C25    C26     1.346   .     S
C25    C72     1.342   .     D
C26    C117    1.342   .     D
C26    H124    1.038   .     S
O27    C28     1.385   .     S
C28    H39     1.081   .     S
C28    H40     1.085   .     S
C28    C125    1.450   .     S
H32    C72     1.038   .     S
C33    C34     1.282   .     D
C33    H41     1.057   .     S
C33    C74     1.450   .     S
C34    H42     1.056   .     S
C34    H43     1.048   .     S
C35    C36     1.282   .     D
C35    H44     1.044   .     S
C35    C58     1.449   .     S
C36    H45     1.048   .     S
C36    H46     1.043   .     S
C47    C48     1.348   .     S
C47    C50     1.425   .     S
C47    C65     1.357   .     D
C48    C49     1.351   .     D
C48    H59     1.038   .     S
C49    C63     1.358   .     S
C49    O73     1.360   .     S
C50    N51     1.319   .     S
C50    O55     1.177   .     D
N51    N52     1.344   .     S
N51    H60     1.009   .     S
N52    C53     1.245   .     D
C53    C54     1.411   .     S
C53    H61     1.042   .     S
C54    C56     1.345   .     S
C54    C102    1.342   .     D
O57    C58     1.385   .     S
O57    C65     1.360   .     S
C58    H83     1.085   .     S
C58    H84     1.081   .     S
H62    C102    1.038   .     S
C63    C64     1.348   .     D
C63    C66     1.425   .     S
C64    C65     1.351   .     S
C64    H75     1.038   .     S
C66    O67     1.178   .     D
C66    N68     1.320   .     S
N68    N69     1.344   .     S
N68    H76     1.009   .     S
N69    C70     1.245   .     D
C70    C71     1.411   .     S
C70    H77     1.042   .     S
C71    C72     1.346   .     S
C71    C118    1.342   .     D
O73    C74     1.385   .     S
C74    H85     1.081   .     S
C74    H86     1.085   .     S
H78    C118    1.038   .     S
C79    C80     1.282   .     D
C79    H87     1.057   .     S
C79    C120    1.450   .     S
C80    H88     1.056   .     S
C80    H89     1.048   .     S
C81    C82     1.282   .     D
C81    H90     1.044   .     S
C81    C104    1.449   .     S
C82    H91     1.048   .     S
C82    H92     1.043   .     S
C93    C94     1.348   .     S
C93    C96     1.425   .     S
C93    C111    1.357   .     D
C94    C95     1.351   1_545 D
C94    H105    1.038   .     S
C95    C94     1.351   1_565 D
C95    C109    1.358   .     S
C95    O119    1.360   .     S
C96    N97     1.319   .     S
C96    O101    1.177   .     D
N97    N98     1.344   .     S
N97    H106    1.009   .     S
N98    C99     1.245   .     D
C99    C100    1.411   .     S
C99    H107    1.042   .     S
C100   C102    1.345   .     S
O103   C104    1.385   .     S
O103   C111    1.360   .     S
C104   H129    1.085   .     S
C104   H130    1.081   .     S
C109   C110    1.348   .     D
C109   C112    1.425   .     S
C110   C111    1.351   1_565 S
C110   H121    1.038   .     S
C111   C110    1.351   1_545 S
C112   O113    1.178   .     D
C112   N114    1.320   .     S
N114   N115    1.344   .     S
N114   H122    1.009   .     S
N115   C116    1.245   .     D
C116   C117    1.411   .     S
C116   H123    1.042   .     S
C117   C118    1.346   .     S
O119   C120    1.385   .     S
C120   H131    1.081   .     S
C120   H132    1.085   .     S
C125   C126    1.282   .     D
C125   H133    1.057   .     S
C126   H134    1.056   .     S
C126   H135    1.048   .     S
C127   C128    1.282   .     D
C127   H136    1.044   .     S
C128   H137    1.048   .     S
C128   H138    1.043   .     S
