data_48
_audit_creation_date              2023-09-08
_audit_creation_method            'Materials Studio'
_symmetry_space_group_name_H-M    'P1'
_symmetry_Int_Tables_number       1
_symmetry_cell_setting            triclinic
loop_
_symmetry_equiv_pos_as_xyz
  x,y,z
_cell_length_a                    36.5600
_cell_length_b                    36.5600
_cell_length_c                    3.6500
_cell_angle_alpha                 90.0000
_cell_angle_beta                  90.0000
_cell_angle_gamma                 120.0000
loop_
_atom_site_label
_atom_site_type_symbol
_atom_site_fract_x
_atom_site_fract_y
_atom_site_fract_z
_atom_site_U_iso_or_equiv
_atom_site_adp_type
_atom_site_occupancy
C1     C     0.58577   0.36594   0.44433   0.00000  Uiso   1.00
C2     C     0.58777   0.32954   0.44062   0.00000  Uiso   1.00
C3     C     0.49211   0.45890   0.47547   0.00000  Uiso   1.00
C4     C     0.56198   0.47912   0.46663   0.00000  Uiso   1.00
C5     C     0.54195   0.53395   0.48791   0.00000  Uiso   1.00
C6     C     0.66044   0.40711   0.44743   0.00000  Uiso   1.00
C7     C     0.62166   0.40426   0.44828   0.00000  Uiso   1.00
O8     O     0.55181   0.37005   0.44579   0.00000  Uiso   1.00
B9     B     0.56817   0.41435   0.45221   0.00000  Uiso   1.00
O10    O     0.61299   0.43536   0.45323   0.00000  Uiso   1.00
C11    C     0.54370   0.43609   0.45827   0.00000  Uiso   1.00
C12    C     0.53300   0.49234   0.47430   0.00000  Uiso   1.00
S13    S     0.48972   0.41092   0.45743   0.00000  Uiso   1.00
C14    C     0.66425   0.37067   0.44362   0.00000  Uiso   1.00
C15    C     0.62683   0.33073   0.44244   0.00000  Uiso   1.00
H16    H     0.55974   0.30310   0.43696   0.00000  Uiso   1.00
H17    H     0.59341   0.49907   0.46773   0.00000  Uiso   1.00
H18    H     0.68480   0.43656   0.45058   0.00000  Uiso   1.00
O19    O     0.58285   0.56389   0.51939   0.00000  Uiso   1.00
C20    C     0.60015   0.60358   0.69692   0.00000  Uiso   1.00
C21    C     0.64333   0.61313   0.83124   0.00000  Uiso   1.00
H22    H     0.58033   0.60202   0.92893   0.00000  Uiso   1.00
H23    H     0.60269   0.62792   0.50983   0.00000  Uiso   1.00
H24    H     0.66339   0.61603   0.59942   0.00000  Uiso   1.00
H25    H     0.63977   0.58737   1.00418   0.00000  Uiso   1.00
H26    H     0.65821   0.64193   0.99045   0.00000  Uiso   1.00
C27    C     0.63406   0.21983   0.44433   0.00000  Uiso   1.00
C28    C     0.67046   0.25823   0.44062   0.00000  Uiso   1.00
C29    C     0.54110   0.03321   0.47547   0.00000  Uiso   1.00
C30    C     0.52088   0.08286   0.46663   0.00000  Uiso   1.00
C31    C     0.46605   0.00800   0.48791   0.00000  Uiso   1.00
C32    C     0.59289   0.25333   0.44743   0.00000  Uiso   1.00
C33    C     0.59574   0.21740   0.44828   0.00000  Uiso   1.00
O34    O     0.62995   0.18176   0.44579   0.00000  Uiso   1.00
B35    B     0.58565   0.15382   0.45221   0.00000  Uiso   1.00
O36    O     0.56464   0.17763   0.45323   0.00000  Uiso   1.00
C37    C     0.56391   0.10761   0.45827   0.00000  Uiso   1.00
C38    C     0.50766   0.04066   0.47430   0.00000  Uiso   1.00
S39    S     0.58908   0.07880   0.45743   0.00000  Uiso   1.00
C40    C     0.62933   0.29358   0.44362   0.00000  Uiso   1.00
C41    C     0.66927   0.29610   0.44244   0.00000  Uiso   1.00
H42    H     0.69690   0.25664   0.43696   0.00000  Uiso   1.00
H43    H     0.50093   0.09434   0.46773   0.00000  Uiso   1.00
H44    H     0.56344   0.24824   0.45058   0.00000  Uiso   1.00
O45    O     0.43611   0.01896   0.51939   0.00000  Uiso   1.00
C46    C     0.39642   0.99657   0.69692   0.00000  Uiso   1.00
C47    C     0.38687   0.03020   0.83124   0.00000  Uiso   1.00
H48    H     0.39798   0.97831   0.92893   0.00000  Uiso   1.00
H49    H     0.37208   0.97477   0.50983   0.00000  Uiso   1.00
H50    H     0.38397   0.04736   0.59942   0.00000  Uiso   1.00
H51    H     0.41263   0.05240   1.00418   0.00000  Uiso   1.00
H52    H     0.35807   0.01628   0.99045   0.00000  Uiso   1.00
C53    C     0.78017   0.41423   0.44433   0.00000  Uiso   1.00
C54    C     0.74177   0.41223   0.44062   0.00000  Uiso   1.00
C55    C     0.96679   0.50789   0.47547   0.00000  Uiso   1.00
C56    C     0.91714   0.43802   0.46663   0.00000  Uiso   1.00
C57    C     0.99200   0.45805   0.48791   0.00000  Uiso   1.00
C58    C     0.74667   0.33956   0.44743   0.00000  Uiso   1.00
C59    C     0.78260   0.37834   0.44828   0.00000  Uiso   1.00
O60    O     0.81824   0.44819   0.44579   0.00000  Uiso   1.00
B61    B     0.84618   0.43183   0.45221   0.00000  Uiso   1.00
O62    O     0.82237   0.38701   0.45323   0.00000  Uiso   1.00
C63    C     0.89239   0.45630   0.45827   0.00000  Uiso   1.00
C64    C     0.95934   0.46700   0.47430   0.00000  Uiso   1.00
S65    S     0.92120   0.51028   0.45743   0.00000  Uiso   1.00
C66    C     0.70642   0.33575   0.44362   0.00000  Uiso   1.00
C67    C     0.70390   0.37317   0.44244   0.00000  Uiso   1.00
H68    H     0.74336   0.44026   0.43696   0.00000  Uiso   1.00
H69    H     0.90566   0.40659   0.46773   0.00000  Uiso   1.00
H70    H     0.75176   0.31520   0.45058   0.00000  Uiso   1.00
O71    O     0.98104   0.41715   0.51939   0.00000  Uiso   1.00
C72    C     0.00343   0.39985   0.69692   0.00000  Uiso   1.00
C73    C     0.96980   0.35667   0.83124   0.00000  Uiso   1.00
H74    H     0.02169   0.41967   0.92893   0.00000  Uiso   1.00
H75    H     0.02523   0.39731   0.50983   0.00000  Uiso   1.00
H76    H     0.95264   0.33661   0.59942   0.00000  Uiso   1.00
H77    H     0.94760   0.36023   1.00418   0.00000  Uiso   1.00
H78    H     0.98372   0.34179   0.99045   0.00000  Uiso   1.00
C79    C     0.41423   0.63406   0.44433   0.00000  Uiso   1.00
C80    C     0.41223   0.67046   0.44062   0.00000  Uiso   1.00
C81    C     0.50789   0.54110   0.47547   0.00000  Uiso   1.00
C82    C     0.43802   0.52088   0.46663   0.00000  Uiso   1.00
C83    C     0.45805   0.46605   0.48791   0.00000  Uiso   1.00
C84    C     0.33956   0.59289   0.44743   0.00000  Uiso   1.00
C85    C     0.37834   0.59574   0.44828   0.00000  Uiso   1.00
O86    O     0.44819   0.62995   0.44579   0.00000  Uiso   1.00
B87    B     0.43183   0.58565   0.45221   0.00000  Uiso   1.00
O88    O     0.38701   0.56464   0.45323   0.00000  Uiso   1.00
C89    C     0.45630   0.56391   0.45827   0.00000  Uiso   1.00
C90    C     0.46700   0.50766   0.47430   0.00000  Uiso   1.00
S91    S     0.51028   0.58908   0.45743   0.00000  Uiso   1.00
C92    C     0.33575   0.62933   0.44362   0.00000  Uiso   1.00
C93    C     0.37317   0.66927   0.44244   0.00000  Uiso   1.00
H94    H     0.44026   0.69690   0.43696   0.00000  Uiso   1.00
H95    H     0.40659   0.50093   0.46773   0.00000  Uiso   1.00
H96    H     0.31520   0.56344   0.45058   0.00000  Uiso   1.00
O97    O     0.41715   0.43611   0.51939   0.00000  Uiso   1.00
C98    C     0.39985   0.39642   0.69692   0.00000  Uiso   1.00
C99    C     0.35667   0.38687   0.83124   0.00000  Uiso   1.00
H100   H     0.41967   0.39798   0.92893   0.00000  Uiso   1.00
H101   H     0.39731   0.37208   0.50983   0.00000  Uiso   1.00
H102   H     0.33661   0.38397   0.59942   0.00000  Uiso   1.00
H103   H     0.36023   0.41263   1.00418   0.00000  Uiso   1.00
H104   H     0.34179   0.35807   0.99045   0.00000  Uiso   1.00
C105   C     0.36594   0.78017   0.44433   0.00000  Uiso   1.00
C106   C     0.32954   0.74177   0.44062   0.00000  Uiso   1.00
C107   C     0.45890   0.96679   0.47547   0.00000  Uiso   1.00
C108   C     0.47912   0.91714   0.46663   0.00000  Uiso   1.00
C109   C     0.53395   0.99200   0.48791   0.00000  Uiso   1.00
C110   C     0.40711   0.74667   0.44743   0.00000  Uiso   1.00
C111   C     0.40426   0.78260   0.44828   0.00000  Uiso   1.00
O112   O     0.37005   0.81824   0.44579   0.00000  Uiso   1.00
B113   B     0.41435   0.84618   0.45221   0.00000  Uiso   1.00
O114   O     0.43536   0.82237   0.45323   0.00000  Uiso   1.00
C115   C     0.43609   0.89239   0.45827   0.00000  Uiso   1.00
C116   C     0.49234   0.95934   0.47430   0.00000  Uiso   1.00
S117   S     0.41092   0.92120   0.45743   0.00000  Uiso   1.00
C118   C     0.37067   0.70642   0.44362   0.00000  Uiso   1.00
C119   C     0.33073   0.70390   0.44244   0.00000  Uiso   1.00
H120   H     0.30310   0.74336   0.43696   0.00000  Uiso   1.00
H121   H     0.49907   0.90566   0.46773   0.00000  Uiso   1.00
H122   H     0.43656   0.75176   0.45058   0.00000  Uiso   1.00
O123   O     0.56389   0.98104   0.51939   0.00000  Uiso   1.00
C124   C     0.60358   0.00343   0.69692   0.00000  Uiso   1.00
C125   C     0.61313   0.96980   0.83124   0.00000  Uiso   1.00
H126   H     0.60202   0.02169   0.92893   0.00000  Uiso   1.00
H127   H     0.62792   0.02523   0.50983   0.00000  Uiso   1.00
H128   H     0.61603   0.95264   0.59942   0.00000  Uiso   1.00
H129   H     0.58737   0.94760   1.00418   0.00000  Uiso   1.00
H130   H     0.64193   0.98372   0.99045   0.00000  Uiso   1.00
C131   C     0.21983   0.58577   0.44433   0.00000  Uiso   1.00
C132   C     0.25823   0.58777   0.44062   0.00000  Uiso   1.00
C133   C     0.03321   0.49211   0.47547   0.00000  Uiso   1.00
C134   C     0.08286   0.56198   0.46663   0.00000  Uiso   1.00
C135   C     0.00800   0.54195   0.48791   0.00000  Uiso   1.00
C136   C     0.25333   0.66044   0.44743   0.00000  Uiso   1.00
C137   C     0.21740   0.62166   0.44828   0.00000  Uiso   1.00
O138   O     0.18176   0.55181   0.44579   0.00000  Uiso   1.00
B139   B     0.15382   0.56817   0.45221   0.00000  Uiso   1.00
O140   O     0.17763   0.61299   0.45323   0.00000  Uiso   1.00
C141   C     0.10761   0.54370   0.45827   0.00000  Uiso   1.00
C142   C     0.04066   0.53300   0.47430   0.00000  Uiso   1.00
S143   S     0.07880   0.48972   0.45743   0.00000  Uiso   1.00
C144   C     0.29358   0.66425   0.44362   0.00000  Uiso   1.00
C145   C     0.29610   0.62683   0.44244   0.00000  Uiso   1.00
H146   H     0.25664   0.55974   0.43696   0.00000  Uiso   1.00
H147   H     0.09434   0.59341   0.46773   0.00000  Uiso   1.00
H148   H     0.24824   0.68480   0.45058   0.00000  Uiso   1.00
O149   O     0.01896   0.58285   0.51939   0.00000  Uiso   1.00
C150   C     0.99657   0.60015   0.69692   0.00000  Uiso   1.00
C151   C     0.03020   0.64333   0.83124   0.00000  Uiso   1.00
H152   H     0.97831   0.58033   0.92893   0.00000  Uiso   1.00
H153   H     0.97477   0.60269   0.50983   0.00000  Uiso   1.00
H154   H     0.04736   0.66339   0.59942   0.00000  Uiso   1.00
H155   H     0.05240   0.63977   1.00418   0.00000  Uiso   1.00
H156   H     0.01628   0.65821   0.99045   0.00000  Uiso   1.00
loop_
_geom_bond_atom_site_label_1
_geom_bond_atom_site_label_2
_geom_bond_distance
_geom_bond_site_symmetry_2
_ccdc_geom_bond_type
C1     C2      1.369   .     S
C1     C7      1.359   .     D
C1     O8      1.323   .     S
C2     C15     1.407   .     D
C2     H16     0.997   .     S
C3     C12     1.379   .     D
C3     S13     1.713   .     S
C3     C83     1.395   .     S
C4     C11     1.368   .     D
C4     C12     1.367   .     S
C4     H17     1.007   .     S
C5     C12     1.388   .     S
C5     O19     1.346   .     S
C5     C81     1.395   .     D
C6     C7      1.369   .     S
C6     C14     1.407   .     D
C6     H18     0.997   .     S
C7     O10     1.324   .     S
O8     B9      1.419   .     S
B9     O10     1.420   .     S
B9     C11     1.464   .     S
C11    S13     1.710   .     S
C14    C15     1.416   .     S
C14    C67     1.406   .     S
C15    C40     1.406   .     S
O19    C20     1.417   .     S
C20    C21     1.518   .     S
C20    H22     1.097   .     S
C20    H23     1.088   .     S
C21    H24     1.090   .     S
C21    H25     1.086   .     S
C21    H26     1.081   .     S
C27    C28     1.369   .     D
C27    C33     1.359   .     S
C27    O34     1.323   .     S
C28    C41     1.407   .     S
C28    H42     0.997   .     S
C29    C38     1.379   .     S
C29    S39     1.713   .     S
C29    C109    1.395   1_545 D
C30    C37     1.368   .     D
C30    C38     1.367   .     S
C30    H43     1.007   .     S
C31    C38     1.388   .     D
C31    O45     1.346   .     S
C31    C107    1.395   1_545 S
C32    C33     1.369   .     D
C32    C40     1.407   .     S
C32    H44     0.997   .     S
C33    O36     1.324   .     S
O34    B35     1.419   .     S
B35    O36     1.420   .     S
B35    C37     1.464   .     S
C37    S39     1.710   .     S
C40    C41     1.416   .     D
C41    C66     1.406   .     S
O45    C46     1.417   1_545 S
C46    O45     1.417   1_565 S
C46    C47     1.518   1_565 S
C46    H48     1.097   .     S
C46    H49     1.088   .     S
C47    C46     1.518   1_545 S
C47    H50     1.090   .     S
C47    H51     1.086   .     S
C47    H52     1.081   .     S
C53    C54     1.369   .     S
C53    C59     1.359   .     D
C53    O60     1.323   .     S
C54    C67     1.407   .     D
C54    H68     0.997   .     S
C55    C64     1.379   .     D
C55    S65     1.713   .     S
C55    C135    1.395   1_655 S
C56    C63     1.368   .     D
C56    C64     1.367   .     S
C56    H69     1.007   .     S
C57    C64     1.388   .     S
C57    O71     1.346   .     S
C57    C133    1.395   1_655 D
C58    C59     1.369   .     S
C58    C66     1.407   .     D
C58    H70     0.997   .     S
C59    O62     1.324   .     S
O60    B61     1.419   .     S
B61    O62     1.420   .     S
B61    C63     1.464   .     S
C63    S65     1.710   .     S
C66    C67     1.416   .     S
O71    C72     1.417   1_655 S
C72    O71     1.417   1_455 S
C72    C73     1.518   1_455 S
C72    H74     1.097   .     S
C72    H75     1.088   .     S
C73    C72     1.518   1_655 S
C73    H76     1.090   .     S
C73    H77     1.086   .     S
C73    H78     1.081   .     S
C79    C80     1.369   .     S
C79    C85     1.359   .     D
C79    O86     1.323   .     S
C80    C93     1.407   .     D
C80    H94     0.997   .     S
C81    C90     1.379   .     S
C81    S91     1.713   .     S
C82    C89     1.368   .     D
C82    C90     1.367   .     S
C82    H95     1.007   .     S
C83    C90     1.388   .     D
C83    O97     1.346   .     S
C84    C85     1.369   .     S
C84    C92     1.407   .     D
C84    H96     0.997   .     S
C85    O88     1.324   .     S
O86    B87     1.419   .     S
B87    O88     1.420   .     S
B87    C89     1.464   .     S
C89    S91     1.710   .     S
C92    C93     1.416   .     S
C92    C145    1.406   .     S
C93    C118    1.406   .     S
O97    C98     1.417   .     S
C98    C99     1.518   .     S
C98    H100    1.097   .     S
C98    H101    1.088   .     S
C99    H102    1.090   .     S
C99    H103    1.086   .     S
C99    H104    1.081   .     S
C105   C106    1.369   .     S
C105   C111    1.359   .     D
C105   O112    1.323   .     S
C106   C119    1.407   .     D
C106   H120    0.997   .     S
C107   C31     1.395   1_565 S
C107   C116    1.379   .     D
C107   S117    1.713   .     S
C108   C115    1.368   .     D
C108   C116    1.367   .     S
C108   H121    1.007   .     S
C109   C29     1.395   1_565 D
C109   C116    1.388   .     S
C109   O123    1.346   .     S
C110   C111    1.369   .     S
C110   C118    1.407   .     D
C110   H122    0.997   .     S
C111   O114    1.324   .     S
O112   B113    1.419   .     S
B113   O114    1.420   .     S
B113   C115    1.464   .     S
C115   S117    1.710   .     S
C118   C119    1.416   .     S
C119   C144    1.406   .     S
O123   C124    1.417   1_565 S
C124   O123    1.417   1_545 S
C124   C125    1.518   1_545 S
C124   H126    1.097   .     S
C124   H127    1.088   .     S
C125   C124    1.518   1_565 S
C125   H128    1.090   .     S
C125   H129    1.086   .     S
C125   H130    1.081   .     S
C131   C132    1.369   .     S
C131   C137    1.359   .     D
C131   O138    1.323   .     S
C132   C145    1.407   .     D
C132   H146    0.997   .     S
C133   C57     1.395   1_455 D
C133   C142    1.379   .     S
C133   S143    1.713   .     S
C134   C141    1.368   .     D
C134   C142    1.367   .     S
C134   H147    1.007   .     S
C135   C55     1.395   1_455 S
C135   C142    1.388   .     D
C135   O149    1.346   .     S
C136   C137    1.369   .     S
C136   C144    1.407   .     D
C136   H148    0.997   .     S
C137   O140    1.324   .     S
O138   B139    1.419   .     S
B139   O140    1.420   .     S
B139   C141    1.464   .     S
C141   S143    1.710   .     S
C144   C145    1.416   .     S
O149   C150    1.417   1_455 S
C150   O149    1.417   1_655 S
C150   C151    1.518   1_655 S
C150   H152    1.097   .     S
C150   H153    1.088   .     S
C151   C150    1.518   1_455 S
C151   H154    1.090   .     S
C151   H155    1.086   .     S
C151   H156    1.081   .     S
