data_481
_audit_creation_date              2023-09-08
_audit_creation_method            'Materials Studio'
_symmetry_space_group_name_H-M    'P1'
_symmetry_Int_Tables_number       1
_symmetry_cell_setting            triclinic
loop_
_symmetry_equiv_pos_as_xyz
  x,y,z
_cell_length_a                    30.0314
_cell_length_b                    30.0314
_cell_length_c                    7.0764
_cell_angle_alpha                 90.0000
_cell_angle_beta                  90.0000
_cell_angle_gamma                 120.0000
loop_
_atom_site_label
_atom_site_type_symbol
_atom_site_fract_x
_atom_site_fract_y
_atom_site_fract_z
_atom_site_U_iso_or_equiv
_atom_site_adp_type
_atom_site_occupancy
C1     C     0.27947   0.63425   0.62939   0.00000  Uiso   1.00
C2     C     0.30167   0.68831   0.62746   0.00000  Uiso   1.00
C3     C     0.22385   0.59956   0.64551   0.00000  Uiso   1.00
C4     C     0.10541   0.58770   0.78945   0.00000  Uiso   1.00
C5     C     0.05201   0.54093   0.80507   0.00000  Uiso   1.00
C6     C     0.04021   0.48890   0.81368   0.00000  Uiso   1.00
C7     C     0.98896   0.44913   0.81049   0.00000  Uiso   1.00
C8     C     0.92694   0.57222   0.84472   0.00000  Uiso   1.00
C9     C     0.56717   0.69069   0.89959   0.00000  Uiso   1.00
C10    C     0.58061   0.73101   0.78611   0.00000  Uiso   1.00
C11    C     0.36571   0.64490   0.62960   0.00000  Uiso   1.00
C12    C     0.31164   0.61290   0.62799   0.00000  Uiso   1.00
C13    C     0.40048   0.62418   0.64567   0.00000  Uiso   1.00
C14    C     0.41248   0.51777   0.78939   0.00000  Uiso   1.00
C15    C     0.45918   0.51116   0.80495   0.00000  Uiso   1.00
C16    C     0.51128   0.55141   0.81343   0.00000  Uiso   1.00
C17    C     0.55092   0.53985   0.81043   0.00000  Uiso   1.00
C18    C     0.42724   0.35460   0.84482   0.00000  Uiso   1.00
C19    C     0.30929   0.87529   0.89874   0.00000  Uiso   1.00
C20    C     0.26921   0.84824   0.78427   0.00000  Uiso   1.00
C21    C     0.35528   0.72056   0.62913   0.00000  Uiso   1.00
C22    C     0.38716   0.69848   0.62773   0.00000  Uiso   1.00
C23    C     0.37616   0.77614   0.64506   0.00000  Uiso   1.00
C24    C     0.48257   0.89480   0.79026   0.00000  Uiso   1.00
C25    C     0.48902   0.94808   0.80504   0.00000  Uiso   1.00
C26    C     0.44861   0.95959   0.81329   0.00000  Uiso   1.00
C27    C     0.46003   0.01076   0.81036   0.00000  Uiso   1.00
C28    C     0.64548   0.07350   0.84536   0.00000  Uiso   1.00
C29    C     0.12436   0.43393   0.89710   0.00000  Uiso   1.00
C30    C     0.15161   0.42172   0.78068   0.00000  Uiso   1.00
C31    C     0.72053   0.36575   0.62939   0.00000  Uiso   1.00
C32    C     0.69833   0.31169   0.62746   0.00000  Uiso   1.00
C33    C     0.77615   0.40045   0.64551   0.00000  Uiso   1.00
C34    C     0.89459   0.41231   0.78945   0.00000  Uiso   1.00
C35    C     0.94800   0.45908   0.80507   0.00000  Uiso   1.00
C36    C     0.95979   0.51111   0.81368   0.00000  Uiso   1.00
C37    C     0.01104   0.55087   0.81049   0.00000  Uiso   1.00
C38    C     0.07306   0.42778   0.84472   0.00000  Uiso   1.00
C39    C     0.43283   0.30931   0.89959   0.00000  Uiso   1.00
C40    C     0.41939   0.26899   0.78611   0.00000  Uiso   1.00
C41    C     0.63429   0.35511   0.62960   0.00000  Uiso   1.00
C42    C     0.68836   0.38711   0.62799   0.00000  Uiso   1.00
C43    C     0.59953   0.37582   0.64567   0.00000  Uiso   1.00
C44    C     0.58753   0.48223   0.78939   0.00000  Uiso   1.00
C45    C     0.54083   0.48885   0.80495   0.00000  Uiso   1.00
C46    C     0.48872   0.44859   0.81343   0.00000  Uiso   1.00
C47    C     0.44908   0.46015   0.81043   0.00000  Uiso   1.00
C48    C     0.57277   0.64540   0.84482   0.00000  Uiso   1.00
C49    C     0.69071   0.12472   0.89874   0.00000  Uiso   1.00
C50    C     0.73079   0.15176   0.78427   0.00000  Uiso   1.00
C51    C     0.64472   0.27945   0.62913   0.00000  Uiso   1.00
C52    C     0.61284   0.30152   0.62773   0.00000  Uiso   1.00
C53    C     0.62384   0.22386   0.64506   0.00000  Uiso   1.00
C54    C     0.51743   0.10520   0.79026   0.00000  Uiso   1.00
C55    C     0.51098   0.05192   0.80504   0.00000  Uiso   1.00
C56    C     0.55140   0.04041   0.81329   0.00000  Uiso   1.00
C57    C     0.53998   0.98924   0.81036   0.00000  Uiso   1.00
C58    C     0.35452   0.92650   0.84536   0.00000  Uiso   1.00
C59    C     0.87564   0.56607   0.89710   0.00000  Uiso   1.00
C60    C     0.84839   0.57828   0.78068   0.00000  Uiso   1.00
C61    C     0.36575   0.72053   0.12940   0.00000  Uiso   1.00
C62    C     0.31169   0.69833   0.12746   0.00000  Uiso   1.00
C63    C     0.40045   0.77615   0.14551   0.00000  Uiso   1.00
C64    C     0.41231   0.89459   0.28945   0.00000  Uiso   1.00
C65    C     0.45908   0.94800   0.30508   0.00000  Uiso   1.00
C66    C     0.51111   0.95979   0.31368   0.00000  Uiso   1.00
C67    C     0.55087   0.01104   0.31049   0.00000  Uiso   1.00
C68    C     0.42778   0.07306   0.34472   0.00000  Uiso   1.00
C69    C     0.30931   0.43283   0.39959   0.00000  Uiso   1.00
C70    C     0.26900   0.41939   0.28611   0.00000  Uiso   1.00
C71    C     0.35511   0.63429   0.12960   0.00000  Uiso   1.00
C72    C     0.38711   0.68836   0.12799   0.00000  Uiso   1.00
C73    C     0.37583   0.59953   0.14568   0.00000  Uiso   1.00
C74    C     0.48223   0.58753   0.28939   0.00000  Uiso   1.00
C75    C     0.48885   0.54083   0.30496   0.00000  Uiso   1.00
C76    C     0.44859   0.48872   0.31343   0.00000  Uiso   1.00
C77    C     0.46015   0.44908   0.31043   0.00000  Uiso   1.00
C78    C     0.64540   0.57277   0.34482   0.00000  Uiso   1.00
C79    C     0.12472   0.69071   0.39874   0.00000  Uiso   1.00
C80    C     0.15176   0.73079   0.28427   0.00000  Uiso   1.00
C81    C     0.27945   0.64472   0.12913   0.00000  Uiso   1.00
C82    C     0.30152   0.61284   0.12773   0.00000  Uiso   1.00
C83    C     0.22386   0.62384   0.14506   0.00000  Uiso   1.00
C84    C     0.10521   0.51743   0.29026   0.00000  Uiso   1.00
C85    C     0.05192   0.51098   0.30504   0.00000  Uiso   1.00
C86    C     0.04041   0.55140   0.31329   0.00000  Uiso   1.00
C87    C     0.98924   0.53998   0.31036   0.00000  Uiso   1.00
C88    C     0.92650   0.35452   0.34536   0.00000  Uiso   1.00
C89    C     0.56607   0.87564   0.39710   0.00000  Uiso   1.00
C90    C     0.57828   0.84839   0.28068   0.00000  Uiso   1.00
C91    C     0.63425   0.27947   0.12940   0.00000  Uiso   1.00
C92    C     0.68831   0.30167   0.12746   0.00000  Uiso   1.00
C93    C     0.59956   0.22385   0.14551   0.00000  Uiso   1.00
C94    C     0.58770   0.10541   0.28945   0.00000  Uiso   1.00
C95    C     0.54093   0.05201   0.30508   0.00000  Uiso   1.00
C96    C     0.48890   0.04021   0.31368   0.00000  Uiso   1.00
C97    C     0.44913   0.98896   0.31049   0.00000  Uiso   1.00
C98    C     0.57222   0.92694   0.34472   0.00000  Uiso   1.00
C99    C     0.69070   0.56717   0.39959   0.00000  Uiso   1.00
C100   C     0.73101   0.58061   0.28611   0.00000  Uiso   1.00
C101   C     0.64490   0.36571   0.12960   0.00000  Uiso   1.00
C102   C     0.61290   0.31164   0.12799   0.00000  Uiso   1.00
C103   C     0.62418   0.40048   0.14568   0.00000  Uiso   1.00
C104   C     0.51777   0.41248   0.28939   0.00000  Uiso   1.00
C105   C     0.51116   0.45918   0.30496   0.00000  Uiso   1.00
C106   C     0.55141   0.51128   0.31343   0.00000  Uiso   1.00
C107   C     0.53985   0.55092   0.31043   0.00000  Uiso   1.00
C108   C     0.35460   0.42724   0.34482   0.00000  Uiso   1.00
C109   C     0.87529   0.30929   0.39874   0.00000  Uiso   1.00
C110   C     0.84824   0.26921   0.28427   0.00000  Uiso   1.00
C111   C     0.72056   0.35528   0.12913   0.00000  Uiso   1.00
C112   C     0.69848   0.38716   0.12773   0.00000  Uiso   1.00
C113   C     0.77614   0.37616   0.14506   0.00000  Uiso   1.00
C114   C     0.89480   0.48257   0.29026   0.00000  Uiso   1.00
C115   C     0.94808   0.48902   0.30504   0.00000  Uiso   1.00
C116   C     0.95959   0.44861   0.31329   0.00000  Uiso   1.00
C117   C     0.01076   0.46003   0.31036   0.00000  Uiso   1.00
C118   C     0.07350   0.64548   0.34536   0.00000  Uiso   1.00
C119   C     0.43393   0.12436   0.39710   0.00000  Uiso   1.00
C120   C     0.42172   0.15161   0.28068   0.00000  Uiso   1.00
N121   N     0.19309   0.61609   0.69486   0.00000  Uiso   1.00
N122   N     0.14231   0.57804   0.71499   0.00000  Uiso   1.00
N123   N     0.38407   0.57688   0.69525   0.00000  Uiso   1.00
N124   N     0.42221   0.56440   0.71533   0.00000  Uiso   1.00
N125   N     0.42346   0.80706   0.69511   0.00000  Uiso   1.00
N126   N     0.43607   0.85776   0.71508   0.00000  Uiso   1.00
N127   N     0.80691   0.38391   0.69486   0.00000  Uiso   1.00
N128   N     0.85770   0.42197   0.71499   0.00000  Uiso   1.00
N129   N     0.61594   0.42312   0.69525   0.00000  Uiso   1.00
N130   N     0.57779   0.43560   0.71533   0.00000  Uiso   1.00
N131   N     0.57654   0.19294   0.69511   0.00000  Uiso   1.00
N132   N     0.56393   0.14224   0.71508   0.00000  Uiso   1.00
N133   N     0.38391   0.80691   0.19486   0.00000  Uiso   1.00
N134   N     0.42197   0.85769   0.21499   0.00000  Uiso   1.00
N135   N     0.42312   0.61594   0.19525   0.00000  Uiso   1.00
N136   N     0.43560   0.57779   0.21533   0.00000  Uiso   1.00
N137   N     0.19294   0.57654   0.19511   0.00000  Uiso   1.00
N138   N     0.14224   0.56393   0.21508   0.00000  Uiso   1.00
N139   N     0.61609   0.19309   0.19486   0.00000  Uiso   1.00
N140   N     0.57804   0.14231   0.21499   0.00000  Uiso   1.00
N141   N     0.57688   0.38407   0.19525   0.00000  Uiso   1.00
N142   N     0.56440   0.42221   0.21533   0.00000  Uiso   1.00
N143   N     0.80706   0.42346   0.19511   0.00000  Uiso   1.00
N144   N     0.85776   0.43607   0.21508   0.00000  Uiso   1.00
O145   O     0.11396   0.63139   0.83351   0.00000  Uiso   1.00
O146   O     0.91844   0.51950   0.82732   0.00000  Uiso   1.00
O147   O     0.36872   0.48255   0.83314   0.00000  Uiso   1.00
O148   O     0.48008   0.39872   0.82627   0.00000  Uiso   1.00
O149   O     0.51776   0.88649   0.83558   0.00000  Uiso   1.00
O150   O     0.60121   0.08191   0.82622   0.00000  Uiso   1.00
O151   O     0.88604   0.36861   0.83351   0.00000  Uiso   1.00
O152   O     0.08156   0.48051   0.82732   0.00000  Uiso   1.00
O153   O     0.63128   0.51746   0.83314   0.00000  Uiso   1.00
O154   O     0.51993   0.60128   0.82627   0.00000  Uiso   1.00
O155   O     0.48225   0.11351   0.83558   0.00000  Uiso   1.00
O156   O     0.39879   0.91809   0.82622   0.00000  Uiso   1.00
O157   O     0.36861   0.88604   0.33351   0.00000  Uiso   1.00
O158   O     0.48051   0.08156   0.32732   0.00000  Uiso   1.00
O159   O     0.51746   0.63128   0.33314   0.00000  Uiso   1.00
O160   O     0.60128   0.51993   0.32627   0.00000  Uiso   1.00
O161   O     0.11351   0.48225   0.33558   0.00000  Uiso   1.00
O162   O     0.91809   0.39879   0.32622   0.00000  Uiso   1.00
O163   O     0.63139   0.11396   0.33351   0.00000  Uiso   1.00
O164   O     0.51950   0.91844   0.32732   0.00000  Uiso   1.00
O165   O     0.48255   0.36872   0.33314   0.00000  Uiso   1.00
O166   O     0.39872   0.48008   0.32627   0.00000  Uiso   1.00
O167   O     0.88649   0.51776   0.33558   0.00000  Uiso   1.00
O168   O     0.08192   0.60121   0.32622   0.00000  Uiso   1.00
H169   H     0.27665   0.70471   0.62981   0.00000  Uiso   1.00
H170   H     0.20964   0.55847   0.62234   0.00000  Uiso   1.00
H171   H     0.13307   0.54053   0.70076   0.00000  Uiso   1.00
H172   H     0.97912   0.40920   0.81085   0.00000  Uiso   1.00
H173   H     0.94127   0.59209   0.70947   0.00000  Uiso   1.00
H174   H     0.95556   0.59221   0.95595   0.00000  Uiso   1.00
H175   H     0.55090   0.68844   0.03896   0.00000  Uiso   1.00
H176   H     0.59613   0.73290   0.64587   0.00000  Uiso   1.00
H177   H     0.57643   0.76333   0.82965   0.00000  Uiso   1.00
H178   H     0.29519   0.57143   0.63078   0.00000  Uiso   1.00
H179   H     0.44153   0.65126   0.62227   0.00000  Uiso   1.00
H180   H     0.45971   0.59281   0.70083   0.00000  Uiso   1.00
H181   H     0.59091   0.56994   0.81071   0.00000  Uiso   1.00
H182   H     0.40728   0.34877   0.70965   0.00000  Uiso   1.00
H183   H     0.40751   0.36371   0.95541   0.00000  Uiso   1.00
H184   H     0.31140   0.86110   0.03791   0.00000  Uiso   1.00
H185   H     0.26742   0.86201   0.64417   0.00000  Uiso   1.00
H186   H     0.23695   0.81147   0.82690   0.00000  Uiso   1.00
H187   H     0.42864   0.72355   0.63017   0.00000  Uiso   1.00
H188   H     0.34923   0.79019   0.62129   0.00000  Uiso   1.00
H189   H     0.40769   0.86679   0.70043   0.00000  Uiso   1.00
H190   H     0.42985   0.02043   0.81074   0.00000  Uiso   1.00
H191   H     0.65126   0.05916   0.71060   0.00000  Uiso   1.00
H192   H     0.63649   0.04485   0.95671   0.00000  Uiso   1.00
H193   H     0.13850   0.44980   0.03689   0.00000  Uiso   1.00
H194   H     0.13796   0.40674   0.63985   0.00000  Uiso   1.00
H195   H     0.18849   0.42647   0.82243   0.00000  Uiso   1.00
H196   H     0.72335   0.29529   0.62981   0.00000  Uiso   1.00
H197   H     0.79036   0.44154   0.62234   0.00000  Uiso   1.00
H198   H     0.86693   0.45948   0.70076   0.00000  Uiso   1.00
H199   H     0.02089   0.59080   0.81085   0.00000  Uiso   1.00
H200   H     0.05874   0.40791   0.70947   0.00000  Uiso   1.00
H201   H     0.04444   0.40779   0.95595   0.00000  Uiso   1.00
H202   H     0.44910   0.31156   0.03896   0.00000  Uiso   1.00
H203   H     0.40388   0.26710   0.64587   0.00000  Uiso   1.00
H204   H     0.42357   0.23667   0.82965   0.00000  Uiso   1.00
H205   H     0.70481   0.42857   0.63078   0.00000  Uiso   1.00
H206   H     0.55847   0.34875   0.62227   0.00000  Uiso   1.00
H207   H     0.54029   0.40719   0.70083   0.00000  Uiso   1.00
H208   H     0.40909   0.43006   0.81071   0.00000  Uiso   1.00
H209   H     0.59272   0.65123   0.70965   0.00000  Uiso   1.00
H210   H     0.59249   0.63629   0.95541   0.00000  Uiso   1.00
H211   H     0.68861   0.13891   0.03791   0.00000  Uiso   1.00
H212   H     0.73259   0.13799   0.64417   0.00000  Uiso   1.00
H213   H     0.76305   0.18853   0.82690   0.00000  Uiso   1.00
H214   H     0.57137   0.27645   0.63017   0.00000  Uiso   1.00
H215   H     0.65078   0.20981   0.62129   0.00000  Uiso   1.00
H216   H     0.59231   0.13321   0.70043   0.00000  Uiso   1.00
H217   H     0.57016   0.97957   0.81074   0.00000  Uiso   1.00
H218   H     0.34874   0.94084   0.71060   0.00000  Uiso   1.00
H219   H     0.36351   0.95515   0.95671   0.00000  Uiso   1.00
H220   H     0.86150   0.55020   0.03689   0.00000  Uiso   1.00
H221   H     0.86203   0.59326   0.63985   0.00000  Uiso   1.00
H222   H     0.81151   0.57353   0.82243   0.00000  Uiso   1.00
H223   H     0.29529   0.72335   0.12981   0.00000  Uiso   1.00
H224   H     0.44154   0.79036   0.12234   0.00000  Uiso   1.00
H225   H     0.45948   0.86693   0.20076   0.00000  Uiso   1.00
H226   H     0.59080   0.02089   0.31085   0.00000  Uiso   1.00
H227   H     0.40791   0.05874   0.20947   0.00000  Uiso   1.00
H228   H     0.40779   0.04444   0.45595   0.00000  Uiso   1.00
H229   H     0.31156   0.44910   0.53896   0.00000  Uiso   1.00
H230   H     0.26710   0.40388   0.14587   0.00000  Uiso   1.00
H231   H     0.23667   0.42357   0.32965   0.00000  Uiso   1.00
H232   H     0.42857   0.70481   0.13078   0.00000  Uiso   1.00
H233   H     0.34875   0.55847   0.12227   0.00000  Uiso   1.00
H234   H     0.40719   0.54029   0.20083   0.00000  Uiso   1.00
H235   H     0.43006   0.40909   0.31071   0.00000  Uiso   1.00
H236   H     0.65123   0.59272   0.20965   0.00000  Uiso   1.00
H237   H     0.63629   0.59249   0.45541   0.00000  Uiso   1.00
H238   H     0.13891   0.68861   0.53791   0.00000  Uiso   1.00
H239   H     0.13799   0.73259   0.14418   0.00000  Uiso   1.00
H240   H     0.18853   0.76305   0.32690   0.00000  Uiso   1.00
H241   H     0.27645   0.57137   0.13017   0.00000  Uiso   1.00
H242   H     0.20981   0.65078   0.12129   0.00000  Uiso   1.00
H243   H     0.13321   0.59231   0.20043   0.00000  Uiso   1.00
H244   H     0.97957   0.57016   0.31074   0.00000  Uiso   1.00
H245   H     0.94084   0.34874   0.21060   0.00000  Uiso   1.00
H246   H     0.95515   0.36351   0.45672   0.00000  Uiso   1.00
H247   H     0.55020   0.86150   0.53689   0.00000  Uiso   1.00
H248   H     0.59327   0.86203   0.13985   0.00000  Uiso   1.00
H249   H     0.57353   0.81151   0.32243   0.00000  Uiso   1.00
H250   H     0.70471   0.27665   0.12981   0.00000  Uiso   1.00
H251   H     0.55847   0.20964   0.12234   0.00000  Uiso   1.00
H252   H     0.54053   0.13307   0.20076   0.00000  Uiso   1.00
H253   H     0.40920   0.97912   0.31085   0.00000  Uiso   1.00
H254   H     0.59209   0.94127   0.20947   0.00000  Uiso   1.00
H255   H     0.59222   0.95556   0.45595   0.00000  Uiso   1.00
H256   H     0.68844   0.55090   0.53896   0.00000  Uiso   1.00
H257   H     0.73290   0.59613   0.14587   0.00000  Uiso   1.00
H258   H     0.76333   0.57643   0.32965   0.00000  Uiso   1.00
H259   H     0.57143   0.29519   0.13078   0.00000  Uiso   1.00
H260   H     0.65126   0.44153   0.12227   0.00000  Uiso   1.00
H261   H     0.59281   0.45971   0.20083   0.00000  Uiso   1.00
H262   H     0.56994   0.59091   0.31071   0.00000  Uiso   1.00
H263   H     0.34877   0.40728   0.20965   0.00000  Uiso   1.00
H264   H     0.36371   0.40751   0.45541   0.00000  Uiso   1.00
H265   H     0.86110   0.31140   0.53791   0.00000  Uiso   1.00
H266   H     0.86201   0.26742   0.14418   0.00000  Uiso   1.00
H267   H     0.81147   0.23695   0.32690   0.00000  Uiso   1.00
H268   H     0.72355   0.42864   0.13017   0.00000  Uiso   1.00
H269   H     0.79019   0.34923   0.12129   0.00000  Uiso   1.00
H270   H     0.86679   0.40769   0.20043   0.00000  Uiso   1.00
H271   H     0.02043   0.42985   0.31074   0.00000  Uiso   1.00
H272   H     0.05916   0.65126   0.21060   0.00000  Uiso   1.00
H273   H     0.04485   0.63649   0.45672   0.00000  Uiso   1.00
H274   H     0.44980   0.13850   0.53689   0.00000  Uiso   1.00
H275   H     0.40674   0.13797   0.13985   0.00000  Uiso   1.00
H276   H     0.42647   0.18849   0.32243   0.00000  Uiso   1.00
loop_
_geom_bond_atom_site_label_1
_geom_bond_atom_site_label_2
_geom_bond_distance
_geom_bond_site_symmetry_2
_ccdc_geom_bond_type
C1     C2      1.414   .     S
C1     C3      1.466   .     S
C1     C12     1.401   .     D
C2     C21     1.404   .     D
C2     H169    1.085   .     S
C3     N121    1.296   .     D
C3     H170    1.098   .     S
C4     C5      1.518   .     S
C4     N122    1.382   .     S
C4     O145    1.244   .     D
C5     C6      1.420   .     S
C5     C37     1.404   .     D
C6     C7      1.399   1_455 D
C6     O152    1.388   .     S
C7     C6      1.399   1_655 D
C7     C35     1.404   .     S
C7     H172    1.082   .     S
C8     C59     1.503   .     S
C8     O146    1.478   .     S
C8     H173    1.096   .     S
C8     H174    1.097   .     S
C9     C10     1.336   .     D
C9     C48     1.502   .     S
C9     H175    1.088   1_556 S
C10    H176    1.086   .     S
C10    H177    1.084   .     S
C11    C12     1.414   .     S
C11    C13     1.463   .     S
C11    C22     1.403   .     D
C12    H178    1.086   .     S
C13    N123    1.298   .     D
C13    H179    1.098   .     S
C14    C15     1.516   .     S
C14    N124    1.383   .     S
C14    O147    1.246   .     D
C15    C16     1.422   .     S
C15    C47     1.405   .     D
C16    C17     1.397   .     D
C16    O154    1.389   .     S
C17    C45     1.405   .     S
C17    H181    1.083   .     S
C18    C39     1.502   .     S
C18    O148    1.479   .     S
C18    H182    1.095   .     S
C18    H183    1.096   .     S
C19    C20     1.337   .     D
C19    C58     1.505   .     S
C19    H184    1.087   1_556 S
C20    H185    1.086   .     S
C20    H186    1.086   .     S
C21    C22     1.411   .     S
C21    C23     1.465   .     S
C22    H187    1.087   .     S
C23    N125    1.299   .     D
C23    H188    1.096   .     S
C24    C25     1.516   .     S
C24    N126    1.384   .     S
C24    O149    1.243   .     D
C25    C26     1.420   .     D
C25    C57     1.407   .     S
C26    C27     1.398   1_565 S
C26    O156    1.391   .     S
C27    C26     1.398   1_545 S
C27    C55     1.407   .     D
C27    H190    1.081   .     S
C28    C49     1.505   .     S
C28    O150    1.478   .     S
C28    H191    1.095   .     S
C28    H192    1.096   .     S
C29    C30     1.335   .     D
C29    C38     1.503   .     S
C29    H193    1.088   1_556 S
C30    H194    1.086   .     S
C30    H195    1.085   .     S
C31    C32     1.414   .     D
C31    C33     1.466   .     S
C31    C42     1.401   .     S
C32    C51     1.404   .     S
C32    H196    1.085   .     S
C33    N127    1.296   .     D
C33    H197    1.098   .     S
C34    C35     1.518   .     S
C34    N128    1.382   .     S
C34    O151    1.244   .     D
C35    C36     1.420   .     D
C36    C37     1.399   1_655 S
C36    O146    1.388   .     S
C37    C36     1.399   1_455 S
C37    H199    1.082   .     S
C38    O152    1.478   .     S
C38    H200    1.096   .     S
C38    H201    1.097   .     S
C39    C40     1.336   .     D
C39    H202    1.088   1_556 S
C40    H203    1.086   .     S
C40    H204    1.084   .     S
C41    C42     1.414   .     D
C41    C43     1.463   .     S
C41    C52     1.403   .     S
C42    H205    1.086   .     S
C43    N129    1.298   .     D
C43    H206    1.098   .     S
C44    C45     1.516   .     S
C44    N130    1.383   .     S
C44    O153    1.246   .     D
C45    C46     1.422   .     D
C46    C47     1.397   .     S
C46    O148    1.389   .     S
C47    H208    1.083   .     S
C48    O154    1.479   .     S
C48    H209    1.095   .     S
C48    H210    1.096   .     S
C49    C50     1.337   .     D
C49    H211    1.087   1_556 S
C50    H212    1.086   .     S
C50    H213    1.086   .     S
C51    C52     1.411   .     D
C51    C53     1.465   .     S
C52    H214    1.087   .     S
C53    N131    1.299   .     D
C53    H215    1.096   .     S
C54    C55     1.516   .     S
C54    N132    1.384   .     S
C54    O155    1.243   .     D
C55    C56     1.420   .     S
C56    C57     1.398   1_545 D
C56    O150    1.391   .     S
C57    C56     1.398   1_565 D
C57    H217    1.081   .     S
C58    O156    1.478   .     S
C58    H218    1.095   .     S
C58    H219    1.096   .     S
C59    C60     1.335   .     D
C59    H220    1.088   1_556 S
C60    H221    1.086   .     S
C60    H222    1.085   .     S
C61    C62     1.414   .     D
C61    C63     1.466   .     S
C61    C72     1.401   .     S
C62    C81     1.404   .     S
C62    H223    1.085   .     S
C63    N133    1.296   .     D
C63    H224    1.098   .     S
C64    C65     1.518   .     S
C64    N134    1.382   .     S
C64    O157    1.244   .     D
C65    C66     1.420   .     S
C65    C97     1.404   .     D
C66    C67     1.399   1_565 D
C66    O164    1.388   .     S
C67    C66     1.399   1_545 D
C67    C95     1.404   .     S
C67    H226    1.082   .     S
C68    C119    1.503   .     S
C68    O158    1.478   .     S
C68    H227    1.096   .     S
C68    H228    1.097   .     S
C69    C70     1.336   .     D
C69    C108    1.502   .     S
C69    H229    1.088   .     S
C70    H230    1.086   .     S
C70    H231    1.084   .     S
C71    C72     1.414   .     D
C71    C73     1.463   .     S
C71    C82     1.403   .     S
C72    H232    1.086   .     S
C73    N135    1.298   .     D
C73    H233    1.098   .     S
C74    C75     1.516   .     S
C74    N136    1.383   .     S
C74    O159    1.246   .     D
C75    C76     1.422   .     S
C75    C107    1.405   .     D
C76    C77     1.397   .     D
C76    O166    1.389   .     S
C77    C105    1.405   .     S
C77    H235    1.083   .     S
C78    C99     1.502   .     S
C78    O160    1.479   .     S
C78    H236    1.095   .     S
C78    H237    1.096   .     S
C79    C80     1.337   .     D
C79    C118    1.505   .     S
C79    H238    1.087   .     S
C80    H239    1.086   .     S
C80    H240    1.086   .     S
C81    C82     1.411   .     D
C81    C83     1.465   .     S
C82    H241    1.087   .     S
C83    N137    1.299   .     D
C83    H242    1.096   .     S
C84    C85     1.516   .     S
C84    N138    1.384   .     S
C84    O161    1.243   .     D
C85    C86     1.420   .     D
C85    C117    1.407   .     S
C86    C87     1.398   1_455 S
C86    O168    1.391   .     S
C87    C86     1.398   1_655 S
C87    C115    1.407   .     D
C87    H244    1.081   .     S
C88    C109    1.505   .     S
C88    O162    1.478   .     S
C88    H245    1.095   .     S
C88    H246    1.096   .     S
C89    C90     1.335   .     D
C89    C98     1.503   .     S
C89    H247    1.088   .     S
C90    H248    1.086   .     S
C90    H249    1.085   .     S
C91    C92     1.414   .     S
C91    C93     1.466   .     S
C91    C102    1.401   .     D
C92    C111    1.404   .     D
C92    H250    1.085   .     S
C93    N139    1.296   .     D
C93    H251    1.098   .     S
C94    C95     1.518   .     S
C94    N140    1.382   .     S
C94    O163    1.244   .     D
C95    C96     1.420   .     D
C96    C97     1.399   1_545 S
C96    O158    1.388   .     S
C97    C96     1.399   1_565 S
C97    H253    1.082   .     S
C98    O164    1.478   .     S
C98    H254    1.096   .     S
C98    H255    1.097   .     S
C99    C100    1.336   .     D
C99    H256    1.088   .     S
C100   H257    1.086   .     S
C100   H258    1.084   .     S
C101   C102    1.414   .     S
C101   C103    1.463   .     S
C101   C112    1.403   .     D
C102   H259    1.086   .     S
C103   N141    1.298   .     D
C103   H260    1.098   .     S
C104   C105    1.516   .     S
C104   N142    1.383   .     S
C104   O165    1.246   .     D
C105   C106    1.422   .     D
C106   C107    1.397   .     S
C106   O160    1.389   .     S
C107   H262    1.083   .     S
C108   O166    1.479   .     S
C108   H263    1.095   .     S
C108   H264    1.096   .     S
C109   C110    1.337   .     D
C109   H265    1.087   .     S
C110   H266    1.086   .     S
C110   H267    1.086   .     S
C111   C112    1.411   .     S
C111   C113    1.465   .     S
C112   H268    1.087   .     S
C113   N143    1.299   .     D
C113   H269    1.096   .     S
C114   C115    1.516   .     S
C114   N144    1.384   .     S
C114   O167    1.243   .     D
C115   C116    1.420   .     S
C116   C117    1.398   1_655 D
C116   O162    1.391   .     S
C117   C116    1.398   1_455 D
C117   H271    1.081   .     S
C118   O168    1.478   .     S
C118   H272    1.095   .     S
C118   H273    1.096   .     S
C119   C120    1.335   .     D
C119   H274    1.088   .     S
C120   H275    1.086   .     S
C120   H276    1.085   .     S
N121   N122    1.382   .     S
N122   H171    1.022   .     S
N123   N124    1.379   .     S
N124   H180    1.023   .     S
N125   N126    1.380   .     S
N126   H189    1.021   .     S
N127   N128    1.382   .     S
N128   H198    1.022   .     S
N129   N130    1.379   .     S
N130   H207    1.023   .     S
N131   N132    1.380   .     S
N132   H216    1.021   .     S
N133   N134    1.382   .     S
N134   H225    1.022   .     S
N135   N136    1.379   .     S
N136   H234    1.023   .     S
N137   N138    1.380   .     S
N138   H243    1.021   .     S
N139   N140    1.382   .     S
N140   H252    1.022   .     S
N141   N142    1.379   .     S
N142   H261    1.023   .     S
N143   N144    1.380   .     S
N144   H270    1.021   .     S
H175   C9      1.088   1_554 S
H184   C19     1.087   1_554 S
H193   C29     1.088   1_554 S
H202   C39     1.088   1_554 S
H211   C49     1.087   1_554 S
H220   C59     1.088   1_554 S
