data_482
_audit_creation_date              2023-09-08
_audit_creation_method            'Materials Studio'
_symmetry_space_group_name_H-M    'P1'
_symmetry_Int_Tables_number       1
_symmetry_cell_setting            triclinic
loop_
_symmetry_equiv_pos_as_xyz
  x,y,z
_cell_length_a                    29.8993
_cell_length_b                    29.8993
_cell_length_c                    3.3970
_cell_angle_alpha                 90.0000
_cell_angle_beta                  90.0000
_cell_angle_gamma                 120.0000
loop_
_atom_site_label
_atom_site_type_symbol
_atom_site_fract_x
_atom_site_fract_y
_atom_site_fract_z
_atom_site_U_iso_or_equiv
_atom_site_adp_type
_atom_site_occupancy
C1     C     0.94639   0.46221   0.58564   0.00000  Uiso   1.00
C2     C     0.98141   0.44495   0.60325   0.00000  Uiso   1.00
C3     C     0.03394   0.47889   0.63797   0.00000  Uiso   1.00
C4     C     0.89151   0.42386   0.54649   0.00000  Uiso   1.00
N5     N     0.85778   0.43540   0.37444   0.00000  Uiso   1.00
N6     N     0.80618   0.39855   0.35326   0.00000  Uiso   1.00
C7     C     0.77226   0.40985   0.24224   0.00000  Uiso   1.00
C8     C     0.71838   0.37048   0.22885   0.00000  Uiso   1.00
O9     O     0.87632   0.38068   0.66582   0.00000  Uiso   1.00
C10    C     0.70359   0.31873   0.22693   0.00000  Uiso   1.00
O11    O     0.92940   0.53214   0.66355   0.00000  Uiso   1.00
C12    C     0.93988   0.57824   0.46821   0.00000  Uiso   1.00
H13    H     0.96750   0.40459   0.58327   0.00000  Uiso   1.00
H14    H     0.87008   0.47051   0.23943   0.00000  Uiso   1.00
H15    H     0.78324   0.44889   0.17442   0.00000  Uiso   1.00
H16    H     0.69278   0.42484   0.22888   0.00000  Uiso   1.00
C17    C     0.05193   0.53165   0.62441   0.00000  Uiso   1.00
C18    C     0.01679   0.54879   0.63252   0.00000  Uiso   1.00
C19    C     0.96423   0.51484   0.61296   0.00000  Uiso   1.00
C20    C     0.10698   0.57024   0.61614   0.00000  Uiso   1.00
O21    O     0.12106   0.61245   0.75277   0.00000  Uiso   1.00
N22    N     0.14205   0.56029   0.44821   0.00000  Uiso   1.00
N23    N     0.19345   0.59792   0.44342   0.00000  Uiso   1.00
C24    C     0.22851   0.58804   0.33663   0.00000  Uiso   1.00
C25    C     0.28200   0.62848   0.33164   0.00000  Uiso   1.00
C26    C     0.29537   0.67986   0.33025   0.00000  Uiso   1.00
O27    O     0.06899   0.46158   0.67753   0.00000  Uiso   1.00
C28    C     0.05273   0.41315   0.85645   0.00000  Uiso   1.00
H29    H     0.03056   0.58906   0.66127   0.00000  Uiso   1.00
H30    H     0.13093   0.52628   0.29832   0.00000  Uiso   1.00
H31    H     0.21867   0.54950   0.26153   0.00000  Uiso   1.00
H32    H     0.30972   0.57581   0.32993   0.00000  Uiso   1.00
H33    H     0.97330   0.59338   0.26864   0.00000  Uiso   1.00
H34    H     0.94654   0.60811   0.68654   0.00000  Uiso   1.00
H35    H     0.90595   0.57071   0.29285   0.00000  Uiso   1.00
H36    H     0.08468   0.41596   1.03474   0.00000  Uiso   1.00
H37    H     0.04353   0.38345   0.63042   0.00000  Uiso   1.00
H38    H     0.01919   0.40079   1.05018   0.00000  Uiso   1.00
C39    C     0.53779   0.48418   0.58564   0.00000  Uiso   1.00
C40    C     0.55505   0.53646   0.60325   0.00000  Uiso   1.00
C41    C     0.52111   0.55505   0.63797   0.00000  Uiso   1.00
C42    C     0.57614   0.46765   0.54649   0.00000  Uiso   1.00
N43    N     0.56460   0.42238   0.37444   0.00000  Uiso   1.00
N44    N     0.60145   0.40763   0.35326   0.00000  Uiso   1.00
C45    C     0.59015   0.36241   0.24224   0.00000  Uiso   1.00
C46    C     0.62952   0.34790   0.22885   0.00000  Uiso   1.00
O47    O     0.61932   0.49564   0.66582   0.00000  Uiso   1.00
C48    C     0.68127   0.38486   0.22693   0.00000  Uiso   1.00
O49    O     0.46786   0.39726   0.66355   0.00000  Uiso   1.00
C50    C     0.42176   0.36164   0.46821   0.00000  Uiso   1.00
H51    H     0.59541   0.56291   0.58327   0.00000  Uiso   1.00
H52    H     0.52949   0.39957   0.23943   0.00000  Uiso   1.00
H53    H     0.55111   0.33435   0.17442   0.00000  Uiso   1.00
H54    H     0.57516   0.26794   0.22888   0.00000  Uiso   1.00
C55    C     0.46835   0.52028   0.62441   0.00000  Uiso   1.00
C56    C     0.45121   0.46800   0.63252   0.00000  Uiso   1.00
C57    C     0.48516   0.44939   0.61296   0.00000  Uiso   1.00
C58    C     0.42976   0.53674   0.61614   0.00000  Uiso   1.00
O59    O     0.38755   0.50861   0.75277   0.00000  Uiso   1.00
N60    N     0.43971   0.58176   0.44821   0.00000  Uiso   1.00
N61    N     0.40208   0.59553   0.44342   0.00000  Uiso   1.00
C62    C     0.41196   0.64047   0.33663   0.00000  Uiso   1.00
C63    C     0.37152   0.65352   0.33164   0.00000  Uiso   1.00
C64    C     0.32014   0.61551   0.33025   0.00000  Uiso   1.00
O65    O     0.53842   0.60741   0.67753   0.00000  Uiso   1.00
C66    C     0.58685   0.63958   0.85645   0.00000  Uiso   1.00
H67    H     0.41094   0.44150   0.66127   0.00000  Uiso   1.00
H68    H     0.47372   0.60465   0.29832   0.00000  Uiso   1.00
H69    H     0.45050   0.66917   0.26153   0.00000  Uiso   1.00
H70    H     0.42419   0.73391   0.32993   0.00000  Uiso   1.00
H71    H     0.40662   0.37992   0.26864   0.00000  Uiso   1.00
H72    H     0.39189   0.33843   0.68654   0.00000  Uiso   1.00
H73    H     0.42929   0.33524   0.29285   0.00000  Uiso   1.00
H74    H     0.58404   0.66872   1.03474   0.00000  Uiso   1.00
H75    H     0.61655   0.66008   0.63042   0.00000  Uiso   1.00
H76    H     0.59921   0.61840   1.05018   0.00000  Uiso   1.00
C77    C     0.51582   0.05361   0.58564   0.00000  Uiso   1.00
C78    C     0.46354   0.01859   0.60325   0.00000  Uiso   1.00
C79    C     0.44495   0.96606   0.63797   0.00000  Uiso   1.00
C80    C     0.53235   0.10849   0.54649   0.00000  Uiso   1.00
N81    N     0.57762   0.14222   0.37444   0.00000  Uiso   1.00
N82    N     0.59237   0.19382   0.35326   0.00000  Uiso   1.00
C83    C     0.63759   0.22774   0.24224   0.00000  Uiso   1.00
C84    C     0.65210   0.28162   0.22885   0.00000  Uiso   1.00
O85    O     0.50436   0.12368   0.66582   0.00000  Uiso   1.00
C86    C     0.61514   0.29641   0.22693   0.00000  Uiso   1.00
O87    O     0.60274   0.07060   0.66355   0.00000  Uiso   1.00
C88    C     0.63836   0.06012   0.46821   0.00000  Uiso   1.00
H89    H     0.43709   0.03250   0.58327   0.00000  Uiso   1.00
H90    H     0.60043   0.12992   0.23943   0.00000  Uiso   1.00
H91    H     0.66565   0.21676   0.17442   0.00000  Uiso   1.00
H92    H     0.73206   0.30722   0.22888   0.00000  Uiso   1.00
C93    C     0.47972   0.94807   0.62441   0.00000  Uiso   1.00
C94    C     0.53200   0.98321   0.63252   0.00000  Uiso   1.00
C95    C     0.55061   0.03577   0.61296   0.00000  Uiso   1.00
C96    C     0.46326   0.89302   0.61614   0.00000  Uiso   1.00
O97    O     0.49139   0.87894   0.75277   0.00000  Uiso   1.00
N98    N     0.41824   0.85795   0.44821   0.00000  Uiso   1.00
N99    N     0.40447   0.80655   0.44342   0.00000  Uiso   1.00
C100   C     0.35953   0.77149   0.33663   0.00000  Uiso   1.00
C101   C     0.34648   0.71800   0.33164   0.00000  Uiso   1.00
C102   C     0.38449   0.70463   0.33025   0.00000  Uiso   1.00
O103   O     0.39259   0.93101   0.67753   0.00000  Uiso   1.00
C104   C     0.36042   0.94727   0.85645   0.00000  Uiso   1.00
H105   H     0.55850   0.96944   0.66127   0.00000  Uiso   1.00
H106   H     0.39535   0.86907   0.29832   0.00000  Uiso   1.00
H107   H     0.33083   0.78133   0.26153   0.00000  Uiso   1.00
H108   H     0.26609   0.69028   0.32993   0.00000  Uiso   1.00
H109   H     0.62008   0.02670   0.26864   0.00000  Uiso   1.00
H110   H     0.66157   0.05346   0.68654   0.00000  Uiso   1.00
H111   H     0.66476   0.09405   0.29285   0.00000  Uiso   1.00
H112   H     0.33128   0.91532   1.03474   0.00000  Uiso   1.00
H113   H     0.33992   0.95647   0.63042   0.00000  Uiso   1.00
H114   H     0.38160   0.98081   1.05018   0.00000  Uiso   1.00
loop_
_geom_bond_atom_site_label_1
_geom_bond_atom_site_label_2
_geom_bond_distance
_geom_bond_site_symmetry_2
_ccdc_geom_bond_type
C1     C2      1.381   .     S
C1     C4      1.464   .     S
C1     C19     1.389   .     D
C2     C3      1.384   1_655 D
C2     H13     1.064   .     S
C3     C2      1.384   1_455 D
C3     C17     1.390   .     S
C3     O27     1.388   .     S
C4     N5      1.351   .     S
C4     O9      1.205   .     D
N5     N6      1.378   .     S
N5     H14     1.030   .     S
N6     C7      1.276   .     D
C7     C8      1.445   .     S
C7     H15     1.068   .     S
C8     C10     1.380   .     S
C8     C48     1.376   .     D
C10    C84     1.376   .     D
C10    H92     1.066   .     S
O11    C12     1.417   .     S
O11    C19     1.386   .     S
C12    H33     1.100   .     S
C12    H34     1.100   .     S
C12    H35     1.098   .     S
H16    C48     1.066   .     S
C17    C18     1.380   .     D
C17    C20     1.464   .     S
C18    C19     1.382   1_455 S
C18    H29     1.064   .     S
C19    C18     1.382   1_655 S
C20    O21     1.206   .     D
C20    N22     1.351   .     S
N22    N23     1.378   .     S
N22    H30     1.032   .     S
N23    C24     1.276   .     D
C24    C25     1.444   .     S
C24    H31     1.068   .     S
C25    C26     1.380   .     S
C25    C64     1.376   .     D
C26    C101    1.376   .     D
C26    H108    1.066   .     S
O27    C28     1.414   .     S
C28    H36     1.098   .     S
C28    H37     1.100   .     S
C28    H38     1.098   .     S
H32    C64     1.066   .     S
C39    C40     1.381   .     S
C39    C42     1.464   .     S
C39    C57     1.389   .     D
C40    C41     1.384   .     D
C40    H51     1.064   .     S
C41    C55     1.390   .     S
C41    O65     1.388   .     S
C42    N43     1.351   .     S
C42    O47     1.205   .     D
N43    N44     1.378   .     S
N43    H52     1.030   .     S
N44    C45     1.276   .     D
C45    C46     1.445   .     S
C45    H53     1.068   .     S
C46    C48     1.380   .     S
C46    C86     1.376   .     D
O49    C50     1.417   .     S
O49    C57     1.386   .     S
C50    H71     1.100   .     S
C50    H72     1.100   .     S
C50    H73     1.098   .     S
H54    C86     1.066   .     S
C55    C56     1.380   .     D
C55    C58     1.464   .     S
C56    C57     1.382   .     S
C56    H67     1.064   .     S
C58    O59     1.206   .     D
C58    N60     1.351   .     S
N60    N61     1.378   .     S
N60    H68     1.032   .     S
N61    C62     1.276   .     D
C62    C63     1.444   .     S
C62    H69     1.068   .     S
C63    C64     1.380   .     S
C63    C102    1.376   .     D
O65    C66     1.414   .     S
C66    H74     1.098   .     S
C66    H75     1.100   .     S
C66    H76     1.098   .     S
H70    C102    1.066   .     S
C77    C78     1.381   .     S
C77    C80     1.464   .     S
C77    C95     1.389   .     D
C78    C79     1.384   1_545 D
C78    H89     1.064   .     S
C79    C78     1.384   1_565 D
C79    C93     1.390   .     S
C79    O103    1.388   .     S
C80    N81     1.351   .     S
C80    O85     1.205   .     D
N81    N82     1.378   .     S
N81    H90     1.030   .     S
N82    C83     1.276   .     D
C83    C84     1.445   .     S
C83    H91     1.068   .     S
C84    C86     1.380   .     S
O87    C88     1.417   .     S
O87    C95     1.386   .     S
C88    H109    1.100   .     S
C88    H110    1.100   .     S
C88    H111    1.098   .     S
C93    C94     1.380   .     D
C93    C96     1.464   .     S
C94    C95     1.382   1_565 S
C94    H105    1.064   .     S
C95    C94     1.382   1_545 S
C96    O97     1.206   .     D
C96    N98     1.351   .     S
N98    N99     1.378   .     S
N98    H106    1.032   .     S
N99    C100    1.276   .     D
C100   C101    1.444   .     S
C100   H107    1.068   .     S
C101   C102    1.380   .     S
O103   C104    1.414   .     S
C104   H112    1.098   .     S
C104   H113    1.100   .     S
C104   H114    1.098   .     S
