data_483
_audit_creation_date              2023-09-08
_audit_creation_method            'Materials Studio'
_symmetry_space_group_name_H-M    'P1'
_symmetry_Int_Tables_number       1
_symmetry_cell_setting            triclinic
loop_
_symmetry_equiv_pos_as_xyz
  x,y,z
_cell_length_a                    30.2682
_cell_length_b                    30.2382
_cell_length_c                    3.7802
_cell_angle_alpha                 90.1812
_cell_angle_beta                  89.8872
_cell_angle_gamma                 120.0587
loop_
_atom_site_label
_atom_site_type_symbol
_atom_site_fract_x
_atom_site_fract_y
_atom_site_fract_z
_atom_site_U_iso_or_equiv
_atom_site_adp_type
_atom_site_occupancy
C1     C     0.94774   0.46069   0.53921   0.00000  Uiso   1.00
C2     C     0.53927   0.48780   0.54180   0.00000  Uiso   1.00
C3     C     0.51282   0.05168   0.53545   0.00000  Uiso   1.00
C4     C     0.98504   0.44895   0.42963   0.00000  Uiso   1.00
C5     C     0.55063   0.53629   0.42238   0.00000  Uiso   1.00
C6     C     0.46415   0.01417   0.42046   0.00000  Uiso   1.00
C7     C     0.03683   0.48618   0.42490   0.00000  Uiso   1.00
C8     C     0.51307   0.55032   0.40990   0.00000  Uiso   1.00
C9     C     0.45011   0.96255   0.41010   0.00000  Uiso   1.00
C10    C     0.89341   0.41637   0.55284   0.00000  Uiso   1.00
C11    C     0.58384   0.47837   0.56858   0.00000  Uiso   1.00
C12    C     0.52206   0.10575   0.54925   0.00000  Uiso   1.00
C13    C     0.77468   0.40455   0.30683   0.00000  Uiso   1.00
C14    C     0.59601   0.37130   0.32011   0.00000  Uiso   1.00
C15    C     0.62935   0.22543   0.32019   0.00000  Uiso   1.00
C16    C     0.71961   0.36815   0.29827   0.00000  Uiso   1.00
C17    C     0.63202   0.35217   0.30344   0.00000  Uiso   1.00
C18    C     0.64798   0.28047   0.30344   0.00000  Uiso   1.00
C19    C     0.70071   0.31492   0.29828   0.00000  Uiso   1.00
C20    C     0.68523   0.38645   0.29784   0.00000  Uiso   1.00
C21    C     0.61368   0.29937   0.30164   0.00000  Uiso   1.00
C22    C     0.05231   0.53667   0.53175   0.00000  Uiso   1.00
C23    C     0.46283   0.51550   0.52041   0.00000  Uiso   1.00
C24    C     0.48505   0.94732   0.51948   0.00000  Uiso   1.00
C25    C     0.01500   0.54840   0.64160   0.00000  Uiso   1.00
C26    C     0.45144   0.46694   0.63808   0.00000  Uiso   1.00
C27    C     0.53368   0.98482   0.63534   0.00000  Uiso   1.00
C28    C     0.96329   0.51109   0.64895   0.00000  Uiso   1.00
C29    C     0.48896   0.45289   0.65073   0.00000  Uiso   1.00
C30    C     0.54773   0.03648   0.64575   0.00000  Uiso   1.00
C31    C     0.10649   0.58135   0.51750   0.00000  Uiso   1.00
C32    C     0.41829   0.52513   0.50327   0.00000  Uiso   1.00
C33    C     0.47552   0.89312   0.50283   0.00000  Uiso   1.00
C34    C     0.22557   0.59475   0.77227   0.00000  Uiso   1.00
C35    C     0.40502   0.63040   0.77793   0.00000  Uiso   1.00
C36    C     0.36981   0.77457   0.77169   0.00000  Uiso   1.00
C37    C     0.28043   0.63168   0.79526   0.00000  Uiso   1.00
C38    C     0.36829   0.64856   0.79757   0.00000  Uiso   1.00
C39    C     0.35154   0.71964   0.79561   0.00000  Uiso   1.00
C40    C     0.29888   0.68484   0.79840   0.00000  Uiso   1.00
C41    C     0.31519   0.61384   0.79911   0.00000  Uiso   1.00
C42    C     0.38618   0.70122   0.80028   0.00000  Uiso   1.00
C43    C     0.57352   0.63346   0.15715   0.00000  Uiso   1.00
C44    C     0.36657   0.93961   0.16512   0.00000  Uiso   1.00
C45    C     0.05954   0.42482   0.18747   0.00000  Uiso   1.00
C46    C     0.42828   0.36949   0.89987   0.00000  Uiso   1.00
C47    C     0.63099   0.05979   0.89912   0.00000  Uiso   1.00
C48    C     0.94059   0.57179   0.89962   0.00000  Uiso   1.00
N49    N     0.85703   0.42689   0.41733   0.00000  Uiso   1.00
N50    N     0.57411   0.43162   0.43197   0.00000  Uiso   1.00
N51    N     0.56963   0.14295   0.42722   0.00000  Uiso   1.00
N52    N     0.80630   0.39051   0.41425   0.00000  Uiso   1.00
N53    N     0.61039   0.41711   0.42983   0.00000  Uiso   1.00
N54    N     0.58321   0.19349   0.41860   0.00000  Uiso   1.00
N55    N     0.14331   0.57119   0.64907   0.00000  Uiso   1.00
N56    N     0.42832   0.57163   0.64598   0.00000  Uiso   1.00
N57    N     0.42878   0.85657   0.64086   0.00000  Uiso   1.00
N58    N     0.19372   0.60845   0.66433   0.00000  Uiso   1.00
N59    N     0.39146   0.58530   0.65806   0.00000  Uiso   1.00
N60    N     0.41514   0.80601   0.65617   0.00000  Uiso   1.00
O61    O     0.88368   0.37445   0.66985   0.00000  Uiso   1.00
O62    O     0.62490   0.51079   0.69683   0.00000  Uiso   1.00
O63    O     0.48842   0.11435   0.65155   0.00000  Uiso   1.00
O64    O     0.92494   0.52074   0.76740   0.00000  Uiso   1.00
O65    O     0.47957   0.40531   0.77543   0.00000  Uiso   1.00
O66    O     0.59553   0.07508   0.76568   0.00000  Uiso   1.00
O67    O     0.11565   0.62334   0.40612   0.00000  Uiso   1.00
O68    O     0.37679   0.49307   0.37932   0.00000  Uiso   1.00
O69    O     0.50786   0.88373   0.38379   0.00000  Uiso   1.00
O70    O     0.07523   0.47624   0.31200   0.00000  Uiso   1.00
O71    O     0.52241   0.59798   0.28664   0.00000  Uiso   1.00
O72    O     0.40236   0.92413   0.28841   0.00000  Uiso   1.00
H73    H     0.97179   0.40998   0.34763   0.00000  Uiso   1.00
H74    H     0.58946   0.56198   0.33907   0.00000  Uiso   1.00
H75    H     0.43836   0.02719   0.33859   0.00000  Uiso   1.00
H76    H     0.86849   0.46273   0.32502   0.00000  Uiso   1.00
H77    H     0.53868   0.40746   0.33187   0.00000  Uiso   1.00
H78    H     0.59532   0.13226   0.35188   0.00000  Uiso   1.00
H79    H     0.78756   0.44419   0.22904   0.00000  Uiso   1.00
H80    H     0.55625   0.34475   0.24309   0.00000  Uiso   1.00
H81    H     0.65673   0.21281   0.25448   0.00000  Uiso   1.00
H82    H     0.69903   0.42718   0.29531   0.00000  Uiso   1.00
H83    H     0.57299   0.27236   0.30289   0.00000  Uiso   1.00
H84    H     0.72764   0.30119   0.29627   0.00000  Uiso   1.00
H85    H     0.02822   0.58740   0.72208   0.00000  Uiso   1.00
H86    H     0.41262   0.44127   0.72186   0.00000  Uiso   1.00
H87    H     0.55951   0.97188   0.71770   0.00000  Uiso   1.00
H88    H     0.13239   0.53507   0.73246   0.00000  Uiso   1.00
H89    H     0.46366   0.59551   0.74865   0.00000  Uiso   1.00
H90    H     0.40446   0.86798   0.73561   0.00000  Uiso   1.00
H91    H     0.21309   0.55484   0.84006   0.00000  Uiso   1.00
H92    H     0.44458   0.65720   0.85770   0.00000  Uiso   1.00
H93    H     0.34290   0.78749   0.84477   0.00000  Uiso   1.00
H94    H     0.30180   0.57319   0.79789   0.00000  Uiso   1.00
H95    H     0.42681   0.72848   0.80014   0.00000  Uiso   1.00
H96    H     0.27167   0.69823   0.79615   0.00000  Uiso   1.00
H97    H     0.57145   0.66617   0.05845   0.00000  Uiso   1.00
H98    H     0.33393   0.90476   0.06493   0.00000  Uiso   1.00
H99    H     0.09462   0.42620   0.10298   0.00000  Uiso   1.00
H100   H     0.58424   0.61612  -0.05547   0.00000  Uiso   1.00
H101   H     0.38354   0.96801   0.95505   0.00000  Uiso   1.00
H102   H     0.03303   0.41436   0.96585   0.00000  Uiso   1.00
H103   H     0.43044   0.33688  -0.00067   0.00000  Uiso   1.00
H104   H     0.64322   0.04344   0.68828   0.00000  Uiso   1.00
H105   H     0.95704   0.60014   0.68827   0.00000  Uiso   1.00
H106   H     0.40060   0.35740   0.68388   0.00000  Uiso   1.00
H107   H     0.61355   0.03206   0.11249   0.00000  Uiso   1.00
H108   H     0.96837   0.58226   0.11299   0.00000  Uiso   1.00
H109   H     0.60165   0.64554   0.37015   0.00000  Uiso   1.00
H110   H     0.41697   0.38656   0.11098   0.00000  Uiso   1.00
H111   H     0.35455   0.95519   0.38224   0.00000  Uiso   1.00
H112   H     0.04161   0.39685   0.39953   0.00000  Uiso   1.00
H113   H     0.66356   0.09486  -0.00280   0.00000  Uiso   1.00
H114   H     0.90573   0.56968  -0.00250   0.00000  Uiso   1.00
loop_
_geom_bond_atom_site_label_1
_geom_bond_atom_site_label_2
_geom_bond_distance
_geom_bond_site_symmetry_2
_ccdc_geom_bond_type
C1     C4      1.404   .     S
C1     C10     1.515   .     S
C1     C28     1.412   .     D
C2     C5      1.404   .     S
C2     C11     1.516   .     S
C2     C29     1.412   .     D
C3     C6      1.404   .     S
C3     C12     1.515   .     S
C3     C30     1.411   .     D
C4     C7      1.399   1_655 D
C4     H73     1.082   .     S
C5     C8      1.399   .     D
C5     H74     1.081   .     S
C6     C9      1.398   1_545 D
C6     H75     1.082   .     S
C7     C4      1.399   1_455 D
C7     C22     1.412   .     S
C7     O70     1.404   .     S
C8     C23     1.411   .     S
C8     O71     1.403   .     S
C9     C6      1.398   1_565 D
C9     C24     1.412   .     S
C9     O72     1.403   .     S
C10    N49     1.389   .     S
C10    O61     1.232   .     D
C11    N50     1.389   .     S
C11    O62     1.233   .     D
C12    N51     1.389   .     S
C12    O63     1.232   .     D
C13    C16     1.467   .     S
C13    N52     1.293   .     D
C13    H79     1.099   .     S
C14    C17     1.469   .     S
C14    N53     1.294   .     D
C14    H80     1.100   .     S
C15    C18     1.467   .     S
C15    N54     1.293   .     D
C15    H81     1.100   .     S
C16    C19     1.413   .     D
C16    C20     1.402   .     S
C17    C20     1.413   .     D
C17    C21     1.403   .     S
C18    C19     1.403   .     S
C18    C21     1.414   .     D
C19    H84     1.084   .     S
C20    H82     1.084   .     S
C21    H83     1.085   .     S
C22    C25     1.404   .     D
C22    C31     1.516   .     S
C23    C26     1.403   .     D
C23    C32     1.517   .     S
C24    C27     1.404   .     D
C24    C33     1.516   .     S
C25    C28     1.398   1_455 S
C25    H85     1.081   .     S
C26    C29     1.399   .     S
C26    H86     1.082   .     S
C27    C30     1.399   1_565 S
C27    H87     1.081   .     S
C28    C25     1.398   1_655 S
C28    O64     1.403   .     S
C29    O65     1.403   .     S
C30    C27     1.399   1_545 S
C30    O66     1.403   .     S
C31    N55     1.389   .     S
C31    O67     1.231   .     D
C32    N56     1.389   .     S
C32    O68     1.232   .     D
C33    N57     1.389   .     S
C33    O69     1.232   .     D
C34    C37     1.468   .     S
C34    N58     1.292   .     D
C34    H91     1.100   .     S
C35    C38     1.468   .     S
C35    N59     1.292   .     D
C35    H92     1.100   .     S
C36    C39     1.467   .     S
C36    N60     1.293   .     D
C36    H93     1.100   .     S
C37    C40     1.413   .     S
C37    C41     1.402   .     D
C38    C41     1.412   .     S
C38    C42     1.402   .     D
C39    C40     1.403   .     D
C39    C42     1.412   .     S
C40    H96     1.085   .     S
C41    H94     1.084   .     S
C42    H95     1.085   .     S
C43    O71     1.457   .     S
C43    H97     1.089   .     S
C43    H100    1.092   .     S
C43    H109    1.094   .     S
C44    O72     1.456   .     S
C44    H98     1.089   .     S
C44    H101    1.092   1_554 S
C44    H111    1.094   .     S
C45    O70     1.456   .     S
C45    H99     1.089   .     S
C45    H102    1.092   1_554 S
C45    H112    1.093   .     S
C46    O65     1.456   .     S
C46    H103    1.089   1_556 S
C46    H106    1.094   .     S
C46    H110    1.093   1_556 S
C47    O66     1.456   .     S
C47    H104    1.094   .     S
C47    H107    1.092   1_556 S
C47    H113    1.089   1_556 S
C48    O64     1.456   .     S
C48    H105    1.094   .     S
C48    H108    1.092   1_556 S
C48    H114    1.089   1_556 S
N49    N52     1.370   .     S
N49    H76     1.021   .     S
N50    N53     1.372   .     S
N50    H77     1.021   .     S
N51    N54     1.370   .     S
N51    H78     1.020   .     S
N55    N58     1.371   .     S
N55    H88     1.021   .     S
N56    N59     1.371   .     S
N56    H89     1.021   .     S
N57    N60     1.371   .     S
N57    H90     1.021   .     S
H101   C44     1.092   1_556 S
H102   C45     1.092   1_556 S
H103   C46     1.089   1_554 S
H107   C47     1.092   1_554 S
H108   C48     1.092   1_554 S
H110   C46     1.093   1_554 S
H113   C47     1.089   1_554 S
H114   C48     1.089   1_554 S
