data_484
_audit_creation_date              2023-09-08
_audit_creation_method            'Materials Studio'
_symmetry_space_group_name_H-M    'P1'
_symmetry_Int_Tables_number       1
_symmetry_cell_setting            triclinic
loop_
_symmetry_equiv_pos_as_xyz
  x,y,z
_cell_length_a                    29.3729
_cell_length_b                    29.3729
_cell_length_c                    3.4420
_cell_angle_alpha                 90.0000
_cell_angle_beta                  90.0000
_cell_angle_gamma                 120.0000
loop_
_atom_site_label
_atom_site_type_symbol
_atom_site_fract_x
_atom_site_fract_y
_atom_site_fract_z
_atom_site_U_iso_or_equiv
_atom_site_adp_type
_atom_site_occupancy
C1     C     0.94721   0.46458   0.56104   0.00000  Uiso   1.00
C2     C     0.98289   0.44789   0.54619   0.00000  Uiso   1.00
C3     C     0.03565   0.48271   0.52977   0.00000  Uiso   1.00
C4     C     0.89224   0.42563   0.59630   0.00000  Uiso   1.00
N5     N     0.85823   0.43663   0.77272   0.00000  Uiso   1.00
N6     N     0.80651   0.39943   0.79482   0.00000  Uiso   1.00
C7     C     0.77250   0.41055   0.91157   0.00000  Uiso   1.00
C8     C     0.71851   0.37085   0.92688   0.00000  Uiso   1.00
O9     O     0.87730   0.38251   0.47226   0.00000  Uiso   1.00
C10    C     0.70397   0.31894   0.92902   0.00000  Uiso   1.00
O11    O     0.92813   0.53333   0.48090   0.00000  Uiso   1.00
C12    C     0.94412   0.58273   0.31728   0.00000  Uiso   1.00
H13    H     0.96920   0.40734   0.55305   0.00000  Uiso   1.00
H14    H     0.87055   0.47161   0.91209   0.00000  Uiso   1.00
H15    H     0.78348   0.44969   0.98262   0.00000  Uiso   1.00
H16    H     0.69241   0.42516   0.92666   0.00000  Uiso   1.00
C17    C     0.05279   0.53542   0.56104   0.00000  Uiso   1.00
C18    C     0.01711   0.55211   0.54619   0.00000  Uiso   1.00
C19    C     0.96435   0.51729   0.52977   0.00000  Uiso   1.00
C20    C     0.10776   0.57437   0.59630   0.00000  Uiso   1.00
O21    O     0.12270   0.61749   0.47226   0.00000  Uiso   1.00
N22    N     0.14177   0.56337   0.77272   0.00000  Uiso   1.00
N23    N     0.19349   0.60057   0.79482   0.00000  Uiso   1.00
C24    C     0.22750   0.58945   0.91157   0.00000  Uiso   1.00
C25    C     0.28149   0.62915   0.92688   0.00000  Uiso   1.00
C26    C     0.29603   0.68106   0.92902   0.00000  Uiso   1.00
O27    O     0.07187   0.46667   0.48090   0.00000  Uiso   1.00
C28    C     0.05588   0.41727   0.31728   0.00000  Uiso   1.00
H29    H     0.03079   0.59266   0.55305   0.00000  Uiso   1.00
H30    H     0.12945   0.52839   0.91209   0.00000  Uiso   1.00
H31    H     0.21652   0.55031   0.98262   0.00000  Uiso   1.00
H32    H     0.30759   0.57484   0.92666   0.00000  Uiso   1.00
C33    C     0.58556   0.68856   0.18808   0.00000  Uiso   1.00
C34    C     0.63907   0.72938   0.05535   0.00000  Uiso   1.00
C35    C     0.41444   0.31144   0.18808   0.00000  Uiso   1.00
C36    C     0.36093   0.27062   0.05535   0.00000  Uiso   1.00
H37    H     0.97001   0.58916   0.07149   0.00000  Uiso   1.00
H38    H     0.96763   0.61433   0.51796   0.00000  Uiso   1.00
H39    H     0.02999   0.41084   0.07149   0.00000  Uiso   1.00
H40    H     0.03237   0.38567   0.51796   0.00000  Uiso   1.00
H41    H     0.57334   0.70648   0.41110   0.00000  Uiso   1.00
H42    H     0.55589   0.67840  -0.03559   0.00000  Uiso   1.00
H43    H     0.65836   0.71287  -0.11651   0.00000  Uiso   1.00
H44    H     0.66473   0.74911   0.30537   0.00000  Uiso   1.00
H45    H     0.63630   0.75937  -0.11305   0.00000  Uiso   1.00
H46    H     0.42666   0.29352   0.41110   0.00000  Uiso   1.00
H47    H     0.44411   0.32160  -0.03559   0.00000  Uiso   1.00
H48    H     0.36370   0.24063  -0.11305   0.00000  Uiso   1.00
H49    H     0.34164   0.28713  -0.11651   0.00000  Uiso   1.00
H50    H     0.33527   0.25089   0.30537   0.00000  Uiso   1.00
C51    C     0.53542   0.48263   0.56104   0.00000  Uiso   1.00
C52    C     0.55211   0.53500   0.54619   0.00000  Uiso   1.00
C53    C     0.51729   0.55294   0.52977   0.00000  Uiso   1.00
C54    C     0.57437   0.46661   0.59630   0.00000  Uiso   1.00
N55    N     0.56337   0.42160   0.77272   0.00000  Uiso   1.00
N56    N     0.60057   0.40708   0.79482   0.00000  Uiso   1.00
C57    C     0.58945   0.36195   0.91157   0.00000  Uiso   1.00
C58    C     0.62915   0.34766   0.92688   0.00000  Uiso   1.00
O59    O     0.61749   0.49479   0.47226   0.00000  Uiso   1.00
C60    C     0.68106   0.38503   0.92902   0.00000  Uiso   1.00
O61    O     0.46667   0.39480   0.48090   0.00000  Uiso   1.00
C62    C     0.41727   0.36139   0.31728   0.00000  Uiso   1.00
H63    H     0.59266   0.56186   0.55305   0.00000  Uiso   1.00
H64    H     0.52839   0.39894   0.91209   0.00000  Uiso   1.00
H65    H     0.55031   0.33379   0.98262   0.00000  Uiso   1.00
H66    H     0.57484   0.26725   0.92666   0.00000  Uiso   1.00
C67    C     0.46458   0.51737   0.56104   0.00000  Uiso   1.00
C68    C     0.44789   0.46500   0.54619   0.00000  Uiso   1.00
C69    C     0.48271   0.44706   0.52977   0.00000  Uiso   1.00
C70    C     0.42563   0.53339   0.59630   0.00000  Uiso   1.00
O71    O     0.38251   0.50521   0.47226   0.00000  Uiso   1.00
N72    N     0.43663   0.57840   0.77272   0.00000  Uiso   1.00
N73    N     0.39943   0.59292   0.79482   0.00000  Uiso   1.00
C74    C     0.41055   0.63805   0.91157   0.00000  Uiso   1.00
C75    C     0.37085   0.65234   0.92688   0.00000  Uiso   1.00
C76    C     0.31894   0.61497   0.92902   0.00000  Uiso   1.00
O77    O     0.53333   0.60520   0.48090   0.00000  Uiso   1.00
C78    C     0.58273   0.63861   0.31728   0.00000  Uiso   1.00
H79    H     0.40734   0.43813   0.55305   0.00000  Uiso   1.00
H80    H     0.47161   0.60106   0.91209   0.00000  Uiso   1.00
H81    H     0.44969   0.66621   0.98262   0.00000  Uiso   1.00
H82    H     0.42516   0.73275   0.92666   0.00000  Uiso   1.00
C83    C     0.31144   0.89700   0.18808   0.00000  Uiso   1.00
C84    C     0.27062   0.90969   0.05535   0.00000  Uiso   1.00
C85    C     0.68856   0.10300   0.18808   0.00000  Uiso   1.00
C86    C     0.72938   0.09031   0.05535   0.00000  Uiso   1.00
H87    H     0.41084   0.38085   0.07149   0.00000  Uiso   1.00
H88    H     0.38567   0.35330   0.51796   0.00000  Uiso   1.00
H89    H     0.58916   0.61915   0.07149   0.00000  Uiso   1.00
H90    H     0.61433   0.64670   0.51796   0.00000  Uiso   1.00
H91    H     0.29352   0.86686   0.41110   0.00000  Uiso   1.00
H92    H     0.32160   0.87749  -0.03559   0.00000  Uiso   1.00
H93    H     0.28713   0.94549  -0.11651   0.00000  Uiso   1.00
H94    H     0.25089   0.91562   0.30537   0.00000  Uiso   1.00
H95    H     0.24063   0.87693  -0.11305   0.00000  Uiso   1.00
H96    H     0.70648   0.13314   0.41110   0.00000  Uiso   1.00
H97    H     0.67840   0.12251  -0.03559   0.00000  Uiso   1.00
H98    H     0.75937   0.12307  -0.11305   0.00000  Uiso   1.00
H99    H     0.71287   0.05451  -0.11651   0.00000  Uiso   1.00
H100   H     0.74911   0.08438   0.30537   0.00000  Uiso   1.00
C101   C     0.51737   0.05279   0.56104   0.00000  Uiso   1.00
C102   C     0.46500   0.01711   0.54619   0.00000  Uiso   1.00
C103   C     0.44706   0.96435   0.52977   0.00000  Uiso   1.00
C104   C     0.53339   0.10776   0.59630   0.00000  Uiso   1.00
N105   N     0.57840   0.14177   0.77272   0.00000  Uiso   1.00
N106   N     0.59292   0.19349   0.79482   0.00000  Uiso   1.00
C107   C     0.63805   0.22750   0.91157   0.00000  Uiso   1.00
C108   C     0.65234   0.28149   0.92688   0.00000  Uiso   1.00
O109   O     0.50521   0.12270   0.47226   0.00000  Uiso   1.00
C110   C     0.61497   0.29603   0.92902   0.00000  Uiso   1.00
O111   O     0.60520   0.07187   0.48090   0.00000  Uiso   1.00
C112   C     0.63861   0.05588   0.31728   0.00000  Uiso   1.00
H113   H     0.43814   0.03080   0.55305   0.00000  Uiso   1.00
H114   H     0.60106   0.12945   0.91209   0.00000  Uiso   1.00
H115   H     0.66621   0.21652   0.98262   0.00000  Uiso   1.00
H116   H     0.73275   0.30759   0.92666   0.00000  Uiso   1.00
C117   C     0.48263   0.94721   0.56104   0.00000  Uiso   1.00
C118   C     0.53500   0.98289   0.54619   0.00000  Uiso   1.00
C119   C     0.55294   0.03565   0.52977   0.00000  Uiso   1.00
C120   C     0.46661   0.89224   0.59630   0.00000  Uiso   1.00
O121   O     0.49479   0.87730   0.47226   0.00000  Uiso   1.00
N122   N     0.42160   0.85823   0.77272   0.00000  Uiso   1.00
N123   N     0.40708   0.80651   0.79482   0.00000  Uiso   1.00
C124   C     0.36195   0.77250   0.91157   0.00000  Uiso   1.00
C125   C     0.34766   0.71851   0.92688   0.00000  Uiso   1.00
C126   C     0.38503   0.70397   0.92902   0.00000  Uiso   1.00
O127   O     0.39480   0.92813   0.48090   0.00000  Uiso   1.00
C128   C     0.36139   0.94412   0.31728   0.00000  Uiso   1.00
H129   H     0.56187   0.96921   0.55305   0.00000  Uiso   1.00
H130   H     0.39894   0.87055   0.91209   0.00000  Uiso   1.00
H131   H     0.33379   0.78348   0.98262   0.00000  Uiso   1.00
H132   H     0.26725   0.69241   0.92666   0.00000  Uiso   1.00
C133   C     0.10300   0.41444   0.18808   0.00000  Uiso   1.00
C134   C     0.09031   0.36093   0.05535   0.00000  Uiso   1.00
C135   C     0.89700   0.58556   0.18808   0.00000  Uiso   1.00
C136   C     0.90969   0.63907   0.05535   0.00000  Uiso   1.00
H137   H     0.61915   0.02999   0.07149   0.00000  Uiso   1.00
H138   H     0.64670   0.03237   0.51796   0.00000  Uiso   1.00
H139   H     0.38085   0.97001   0.07149   0.00000  Uiso   1.00
H140   H     0.35330   0.96763   0.51796   0.00000  Uiso   1.00
H141   H     0.13314   0.42666   0.41110   0.00000  Uiso   1.00
H142   H     0.12251   0.44411  -0.03559   0.00000  Uiso   1.00
H143   H     0.05451   0.34164  -0.11651   0.00000  Uiso   1.00
H144   H     0.08438   0.33527   0.30537   0.00000  Uiso   1.00
H145   H     0.12307   0.36370  -0.11305   0.00000  Uiso   1.00
H146   H     0.86686   0.57334   0.41110   0.00000  Uiso   1.00
H147   H     0.87749   0.55589  -0.03559   0.00000  Uiso   1.00
H148   H     0.87693   0.63630  -0.11305   0.00000  Uiso   1.00
H149   H     0.94549   0.65836  -0.11651   0.00000  Uiso   1.00
H150   H     0.91562   0.66473   0.30537   0.00000  Uiso   1.00
loop_
_geom_bond_atom_site_label_1
_geom_bond_atom_site_label_2
_geom_bond_distance
_geom_bond_site_symmetry_2
_ccdc_geom_bond_type
C1     C2      1.362   .     S
C1     C4      1.443   .     S
C1     C19     1.372   .     D
C2     C3      1.366   1_655 D
C2     H13     1.050   .     S
C3     C2      1.366   1_455 D
C3     C17     1.372   .     S
C3     O27     1.372   .     S
C4     N5      1.339   .     S
C4     O9      1.193   .     D
N5     N6      1.359   .     S
N5     H14     1.022   .     S
N6     C7      1.262   .     D
C7     C8      1.424   .     S
C7     H15     1.056   .     S
C8     C10     1.362   .     S
C8     C60     1.357   .     D
C10    C108    1.357   .     D
C10    H116    1.052   .     S
O11    C12     1.401   .     S
O11    C19     1.372   .     S
C12    H37     1.089   .     S
C12    H38     1.084   .     S
C12    C135    1.495   .     S
H16    C60     1.052   .     S
C17    C18     1.362   .     D
C17    C20     1.443   .     S
C18    C19     1.366   1_455 S
C18    H29     1.050   .     S
C19    C18     1.366   1_655 S
C20    O21     1.193   .     D
C20    N22     1.339   .     S
N22    N23     1.359   .     S
N22    H30     1.022   .     S
N23    C24     1.262   .     D
C24    C25     1.424   .     S
C24    H31     1.056   .     S
C25    C26     1.362   .     S
C25    C76     1.357   .     D
C26    C125    1.357   .     D
C26    H132    1.052   .     S
O27    C28     1.401   .     S
C28    H39     1.089   .     S
C28    H40     1.084   .     S
C28    C133    1.495   .     S
H32    C76     1.052   .     S
C33    C34     1.494   .     S
C33    H41     1.088   .     S
C33    H42     1.087   .     S
C33    C78     1.495   .     S
C34    H43     1.087   .     S
C34    H44     1.099   .     S
C34    H45     1.091   .     S
C35    C36     1.494   .     S
C35    H46     1.088   .     S
C35    H47     1.087   .     S
C35    C62     1.495   .     S
C36    H48     1.091   .     S
C36    H49     1.087   .     S
C36    H50     1.099   .     S
C51    C52     1.362   .     S
C51    C54     1.443   .     S
C51    C69     1.372   .     D
C52    C53     1.366   .     D
C52    H63     1.050   .     S
C53    C67     1.372   .     S
C53    O77     1.372   .     S
C54    N55     1.339   .     S
C54    O59     1.193   .     D
N55    N56     1.359   .     S
N55    H64     1.022   .     S
N56    C57     1.262   .     D
C57    C58     1.424   .     S
C57    H65     1.056   .     S
C58    C60     1.362   .     S
C58    C110    1.357   .     D
O61    C62     1.401   .     S
O61    C69     1.372   .     S
C62    H87     1.089   .     S
C62    H88     1.084   .     S
H66    C110    1.052   .     S
C67    C68     1.362   .     D
C67    C70     1.443   .     S
C68    C69     1.366   .     S
C68    H79     1.050   .     S
C70    O71     1.193   .     D
C70    N72     1.339   .     S
N72    N73     1.359   .     S
N72    H80     1.022   .     S
N73    C74     1.262   .     D
C74    C75     1.424   .     S
C74    H81     1.056   .     S
C75    C76     1.362   .     S
C75    C126    1.357   .     D
O77    C78     1.401   .     S
C78    H89     1.089   .     S
C78    H90     1.084   .     S
H82    C126    1.052   .     S
C83    C84     1.494   .     S
C83    H91     1.088   .     S
C83    H92     1.087   .     S
C83    C128    1.495   .     S
C84    H93     1.087   .     S
C84    H94     1.099   .     S
C84    H95     1.091   .     S
C85    C86     1.494   .     S
C85    H96     1.088   .     S
C85    H97     1.087   .     S
C85    C112    1.495   .     S
C86    H98     1.091   .     S
C86    H99     1.087   .     S
C86    H100    1.099   .     S
C101   C102    1.362   .     D
C101   C104    1.443   .     S
C101   C119    1.372   .     S
C102   C103    1.366   1_545 S
C102   H113    1.050   .     S
C103   C102    1.366   1_565 S
C103   C117    1.372   .     D
C103   O127    1.372   .     S
C104   N105    1.339   .     S
C104   O109    1.193   .     D
N105   N106    1.359   .     S
N105   H114    1.022   .     S
N106   C107    1.262   .     D
C107   C108    1.424   .     S
C107   H115    1.056   .     S
C108   C110    1.362   .     S
O111   C112    1.401   .     S
O111   C119    1.372   .     S
C112   H137    1.089   .     S
C112   H138    1.084   .     S
C117   C118    1.362   .     S
C117   C120    1.443   .     S
C118   C119    1.366   1_565 D
C118   H129    1.050   .     S
C119   C118    1.366   1_545 D
C120   O121    1.193   .     D
C120   N122    1.339   .     S
N122   N123    1.359   .     S
N122   H130    1.022   .     S
N123   C124    1.262   .     D
C124   C125    1.424   .     S
C124   H131    1.056   .     S
C125   C126    1.362   .     S
O127   C128    1.401   .     S
C128   H139    1.089   .     S
C128   H140    1.084   .     S
C133   C134    1.494   .     S
C133   H141    1.088   .     S
C133   H142    1.087   .     S
C134   H143    1.087   .     S
C134   H144    1.099   .     S
C134   H145    1.091   .     S
C135   C136    1.494   .     S
C135   H146    1.088   .     S
C135   H147    1.087   .     S
C136   H148    1.091   .     S
C136   H149    1.087   .     S
C136   H150    1.099   .     S
