data_485
_audit_creation_date              2023-09-08
_audit_creation_method            'Materials Studio'
_symmetry_space_group_name_H-M    'P1'
_symmetry_Int_Tables_number       1
_symmetry_cell_setting            triclinic
loop_
_symmetry_equiv_pos_as_xyz
  x,y,z
_cell_length_a                    30.1732
_cell_length_b                    30.1732
_cell_length_c                    3.7407
_cell_angle_alpha                 90.0000
_cell_angle_beta                  90.0000
_cell_angle_gamma                 120.0000
loop_
_atom_site_label
_atom_site_type_symbol
_atom_site_fract_x
_atom_site_fract_y
_atom_site_fract_z
_atom_site_U_iso_or_equiv
_atom_site_adp_type
_atom_site_occupancy
C1     C     0.94752   0.46559   0.51034   0.00000  Uiso   1.00
C2     C     0.53441   0.48192   0.51034   0.00000  Uiso   1.00
C3     C     0.51808   0.05248   0.51034   0.00000  Uiso   1.00
C4     C     0.98379   0.45214   0.40361   0.00000  Uiso   1.00
C5     C     0.54786   0.53165   0.40361   0.00000  Uiso   1.00
C6     C     0.46835   0.01621   0.40361   0.00000  Uiso   1.00
C7     C     0.03585   0.48850   0.38367   0.00000  Uiso   1.00
C8     C     0.51150   0.54735   0.38367   0.00000  Uiso   1.00
C9     C     0.45265   0.96415   0.38367   0.00000  Uiso   1.00
C10    C     0.89324   0.42161   0.53999   0.00000  Uiso   1.00
C11    C     0.57839   0.47163   0.53999   0.00000  Uiso   1.00
C12    C     0.52837   0.10676   0.53999   0.00000  Uiso   1.00
C13    C     0.77408   0.40713   0.26897   0.00000  Uiso   1.00
C14    C     0.59287   0.36695   0.26897   0.00000  Uiso   1.00
C15    C     0.63305   0.22592   0.26897   0.00000  Uiso   1.00
C16    C     0.71943   0.36931   0.24880   0.00000  Uiso   1.00
C17    C     0.63069   0.35012   0.24880   0.00000  Uiso   1.00
C18    C     0.64988   0.28057   0.24880   0.00000  Uiso   1.00
C19    C     0.70232   0.31636   0.24573   0.00000  Uiso   1.00
C20    C     0.68364   0.38595   0.24573   0.00000  Uiso   1.00
C21    C     0.61405   0.29768   0.24573   0.00000  Uiso   1.00
C22    C     0.94453   0.58115   0.84360   0.00000  Uiso   1.00
C23    C     0.41885   0.36338   0.84360   0.00000  Uiso   1.00
C24    C     0.63662   0.05547   0.84360   0.00000  Uiso   1.00
C25    C     0.05252   0.54000   0.47201   0.00000  Uiso   1.00
C26    C     0.46001   0.51252   0.47201   0.00000  Uiso   1.00
C27    C     0.48748   0.94748   0.47201   0.00000  Uiso   1.00
C28    C     0.01616   0.55344   0.57781   0.00000  Uiso   1.00
C29    C     0.44656   0.46272   0.57781   0.00000  Uiso   1.00
C30    C     0.53728   0.98384   0.57781   0.00000  Uiso   1.00
C31    C     0.96415   0.51704   0.59927   0.00000  Uiso   1.00
C32    C     0.48296   0.44711   0.59927   0.00000  Uiso   1.00
C33    C     0.55289   0.03584   0.59927   0.00000  Uiso   1.00
C34    C     0.10701   0.58400   0.45096   0.00000  Uiso   1.00
C35    C     0.41600   0.52301   0.45096   0.00000  Uiso   1.00
C36    C     0.47699   0.89299   0.45096   0.00000  Uiso   1.00
C37    C     0.22540   0.59490   0.70536   0.00000  Uiso   1.00
C38    C     0.40509   0.63049   0.70536   0.00000  Uiso   1.00
C39    C     0.36951   0.77460   0.70536   0.00000  Uiso   1.00
C40    C     0.28028   0.63163   0.73356   0.00000  Uiso   1.00
C41    C     0.36837   0.64865   0.73356   0.00000  Uiso   1.00
C42    C     0.35135   0.71972   0.73356   0.00000  Uiso   1.00
C43    C     0.29867   0.68487   0.73753   0.00000  Uiso   1.00
C44    C     0.31514   0.61380   0.73753   0.00000  Uiso   1.00
C45    C     0.38620   0.70133   0.73753   0.00000  Uiso   1.00
C46    C     0.05540   0.42431   0.14026   0.00000  Uiso   1.00
C47    C     0.57569   0.63109   0.14026   0.00000  Uiso   1.00
C48    C     0.36891   0.94460   0.14026   0.00000  Uiso   1.00
C49    C     0.57705   0.67849   0.00259   0.00000  Uiso   1.00
C50    C     0.32151   0.89856   0.00259   0.00000  Uiso   1.00
C51    C     0.10144   0.42295   0.00259   0.00000  Uiso   1.00
C52    C     0.61249   0.72594   0.09515   0.00000  Uiso   1.00
C53    C     0.27406   0.88655   0.09515   0.00000  Uiso   1.00
C54    C     0.11345   0.38751   0.09515   0.00000  Uiso   1.00
C55    C     0.41777   0.31637   0.98714   0.00000  Uiso   1.00
C56    C     0.68363   0.10140   0.98714   0.00000  Uiso   1.00
C57    C     0.89860   0.58223   0.98714   0.00000  Uiso   1.00
C58    C     0.38256   0.26867   0.89767   0.00000  Uiso   1.00
C59    C     0.73133   0.11390   0.89767   0.00000  Uiso   1.00
C60    C     0.88610   0.61744   0.89767   0.00000  Uiso   1.00
N61    N     0.85643   0.43177   0.40492   0.00000  Uiso   1.00
N62    N     0.56823   0.42467   0.40492   0.00000  Uiso   1.00
N63    N     0.57533   0.14357   0.40492   0.00000  Uiso   1.00
N64    N     0.80608   0.39429   0.39144   0.00000  Uiso   1.00
N65    N     0.60571   0.41178   0.39144   0.00000  Uiso   1.00
N66    N     0.58821   0.19392   0.39144   0.00000  Uiso   1.00
N67    N     0.14349   0.57259   0.57583   0.00000  Uiso   1.00
N68    N     0.42741   0.57090   0.57583   0.00000  Uiso   1.00
N69    N     0.42910   0.85651   0.57583   0.00000  Uiso   1.00
N70    N     0.19404   0.60940   0.59570   0.00000  Uiso   1.00
N71    N     0.39060   0.58464   0.59570   0.00000  Uiso   1.00
N72    N     0.41536   0.80596   0.59570   0.00000  Uiso   1.00
O73    O     0.88382   0.37993   0.66376   0.00000  Uiso   1.00
O74    O     0.62007   0.50390   0.66376   0.00000  Uiso   1.00
O75    O     0.49610   0.11618   0.66376   0.00000  Uiso   1.00
O76    O     0.92688   0.52897   0.70903   0.00000  Uiso   1.00
O77    O     0.47103   0.39791   0.70903   0.00000  Uiso   1.00
O78    O     0.60209   0.07312   0.70903   0.00000  Uiso   1.00
O79    O     0.11687   0.62663   0.34447   0.00000  Uiso   1.00
O80    O     0.37337   0.49024   0.34447   0.00000  Uiso   1.00
O81    O     0.50976   0.88313   0.34447   0.00000  Uiso   1.00
O82    O     0.07313   0.47641   0.27669   0.00000  Uiso   1.00
O83    O     0.52359   0.59673   0.27669   0.00000  Uiso   1.00
O84    O     0.40327   0.92687   0.27669   0.00000  Uiso   1.00
H85    H     0.96946   0.41237   0.33735   0.00000  Uiso   1.00
H86    H     0.58763   0.55709   0.33735   0.00000  Uiso   1.00
H87    H     0.44291   0.03054   0.33735   0.00000  Uiso   1.00
H88    H     0.86747   0.46732   0.30616   0.00000  Uiso   1.00
H89    H     0.53268   0.40015   0.30616   0.00000  Uiso   1.00
H90    H     0.59985   0.13253   0.30616   0.00000  Uiso   1.00
H91    H     0.78618   0.44662   0.18798   0.00000  Uiso   1.00
H92    H     0.55338   0.33956   0.18798   0.00000  Uiso   1.00
H93    H     0.66044   0.21382   0.18798   0.00000  Uiso   1.00
H94    H     0.69607   0.42647   0.24515   0.00000  Uiso   1.00
H95    H     0.57353   0.26960   0.24515   0.00000  Uiso   1.00
H96    H     0.73040   0.30393   0.24515   0.00000  Uiso   1.00
H97    H     0.03053   0.59322   0.64400   0.00000  Uiso   1.00
H98    H     0.40678   0.43732   0.64400   0.00000  Uiso   1.00
H99    H     0.56268   0.96947   0.64400   0.00000  Uiso   1.00
H100   H     0.13216   0.53607   0.65389   0.00000  Uiso   1.00
H101   H     0.46393   0.59609   0.65389   0.00000  Uiso   1.00
H102   H     0.40391   0.86784   0.65389   0.00000  Uiso   1.00
H103   H     0.21249   0.55472   0.77093   0.00000  Uiso   1.00
H104   H     0.44528   0.65776   0.77093   0.00000  Uiso   1.00
H105   H     0.34224   0.78751   0.77093   0.00000  Uiso   1.00
H106   H     0.30177   0.57308   0.73445   0.00000  Uiso   1.00
H107   H     0.42692   0.72869   0.73445   0.00000  Uiso   1.00
H108   H     0.27132   0.69823   0.73445   0.00000  Uiso   1.00
H109   H     0.96284   0.60904   0.62811   0.00000  Uiso   1.00
H110   H     0.39096   0.35380   0.62811   0.00000  Uiso   1.00
H111   H     0.64620   0.03716   0.62811   0.00000  Uiso   1.00
H112   H     0.02749   0.41670   0.92762   0.00000  Uiso   1.00
H113   H     0.58330   0.61079   0.92762   0.00000  Uiso   1.00
H114   H     0.38922   0.97251   0.92762   0.00000  Uiso   1.00
H115   H     0.97299   0.58926   0.05298   0.00000  Uiso   1.00
H116   H     0.41074   0.38374   0.05298   0.00000  Uiso   1.00
H117   H     0.61626   0.02701   0.05298   0.00000  Uiso   1.00
H118   H     0.03640   0.39618   0.35354   0.00000  Uiso   1.00
H119   H     0.60382   0.64022   0.35354   0.00000  Uiso   1.00
H120   H     0.35978   0.96360   0.35354   0.00000  Uiso   1.00
H121   H     0.54771   0.67233   0.80848   0.00000  Uiso   1.00
H122   H     0.32767   0.87538   0.80848   0.00000  Uiso   1.00
H123   H     0.12462   0.45229   0.80848   0.00000  Uiso   1.00
H124   H     0.64226   0.73313   0.28753   0.00000  Uiso   1.00
H125   H     0.26687   0.90913   0.28753   0.00000  Uiso   1.00
H126   H     0.09087   0.35774   0.28753   0.00000  Uiso   1.00
H127   H     0.44707   0.32306   0.18320   0.00000  Uiso   1.00
H128   H     0.67694   0.12401   0.18320   0.00000  Uiso   1.00
H129   H     0.87599   0.55293   0.18320   0.00000  Uiso   1.00
H130   H     0.38232   0.23583   0.01704   0.00000  Uiso   1.00
H131   H     0.76417   0.14649   0.01704   0.00000  Uiso   1.00
H132   H     0.85351   0.61768   0.01704   0.00000  Uiso   1.00
H133   H     0.61301   0.75911   0.97911   0.00000  Uiso   1.00
H134   H     0.24089   0.85390   0.97911   0.00000  Uiso   1.00
H135   H     0.14610   0.38699   0.97911   0.00000  Uiso   1.00
H136   H     0.35300   0.26098   0.70249   0.00000  Uiso   1.00
H137   H     0.73902   0.09201   0.70249   0.00000  Uiso   1.00
H138   H     0.90799   0.64700   0.70249   0.00000  Uiso   1.00
loop_
_geom_bond_atom_site_label_1
_geom_bond_atom_site_label_2
_geom_bond_distance
_geom_bond_site_symmetry_2
_ccdc_geom_bond_type
C1     C4      1.402   .     S
C1     C10     1.511   .     S
C1     C31     1.412   .     D
C2     C5      1.402   .     S
C2     C11     1.511   .     S
C2     C32     1.412   .     D
C3     C6      1.402   .     S
C3     C12     1.511   .     S
C3     C33     1.412   .     D
C4     C7      1.398   1_655 D
C4     H85     1.081   .     S
C5     C8      1.398   .     D
C5     H86     1.081   .     S
C6     C9      1.398   1_545 D
C6     H87     1.081   .     S
C7     C4      1.398   1_455 D
C7     C25     1.412   .     S
C7     O82     1.403   .     S
C8     C26     1.412   .     S
C8     O83     1.403   .     S
C9     C6      1.398   1_565 D
C9     C27     1.412   .     S
C9     O84     1.403   .     S
C10    N61     1.387   .     S
C10    O73     1.233   .     D
C11    N62     1.387   .     S
C11    O74     1.233   .     D
C12    N63     1.387   .     S
C12    O75     1.233   .     D
C13    C16     1.465   .     S
C13    N64     1.291   .     D
C13    H91     1.100   .     S
C14    C17     1.465   .     S
C14    N65     1.291   .     D
C14    H92     1.100   .     S
C15    C18     1.465   .     S
C15    N66     1.291   .     D
C15    H93     1.100   .     S
C16    C19     1.412   .     D
C16    C20     1.400   .     S
C17    C20     1.412   .     D
C17    C21     1.400   .     S
C18    C19     1.400   .     S
C18    C21     1.412   .     D
C19    H96     1.085   .     S
C20    H94     1.085   .     S
C21    H95     1.085   .     S
C22    C57     1.502   .     S
C22    O76     1.476   .     S
C22    H109    1.095   .     S
C22    H115    1.096   1_556 S
C23    C55     1.502   .     S
C23    O77     1.476   .     S
C23    H110    1.095   .     S
C23    H116    1.096   1_556 S
C24    C56     1.502   .     S
C24    O78     1.476   .     S
C24    H111    1.095   .     S
C24    H117    1.096   1_556 S
C25    C28     1.404   .     D
C25    C34     1.513   .     S
C26    C29     1.403   .     D
C26    C35     1.513   .     S
C27    C30     1.404   .     D
C27    C36     1.513   .     S
C28    C31     1.397   1_455 S
C28    H97     1.081   .     S
C29    C32     1.397   .     S
C29    H98     1.081   .     S
C30    C33     1.397   1_565 S
C30    H99     1.081   .     S
C31    C28     1.397   1_655 S
C31    O76     1.403   .     S
C32    O77     1.403   .     S
C33    C30     1.397   1_545 S
C33    O78     1.403   .     S
C34    N67     1.388   .     S
C34    O79     1.233   .     D
C35    N68     1.388   .     S
C35    O80     1.233   .     D
C36    N69     1.388   .     S
C36    O81     1.233   .     D
C37    C40     1.465   .     S
C37    N70     1.292   .     D
C37    H103    1.100   .     S
C38    C41     1.465   .     S
C38    N71     1.292   .     D
C38    H104    1.100   .     S
C39    C42     1.465   .     S
C39    N72     1.292   .     D
C39    H105    1.100   .     S
C40    C43     1.413   .     S
C40    C44     1.400   .     D
C41    C44     1.413   .     S
C41    C45     1.400   .     D
C42    C43     1.400   .     D
C42    C45     1.413   .     S
C43    H108    1.085   .     S
C44    H106    1.085   .     S
C45    H107    1.085   .     S
C46    C51     1.501   .     S
C46    O82     1.475   .     S
C46    H112    1.096   1_554 S
C46    H118    1.095   .     S
C47    C49     1.501   .     S
C47    O83     1.475   .     S
C47    H113    1.096   1_554 S
C47    H119    1.095   .     S
C48    C50     1.501   .     S
C48    O84     1.475   .     S
C48    H114    1.096   1_554 S
C48    H120    1.095   .     S
C49    C52     1.335   .     D
C49    H121    1.087   1_554 S
C50    C53     1.335   .     D
C50    H122    1.087   1_554 S
C51    C54     1.335   .     D
C51    H123    1.087   1_554 S
C52    H124    1.085   .     S
C52    H133    1.084   1_554 S
C53    H125    1.085   .     S
C53    H134    1.084   1_554 S
C54    H126    1.085   .     S
C54    H135    1.084   1_554 S
C55    C58     1.335   .     D
C55    H127    1.087   1_556 S
C56    C59     1.335   .     D
C56    H128    1.087   1_556 S
C57    C60     1.335   .     D
C57    H129    1.087   1_556 S
C58    H130    1.083   1_556 S
C58    H136    1.084   .     S
C59    H131    1.083   1_556 S
C59    H137    1.084   .     S
C60    H132    1.083   1_556 S
C60    H138    1.084   .     S
N61    N64     1.368   .     S
N61    H88     1.020   .     S
N62    N65     1.368   .     S
N62    H89     1.020   .     S
N63    N66     1.368   .     S
N63    H90     1.020   .     S
N67    N70     1.368   .     S
N67    H100    1.020   .     S
N68    N71     1.368   .     S
N68    H101    1.020   .     S
N69    N72     1.368   .     S
N69    H102    1.020   .     S
H112   C46     1.096   1_556 S
H113   C47     1.096   1_556 S
H114   C48     1.096   1_556 S
H115   C22     1.096   1_554 S
H116   C23     1.096   1_554 S
H117   C24     1.096   1_554 S
H121   C49     1.087   1_556 S
H122   C50     1.087   1_556 S
H123   C51     1.087   1_556 S
H127   C55     1.087   1_554 S
H128   C56     1.087   1_554 S
H129   C57     1.087   1_554 S
H130   C58     1.083   1_554 S
H131   C59     1.083   1_554 S
H132   C60     1.083   1_554 S
H133   C52     1.084   1_556 S
H134   C53     1.084   1_556 S
H135   C54     1.084   1_556 S
