data_487
_audit_creation_date              2023-09-08
_audit_creation_method            'Materials Studio'
_symmetry_space_group_name_H-M    'P1'
_symmetry_Int_Tables_number       1
_symmetry_cell_setting            triclinic
loop_
_symmetry_equiv_pos_as_xyz
  x,y,z
_cell_length_a                    20.8677
_cell_length_b                    20.8677
_cell_length_c                    4.1175
_cell_angle_alpha                 90.0000
_cell_angle_beta                  90.0000
_cell_angle_gamma                 120.0000
loop_
_atom_site_label
_atom_site_type_symbol
_atom_site_fract_x
_atom_site_fract_y
_atom_site_fract_z
_atom_site_U_iso_or_equiv
_atom_site_adp_type
_atom_site_occupancy
C1     C     0.95023   0.14634   0.29258   0.00000  Uiso   1.00
C2     C     0.85366   0.80389   0.29258   0.00000  Uiso   1.00
C3     C     0.19611   0.04977   0.29258   0.00000  Uiso   1.00
C4     C     0.98796   0.10778   0.27472   0.00000  Uiso   1.00
C5     C     0.89222   0.88018   0.27472   0.00000  Uiso   1.00
C6     C     0.11982   0.01204   0.27472   0.00000  Uiso   1.00
C7     C     0.96045   0.03920   0.43122   0.00000  Uiso   1.00
C8     C     0.96080   0.92125   0.43122   0.00000  Uiso   1.00
C9     C     0.07875   0.03955   0.43122   0.00000  Uiso   1.00
C10    C     0.89299   0.01025   0.59848   0.00000  Uiso   1.00
C11    C     0.98975   0.88274   0.59848   0.00000  Uiso   1.00
C12    C     0.11726   0.10701   0.59848   0.00000  Uiso   1.00
C13    C     0.85496   0.04857   0.61396   0.00000  Uiso   1.00
C14    C     0.95143   0.80639   0.61396   0.00000  Uiso   1.00
C15    C     0.19361   0.14504   0.61396   0.00000  Uiso   1.00
C16    C     0.88366   0.11823   0.46594   0.00000  Uiso   1.00
C17    C     0.88177   0.76543   0.46594   0.00000  Uiso   1.00
C18    C     0.23457   0.11634   0.46594   0.00000  Uiso   1.00
N19    N     0.31234   0.14990   0.46794   0.00000  Uiso   1.00
N20    N     0.85010   0.16244   0.46794   0.00000  Uiso   1.00
N21    N     0.83756   0.68766   0.46794   0.00000  Uiso   1.00
C22    C     0.73631   0.53303   0.49259   0.00000  Uiso   1.00
C23    C     0.46697   0.20328   0.49259   0.00000  Uiso   1.00
C24    C     0.79672   0.26369   0.49259   0.00000  Uiso   1.00
C25    C     0.69153   0.45708   0.48958   0.00000  Uiso   1.00
C26    C     0.54292   0.23445   0.48958   0.00000  Uiso   1.00
C27    C     0.76555   0.30847   0.48958   0.00000  Uiso   1.00
C28    C     0.71279   0.41168   0.65389   0.00000  Uiso   1.00
C29    C     0.58832   0.30111   0.65389   0.00000  Uiso   1.00
C30    C     0.69889   0.28721   0.65389   0.00000  Uiso   1.00
C31    C     0.78044   0.44534   0.82123   0.00000  Uiso   1.00
C32    C     0.55466   0.33510   0.82123   0.00000  Uiso   1.00
C33    C     0.66490   0.21956   0.82123   0.00000  Uiso   1.00
C34    C     0.82466   0.52143   0.82573   0.00000  Uiso   1.00
C35    C     0.47857   0.30323   0.82573   0.00000  Uiso   1.00
C36    C     0.69677   0.17534   0.82573   0.00000  Uiso   1.00
C37    C     0.80372   0.56684   0.66105   0.00000  Uiso   1.00
C38    C     0.43316   0.23688   0.66105   0.00000  Uiso   1.00
C39    C     0.76312   0.19628   0.66105   0.00000  Uiso   1.00
C40    C     0.79662   0.14907   0.66684   0.00000  Uiso   1.00
C41    C     0.85093   0.64755   0.66684   0.00000  Uiso   1.00
C42    C     0.35245   0.20338   0.66684   0.00000  Uiso   1.00
H43    H     0.97237   0.19966   0.16914   0.00000  Uiso   1.00
H44    H     0.80034   0.77271   0.16914   0.00000  Uiso   1.00
H45    H     0.22729   0.02763   0.16914   0.00000  Uiso   1.00
H46    H     0.03936   0.13120   0.13557   0.00000  Uiso   1.00
H47    H     0.86880   0.90816   0.13557   0.00000  Uiso   1.00
H48    H     0.09184   0.96064   0.13557   0.00000  Uiso   1.00
H49    H     0.86990   0.95696   0.72237   0.00000  Uiso   1.00
H50    H     0.04304   0.91294   0.72237   0.00000  Uiso   1.00
H51    H     0.08706   0.13010   0.72237   0.00000  Uiso   1.00
H52    H     0.80269   0.02359   0.74764   0.00000  Uiso   1.00
H53    H     0.97641   0.77910   0.74764   0.00000  Uiso   1.00
H54    H     0.22090   0.19731   0.74764   0.00000  Uiso   1.00
H55    H     0.71930   0.56749   0.35972   0.00000  Uiso   1.00
H56    H     0.43251   0.15181   0.35972   0.00000  Uiso   1.00
H57    H     0.84819   0.28070   0.35972   0.00000  Uiso   1.00
H58    H     0.63949   0.43264   0.35498   0.00000  Uiso   1.00
H59    H     0.56736   0.20685   0.35498   0.00000  Uiso   1.00
H60    H     0.79315   0.36051   0.35498   0.00000  Uiso   1.00
H61    H     0.79845   0.41176   0.95348   0.00000  Uiso   1.00
H62    H     0.58824   0.38669   0.95348   0.00000  Uiso   1.00
H63    H     0.61331   0.20155   0.95348   0.00000  Uiso   1.00
H64    H     0.87659   0.54625   0.96267   0.00000  Uiso   1.00
H65    H     0.45375   0.33034   0.96267   0.00000  Uiso   1.00
H66    H     0.66966   0.12341   0.96267   0.00000  Uiso   1.00
H67    H     0.77380   0.10306   0.84866   0.00000  Uiso   1.00
H68    H     0.89694   0.67074   0.84866   0.00000  Uiso   1.00
H69    H     0.32926   0.22620   0.84866   0.00000  Uiso   1.00
N70    N     0.00000   0.00000   0.42000   0.00000  Uiso   1.00
N71    N     0.66667   0.33333   0.65134   0.00000  Uiso   1.00
loop_
_geom_bond_atom_site_label_1
_geom_bond_atom_site_label_2
_geom_bond_distance
_geom_bond_site_symmetry_2
_ccdc_geom_bond_type
C1     C4      1.381   .     D
C1     C16     1.403   .     S
C1     H43     1.094   .     S
C2     C5      1.381   .     D
C2     C17     1.403   .     S
C2     H44     1.094   .     S
C3     C6      1.381   .     D
C3     C18     1.403   .     S
C3     H45     1.094   .     S
C4     C7      1.404   .     S
C4     H46     1.092   1_655 S
C5     C8      1.404   .     S
C5     H47     1.092   .     S
C6     C9      1.404   .     S
C6     H48     1.092   1_545 S
C7     C10     1.404   .     D
C7     N70     1.424   1_655 S
C8     C11     1.404   .     D
C8     N70     1.424   1_665 S
C9     C12     1.404   .     D
C9     N70     1.424   .     S
C10    C13     1.381   .     S
C10    H49     1.092   1_545 S
C11    C14     1.381   .     S
C11    H50     1.092   1_655 S
C12    C15     1.381   .     S
C12    H51     1.092   .     S
C13    C16     1.405   .     D
C13    H52     1.094   .     S
C14    C17     1.405   .     D
C14    H53     1.094   .     S
C15    C18     1.405   .     D
C15    H54     1.094   .     S
C16    N20     1.410   .     S
C17    N21     1.410   .     S
C18    N19     1.410   .     S
N19    C42     1.297   .     D
N20    C40     1.297   .     D
N21    C41     1.297   .     D
C22    C25     1.380   .     S
C22    C37     1.402   .     D
C22    H55     1.094   .     S
C23    C26     1.380   .     S
C23    C38     1.402   .     D
C23    H56     1.094   .     S
C24    C27     1.380   .     S
C24    C39     1.402   .     D
C24    H57     1.094   .     S
C25    C28     1.404   .     D
C25    H58     1.092   .     S
C26    C29     1.404   .     D
C26    H59     1.092   .     S
C27    C30     1.404   .     D
C27    H60     1.092   .     S
C28    C31     1.403   .     S
C28    N71     1.423   .     S
C29    C32     1.403   .     S
C29    N71     1.423   .     S
C30    C33     1.403   .     S
C30    N71     1.423   .     S
C31    C34     1.381   .     D
C31    H61     1.092   .     S
C32    C35     1.381   .     D
C32    H62     1.092   .     S
C33    C36     1.381   .     D
C33    H63     1.092   .     S
C34    C37     1.401   .     S
C34    H64     1.095   .     S
C35    C38     1.401   .     S
C35    H65     1.095   .     S
C36    C39     1.401   .     S
C36    H66     1.095   .     S
C37    C41     1.466   .     S
C38    C42     1.466   .     S
C39    C40     1.466   .     S
C40    H67     1.119   .     S
C41    H68     1.119   .     S
C42    H69     1.119   .     S
H46    C4      1.092   1_455 S
H48    C6      1.092   1_565 S
H49    C10     1.092   1_565 S
H50    C11     1.092   1_455 S
N70    C7      1.424   1_455 S
N70    C8      1.424   1_445 S
