data_488
_audit_creation_date              2023-09-08
_audit_creation_method            'Materials Studio'
_symmetry_space_group_name_H-M    'P1'
_symmetry_Int_Tables_number       1
_symmetry_cell_setting            triclinic
loop_
_symmetry_equiv_pos_as_xyz
  x,y,z
_cell_length_a                    23.4586
_cell_length_b                    23.4586
_cell_length_c                    3.8991
_cell_angle_alpha                 90.0000
_cell_angle_beta                  90.0000
_cell_angle_gamma                 120.0000
loop_
_atom_site_label
_atom_site_type_symbol
_atom_site_fract_x
_atom_site_fract_y
_atom_site_fract_z
_atom_site_U_iso_or_equiv
_atom_site_adp_type
_atom_site_occupancy
C1     C     0.86948   0.82533   0.30775   0.00000  Uiso   1.00
C2     C     0.90333   0.89322   0.29438   0.00000  Uiso   1.00
C3     C     0.96541   0.92987   0.44937   0.00000  Uiso   1.00
C4     C     0.99234   0.89513   0.61074   0.00000  Uiso   1.00
C5     C     0.95891   0.82720   0.62013   0.00000  Uiso   1.00
C6     C     0.89604   0.79073   0.47314   0.00000  Uiso   1.00
N7     N     0.86454   0.14292   0.46933   0.00000  Uiso   1.00
C8     C     0.41640   0.18581   0.47434   0.00000  Uiso   1.00
C9     C     0.48406   0.21405   0.46698   0.00000  Uiso   1.00
C10    C     0.52486   0.27475   0.62632   0.00000  Uiso   1.00
C11    C     0.49507   0.30611   0.79253   0.00000  Uiso   1.00
C12    C     0.42736   0.27787   0.80043   0.00000  Uiso   1.00
C13    C     0.38671   0.21718   0.64162   0.00000  Uiso   1.00
C14    C     0.59786   0.30492   0.62192   0.00000  Uiso   1.00
C15    C     0.62673   0.26531   0.62164   0.00000  Uiso   1.00
C16    C     0.87229   0.68505   0.65322   0.00000  Uiso   1.00
H17    H     0.82127   0.79784   0.18476   0.00000  Uiso   1.00
H18    H     0.88113   0.91789   0.15764   0.00000  Uiso   1.00
H19    H     0.04026   0.92152   0.73652   0.00000  Uiso   1.00
H20    H     0.98235   0.80294   0.74994   0.00000  Uiso   1.00
H21    H     0.38538   0.13867   0.34601   0.00000  Uiso   1.00
H22    H     0.50552   0.18889   0.32669   0.00000  Uiso   1.00
H23    H     0.52507   0.35270   0.92758   0.00000  Uiso   1.00
H24    H     0.40542   0.30309   0.93632   0.00000  Uiso   1.00
H25    H     0.59526   0.21173   0.62215   0.00000  Uiso   1.00
H26    H     0.91612   0.70493   0.82666   0.00000  Uiso   1.00
C27    C     0.17467   0.04415   0.30775   0.00000  Uiso   1.00
C28    C     0.10678   0.01011   0.29438   0.00000  Uiso   1.00
C29    C     0.07013   0.03554   0.44937   0.00000  Uiso   1.00
C30    C     0.10487   0.09721   0.61074   0.00000  Uiso   1.00
C31    C     0.17280   0.13171   0.62013   0.00000  Uiso   1.00
C32    C     0.20927   0.10531   0.47314   0.00000  Uiso   1.00
N33    N     0.85708   0.72162   0.46933   0.00000  Uiso   1.00
C34    C     0.81419   0.23059   0.47434   0.00000  Uiso   1.00
C35    C     0.78595   0.27001   0.46698   0.00000  Uiso   1.00
C36    C     0.72525   0.25011   0.62632   0.00000  Uiso   1.00
C37    C     0.69389   0.18896   0.79253   0.00000  Uiso   1.00
C38    C     0.72213   0.14949   0.80043   0.00000  Uiso   1.00
C39    C     0.78282   0.16953   0.64162   0.00000  Uiso   1.00
C40    C     0.69508   0.29294   0.62192   0.00000  Uiso   1.00
C41    C     0.73469   0.36142   0.62164   0.00000  Uiso   1.00
C42    C     0.31495   0.18724   0.65322   0.00000  Uiso   1.00
H43    H     0.20216   0.02343   0.18476   0.00000  Uiso   1.00
H44    H     0.08211   0.96324   0.15764   0.00000  Uiso   1.00
H45    H     0.07848   0.11874   0.73652   0.00000  Uiso   1.00
H46    H     0.19706   0.17941   0.74994   0.00000  Uiso   1.00
H47    H     0.86133   0.24671   0.34601   0.00000  Uiso   1.00
H48    H     0.81111   0.31663   0.32669   0.00000  Uiso   1.00
H49    H     0.64730   0.17237   0.92758   0.00000  Uiso   1.00
H50    H     0.69691   0.10233   0.93632   0.00000  Uiso   1.00
H51    H     0.78827   0.38353   0.62215   0.00000  Uiso   1.00
H52    H     0.29507   0.21119   0.82666   0.00000  Uiso   1.00
C53    C     0.95585   0.13052   0.30775   0.00000  Uiso   1.00
C54    C     0.98989   0.09667   0.29438   0.00000  Uiso   1.00
C55    C     0.96446   0.03459   0.44937   0.00000  Uiso   1.00
C56    C     0.90279   0.00766   0.61074   0.00000  Uiso   1.00
C57    C     0.86829   0.04109   0.62013   0.00000  Uiso   1.00
C58    C     0.89469   0.10396   0.47314   0.00000  Uiso   1.00
N59    N     0.27838   0.13546   0.46933   0.00000  Uiso   1.00
C60    C     0.76941   0.58360   0.47434   0.00000  Uiso   1.00
C61    C     0.72999   0.51594   0.46698   0.00000  Uiso   1.00
C62    C     0.74989   0.47514   0.62632   0.00000  Uiso   1.00
C63    C     0.81104   0.50493   0.79253   0.00000  Uiso   1.00
C64    C     0.85051   0.57264   0.80043   0.00000  Uiso   1.00
C65    C     0.83047   0.61329   0.64162   0.00000  Uiso   1.00
C66    C     0.70706   0.40214   0.62192   0.00000  Uiso   1.00
C67    C     0.63858   0.37327   0.62164   0.00000  Uiso   1.00
C68    C     0.81276   0.12771   0.65322   0.00000  Uiso   1.00
H69    H     0.97657   0.17873   0.18476   0.00000  Uiso   1.00
H70    H     0.03676   0.11887   0.15764   0.00000  Uiso   1.00
H71    H     0.88126   0.95974   0.73652   0.00000  Uiso   1.00
H72    H     0.82059   0.01765   0.74994   0.00000  Uiso   1.00
H73    H     0.75329   0.61462   0.34601   0.00000  Uiso   1.00
H74    H     0.68337   0.49448   0.32669   0.00000  Uiso   1.00
H75    H     0.82763   0.47493   0.92758   0.00000  Uiso   1.00
H76    H     0.89767   0.59458   0.93632   0.00000  Uiso   1.00
H77    H     0.61647   0.40474   0.62215   0.00000  Uiso   1.00
H78    H     0.78881   0.08388   0.82666   0.00000  Uiso   1.00
N79    N     0.00000   0.00000   0.44289   0.00000  Uiso   1.00
loop_
_geom_bond_atom_site_label_1
_geom_bond_atom_site_label_2
_geom_bond_distance
_geom_bond_site_symmetry_2
_ccdc_geom_bond_type
C1     C2      1.380   .     S
C1     C6      1.403   .     D
C1     H17     1.093   .     S
C2     C3      1.405   .     D
C2     H18     1.092   .     S
C3     C4      1.405   .     S
C3     N79     1.425   1_665 S
C4     C5      1.381   .     D
C4     H19     1.092   1_655 S
C5     C6      1.405   .     S
C5     H20     1.093   .     S
C6     N33     1.408   .     S
N7     C58     1.408   .     S
N7     C68     1.297   .     D
C8     C9      1.381   .     D
C8     C13     1.402   .     S
C8     H21     1.095   .     S
C9     C10     1.402   .     S
C9     H22     1.095   .     S
C10    C11     1.401   .     D
C10    C14     1.491   .     S
C11    C12     1.382   .     S
C11    H23     1.094   .     S
C12    C13     1.401   .     D
C12    H24     1.096   .     S
C13    C42     1.465   .     S
C14    C15     1.397   .     D
C14    C67     1.397   .     S
C15    H25     1.094   .     S
C15    C40     1.397   .     S
C16    H26     1.119   .     S
C16    N33     1.297   .     D
C16    C65     1.465   .     S
H19    C4      1.092   1_455 S
C27    C28     1.380   .     S
C27    C32     1.403   .     D
C27    H43     1.093   .     S
C28    C29     1.405   .     D
C28    H44     1.092   1_545 S
C29    C30     1.405   .     S
C29    N79     1.425   .     S
C30    C31     1.381   .     D
C30    H45     1.092   .     S
C31    C32     1.405   .     S
C31    H46     1.093   .     S
C32    N59     1.408   .     S
C34    C35     1.381   .     D
C34    C39     1.402   .     S
C34    H47     1.095   .     S
C35    C36     1.402   .     S
C35    H48     1.095   .     S
C36    C37     1.401   .     D
C36    C40     1.491   .     S
C37    C38     1.382   .     S
C37    H49     1.094   .     S
C38    C39     1.401   .     D
C38    H50     1.096   .     S
C39    C68     1.465   .     S
C40    C41     1.397   .     D
C41    H51     1.094   .     S
C41    C66     1.397   .     S
C42    H52     1.119   .     S
C42    N59     1.297   .     D
H44    C28     1.092   1_565 S
C53    C54     1.380   .     S
C53    C58     1.403   .     D
C53    H69     1.093   .     S
C54    C55     1.405   .     D
C54    H70     1.092   1_655 S
C55    C56     1.405   .     S
C55    N79     1.425   1_655 S
C56    C57     1.381   .     D
C56    H71     1.092   1_545 S
C57    C58     1.405   .     S
C57    H72     1.093   .     S
C60    C61     1.381   .     S
C60    C65     1.402   .     D
C60    H73     1.095   .     S
C61    C62     1.402   .     D
C61    H74     1.095   .     S
C62    C63     1.401   .     S
C62    C66     1.491   .     S
C63    C64     1.382   .     D
C63    H75     1.094   .     S
C64    C65     1.401   .     S
C64    H76     1.096   .     S
C66    C67     1.397   .     D
C67    H77     1.094   .     S
C68    H78     1.119   .     S
H70    C54     1.092   1_455 S
H71    C56     1.092   1_565 S
N79    C55     1.425   1_455 S
N79    C3      1.425   1_445 S
