data_489
_audit_creation_date              2023-09-08
_audit_creation_method            'Materials Studio'
_symmetry_space_group_name_H-M    'P1'
_symmetry_Int_Tables_number       1
_symmetry_cell_setting            triclinic
loop_
_symmetry_equiv_pos_as_xyz
  x,y,z
_cell_length_a                    15.0000
_cell_length_b                    15.0000
_cell_length_c                    3.7560
_cell_angle_alpha                 90.0000
_cell_angle_beta                  90.0000
_cell_angle_gamma                 120.0000
loop_
_atom_site_label
_atom_site_type_symbol
_atom_site_fract_x
_atom_site_fract_y
_atom_site_fract_z
_atom_site_U_iso_or_equiv
_atom_site_adp_type
_atom_site_occupancy
N1     N     0.23499  -0.20475   0.15512   0.00000  Uiso   1.00
C2     C     0.27474  -0.26877   0.14584   0.00000  Uiso   1.00
N3     N     0.37851  -0.22901   0.15512   0.00000  Uiso   1.00
N4     N     0.29115  -0.09638   0.13908   0.00000  Uiso   1.00
N5     N     0.10236  -0.42474   0.13908   0.00000  Uiso   1.00
N6     N     0.21073  -0.37253   0.15512   0.00000  Uiso   1.00
N7     N     0.43072  -0.28518   0.13909   0.00000  Uiso   1.00
C8     C     0.38955  -0.37877   0.02167   0.00000  Uiso   1.00
C9     C     0.44699  -0.43407   0.01615   0.00000  Uiso   1.00
C10    C     0.54617  -0.39055   0.15989   0.00000  Uiso   1.00
C11    C     0.59852  -0.44565   0.15693   0.00000  Uiso   1.00
C12    C     0.55353  -0.54470   0.00700   0.00000  Uiso   1.00
C13    C     0.45417  -0.58700  -0.13876   0.00000  Uiso   1.00
C14    C     0.40115  -0.53252  -0.13220   0.00000  Uiso   1.00
C15    C     0.45163  -0.76810   0.15692   0.00000  Uiso   1.00
C16    C     0.55067  -0.71404   0.00700   0.00000  Uiso   1.00
N17    N     0.60807  -0.60210   0.00477   0.00000  Uiso   1.00
C18    C     0.72002  -0.54756   0.00700   0.00000  Uiso   1.00
C19    C     0.77408  -0.59254   0.15692   0.00000  Uiso   1.00
C20    C     0.59297  -0.77110  -0.13874   0.00000  Uiso   1.00
C21    C     0.39652  -0.87556   0.15988   0.00000  Uiso   1.00
C22    C     0.44004  -0.93122   0.01615   0.00000  Uiso   1.00
C23    C     0.53850  -0.87860  -0.13218   0.00000  Uiso   1.00
C24    C     0.88154  -0.54019   0.15989   0.00000  Uiso   1.00
C25    C     0.93720  -0.44101   0.01615   0.00000  Uiso   1.00
C26    C     0.88457  -0.39518  -0.13220   0.00000  Uiso   1.00
C27    C     0.77707  -0.44820  -0.13876   0.00000  Uiso   1.00
C28    C     0.04993   0.61643   0.02167   0.00000  Uiso   1.00
C29    C     0.38475   0.95605   0.02168   0.00000  Uiso   1.00
H30    H     0.43057  -0.14457   0.17731   0.00000  Uiso   1.00
H31    H     0.25165  -0.41679   0.17763   0.00000  Uiso   1.00
H32    H     0.30689  -0.41984  -0.08027   0.00000  Uiso   1.00
H33    H     0.58435  -0.30996   0.27968   0.00000  Uiso   1.00
H34    H     0.67883  -0.40927   0.27832   0.00000  Uiso   1.00
H35    H     0.41579  -0.66683  -0.26458   0.00000  Uiso   1.00
H36    H     0.32023  -0.56845  -0.24818   0.00000  Uiso   1.00
H37    H     0.41524  -0.72418   0.27830   0.00000  Uiso   1.00
H38    H     0.73016  -0.67285   0.27832   0.00000  Uiso   1.00
H39    H     0.67281  -0.72965  -0.26455   0.00000  Uiso   1.00
H40    H     0.31593  -0.91797   0.27966   0.00000  Uiso   1.00
H41    H     0.57464  -0.92337  -0.24838   0.00000  Uiso   1.00
H42    H     0.92395  -0.57837   0.27968   0.00000  Uiso   1.00
H43    H     0.92934  -0.31427  -0.24840   0.00000  Uiso   1.00
H44    H     0.73435  -0.41099  -0.26350   0.00000  Uiso   1.00
H45    H     0.09152   0.69908  -0.08026   0.00000  Uiso   1.00
H46    H     0.42581   0.91446  -0.08025   0.00000  Uiso   1.00
H47    H     0.14959   0.75488   0.15511   0.00000  Uiso   1.00
Cl48   Cl    0.17302   0.89779   0.13906   0.00000  Uiso   1.00
loop_
_geom_bond_atom_site_label_1
_geom_bond_atom_site_label_2
_geom_bond_distance
_geom_bond_site_symmetry_2
_ccdc_geom_bond_type
N1     C2      1.361   .     D
N1     N4      1.409   .     S
N1     H47     1.110   1_545 S
C2     N3      1.361   .     S
C2     N6      1.361   .     S
N3     N7      1.409   .     S
N3     H30     1.110   .     S
N4     C29     1.296   1_545 S
N4     Cl48    1.730   1_545 S
N5     N6      1.409   .     S
N5     C28     1.296   1_545 D
N6     H31     1.110   .     S
N7     C8      1.296   .     D
C8     C9      1.465   .     S
C8     H32     1.140   .     S
C9     C10     1.400   .     D
C9     C14     1.396   .     S
C10    C11     1.396   .     S
C10    H33     1.140   .     S
C11    C12     1.406   .     D
C11    H34     1.140   .     S
C12    C13     1.406   .     S
C12    N17     1.454   .     S
C13    C14     1.397   .     D
C13    H35     1.140   .     S
C14    H36     1.140   .     S
C15    C16     1.406   .     S
C15    C21     1.396   .     D
C15    H37     1.140   .     S
C16    N17     1.454   .     D
C16    C20     1.406   .     S
N17    C18     1.454   .     S
C18    C19     1.406   .     D
C18    C27     1.406   .     S
C19    C24     1.396   .     S
C19    H38     1.140   .     S
C20    C23     1.397   .     D
C20    H39     1.140   .     S
C21    C22     1.400   .     S
C21    H40     1.140   .     S
C22    C23     1.396   .     S
C22    C29     1.465   1_535 D
C23    H41     1.140   .     S
C24    C25     1.400   .     D
C24    H42     1.140   .     S
C25    C26     1.396   .     S
C25    C28     1.465   1_645 S
C26    C27     1.397   .     D
C26    H43     1.140   .     S
C27    H44     1.140   .     S
C28    N5      1.296   1_565 D
C28    C25     1.465   1_465 S
C28    H45     1.140   .     S
C29    C22     1.465   1_575 D
C29    N4      1.296   1_565 S
C29    H46     1.140   .     S
H47    N1      1.110   1_565 S
Cl48   N4      1.730   1_565 S
