data_491
_audit_creation_date              2023-09-08
_audit_creation_method            'Materials Studio'
_symmetry_space_group_name_H-M    'P1'
_symmetry_Int_Tables_number       1
_symmetry_cell_setting            triclinic
loop_
_symmetry_equiv_pos_as_xyz
  x,y,z
_cell_length_a                    41.8503
_cell_length_b                    41.8503
_cell_length_c                    3.4997
_cell_angle_alpha                 90.0000
_cell_angle_beta                  90.0000
_cell_angle_gamma                 120.0000
loop_
_atom_site_label
_atom_site_type_symbol
_atom_site_fract_x
_atom_site_fract_y
_atom_site_fract_z
_atom_site_U_iso_or_equiv
_atom_site_adp_type
_atom_site_occupancy
C1     C     0.96350   0.48434   0.34126   0.00000  Uiso   1.00
C2     C     0.97826   0.46310   0.34781   0.00000  Uiso   1.00
C3     C     0.01415   0.47828   0.33558   0.00000  Uiso   1.00
C4     C     0.92589   0.47042   0.37591   0.00000  Uiso   1.00
O5     O     0.91323   0.48624   0.23359   0.00000  Uiso   1.00
N6     N     0.90524   0.44077   0.56931   0.00000  Uiso   1.00
N7     N     0.86975   0.42777   0.58270   0.00000  Uiso   1.00
C8     C     0.84917   0.39865   0.74154   0.00000  Uiso   1.00
C9     C     0.81204   0.38577   0.75372   0.00000  Uiso   1.00
C10    C     0.79823   0.40560   0.61874   0.00000  Uiso   1.00
C11    C     0.76294   0.39274   0.62518   0.00000  Uiso   1.00
C12    C     0.74046   0.36003   0.77683   0.00000  Uiso   1.00
C13    C     0.75476   0.34059   0.91788   0.00000  Uiso   1.00
C14    C     0.79002   0.35316   0.90144   0.00000  Uiso   1.00
C15    C     0.70253   0.34631   0.78500   0.00000  Uiso   1.00
C16    C     0.68918   0.36862   0.78614   0.00000  Uiso   1.00
O17    O     0.95676   0.42722   0.33843   0.00000  Uiso   1.00
H18    H     0.91568   0.42860   0.72663   0.00000  Uiso   1.00
H19    H     0.85923   0.38342   0.86483   0.00000  Uiso   1.00
H20    H     0.81462   0.43079   0.49949   0.00000  Uiso   1.00
H21    H     0.75358   0.40832   0.49827   0.00000  Uiso   1.00
H22    H     0.73912   0.31599   1.05175   0.00000  Uiso   1.00
H23    H     0.80020   0.33760   1.01142   0.00000  Uiso   1.00
H24    H     0.70654   0.39584   0.78592   0.00000  Uiso   1.00
C25    C     0.03544   0.51391   0.31189   0.00000  Uiso   1.00
C26    C     0.02069   0.53490   0.26991   0.00000  Uiso   1.00
C27    C     0.98482   0.51984   0.29431   0.00000  Uiso   1.00
C28    C     0.07313   0.52835   0.31734   0.00000  Uiso   1.00
O29    O     0.08523   0.51191   0.17844   0.00000  Uiso   1.00
N30    N     0.09441   0.55922   0.48524   0.00000  Uiso   1.00
N31    N     0.12992   0.57232   0.48724   0.00000  Uiso   1.00
C32    C     0.15090   0.60199   0.63228   0.00000  Uiso   1.00
C33    C     0.18804   0.61487   0.63555   0.00000  Uiso   1.00
C34    C     0.20160   0.59491   0.49772   0.00000  Uiso   1.00
C35    C     0.23687   0.60766   0.49894   0.00000  Uiso   1.00
C36    C     0.25961   0.64040   0.64839   0.00000  Uiso   1.00
C37    C     0.24557   0.66002   0.79120   0.00000  Uiso   1.00
C38    C     0.21032   0.64756   0.77972   0.00000  Uiso   1.00
C39    C     0.29751   0.65390   0.65374   0.00000  Uiso   1.00
C40    C     0.31065   0.63142   0.65456   0.00000  Uiso   1.00
O41    O     0.04249   0.57016   0.19765   0.00000  Uiso   1.00
H42    H     0.08432   0.57239   0.63034   0.00000  Uiso   1.00
H43    H     0.14113   0.61754   0.75340   0.00000  Uiso   1.00
H44    H     0.18501   0.56966   0.38076   0.00000  Uiso   1.00
H45    H     0.24602   0.59196   0.37054   0.00000  Uiso   1.00
H46    H     0.26142   0.68466   0.92338   0.00000  Uiso   1.00
H47    H     0.20035   0.66323   0.89182   0.00000  Uiso   1.00
H48    H     0.29316   0.60423   0.65459   0.00000  Uiso   1.00
C49    C     0.02820   0.58964   0.04410   0.00000  Uiso   1.00
C50    C     0.96879   0.40662   0.51558   0.00000  Uiso   1.00
H51    H     0.02578   0.46232   0.34074   0.00000  Uiso   1.00
H52    H     0.97320   0.53577   0.28179   0.00000  Uiso   1.00
C53    C     0.05670   0.62341  -0.09442   0.00000  Uiso   1.00
C54    C     0.05149   0.64947  -0.17014   0.00000  Uiso   1.00
C55    C     0.93848   0.37371   0.64682   0.00000  Uiso   1.00
C56    C     0.93460   0.34316   0.55800   0.00000  Uiso   1.00
H57    H     0.01299   0.59434   0.25670   0.00000  Uiso   1.00
H58    H     0.01065   0.57539  -0.18983   0.00000  Uiso   1.00
H59    H     0.98521   0.42022   0.76015   0.00000  Uiso   1.00
H60    H     0.98484   0.40143   0.31897   0.00000  Uiso   1.00
H61    H     0.08175   0.62635  -0.14949   0.00000  Uiso   1.00
H62    H     0.02654   0.64710  -0.12676   0.00000  Uiso   1.00
H63    H     0.07232   0.67343  -0.27794   0.00000  Uiso   1.00
H64    H     0.91908   0.37479   0.81948   0.00000  Uiso   1.00
H65    H     0.91230   0.31995   0.65808   0.00000  Uiso   1.00
H66    H     0.95350   0.34097   0.38770   0.00000  Uiso   1.00
C67    C     0.51566   0.47916   0.34126   0.00000  Uiso   1.00
C68    C     0.53690   0.51516   0.34781   0.00000  Uiso   1.00
C69    C     0.52172   0.53587   0.33558   0.00000  Uiso   1.00
C70    C     0.52958   0.45547   0.37591   0.00000  Uiso   1.00
O71    O     0.51376   0.42699   0.23359   0.00000  Uiso   1.00
N72    N     0.55923   0.46447   0.56931   0.00000  Uiso   1.00
N73    N     0.57223   0.44198   0.58270   0.00000  Uiso   1.00
C74    C     0.60135   0.45052   0.74154   0.00000  Uiso   1.00
C75    C     0.61423   0.42627   0.75372   0.00000  Uiso   1.00
C76    C     0.59440   0.39263   0.61874   0.00000  Uiso   1.00
C77    C     0.60726   0.37020   0.62518   0.00000  Uiso   1.00
C78    C     0.63997   0.38043   0.77683   0.00000  Uiso   1.00
C79    C     0.65941   0.41417   0.91788   0.00000  Uiso   1.00
C80    C     0.64684   0.43686   0.90144   0.00000  Uiso   1.00
C81    C     0.65369   0.35622   0.78500   0.00000  Uiso   1.00
C82    C     0.63138   0.32056   0.78614   0.00000  Uiso   1.00
O83    O     0.57278   0.52954   0.33843   0.00000  Uiso   1.00
H84    H     0.57140   0.48708   0.72663   0.00000  Uiso   1.00
H85    H     0.61658   0.47581   0.86483   0.00000  Uiso   1.00
H86    H     0.56921   0.38383   0.49949   0.00000  Uiso   1.00
H87    H     0.59168   0.34526   0.49827   0.00000  Uiso   1.00
H88    H     0.68401   0.42313   1.05175   0.00000  Uiso   1.00
H89    H     0.66240   0.46260   1.01142   0.00000  Uiso   1.00
H90    H     0.60416   0.31070   0.78592   0.00000  Uiso   1.00
C91    C     0.48609   0.52153   0.31189   0.00000  Uiso   1.00
C92    C     0.46510   0.48579   0.26991   0.00000  Uiso   1.00
C93    C     0.48016   0.46498   0.29431   0.00000  Uiso   1.00
C94    C     0.47165   0.54478   0.31734   0.00000  Uiso   1.00
O95    O     0.48809   0.57332   0.17844   0.00000  Uiso   1.00
N96    N     0.44078   0.53519   0.48524   0.00000  Uiso   1.00
N97    N     0.42768   0.55760   0.48724   0.00000  Uiso   1.00
C98    C     0.39801   0.54891   0.63228   0.00000  Uiso   1.00
C99    C     0.38513   0.57317   0.63555   0.00000  Uiso   1.00
C100   C     0.40509   0.60669   0.49772   0.00000  Uiso   1.00
C101   C     0.39234   0.62921   0.49894   0.00000  Uiso   1.00
C102   C     0.35960   0.61921   0.64839   0.00000  Uiso   1.00
C103   C     0.33998   0.58555   0.79120   0.00000  Uiso   1.00
C104   C     0.35244   0.56276   0.77972   0.00000  Uiso   1.00
C105   C     0.34610   0.64361   0.65374   0.00000  Uiso   1.00
C106   C     0.36858   0.67923   0.65456   0.00000  Uiso   1.00
O107   O     0.42984   0.47233   0.19765   0.00000  Uiso   1.00
H108   H     0.42761   0.51193   0.63034   0.00000  Uiso   1.00
H109   H     0.38246   0.52359   0.75340   0.00000  Uiso   1.00
H110   H     0.43034   0.61535   0.38076   0.00000  Uiso   1.00
H111   H     0.40804   0.65406   0.37054   0.00000  Uiso   1.00
H112   H     0.31534   0.57676   0.92338   0.00000  Uiso   1.00
H113   H     0.33677   0.53712   0.89182   0.00000  Uiso   1.00
H114   H     0.39577   0.68893   0.65459   0.00000  Uiso   1.00
C115   C     0.41036   0.43856   0.04410   0.00000  Uiso   1.00
C116   C     0.59338   0.56217   0.51558   0.00000  Uiso   1.00
H117   H     0.53768   0.56346   0.34074   0.00000  Uiso   1.00
H118   H     0.46423   0.43743   0.28179   0.00000  Uiso   1.00
C119   C     0.37659   0.43329  -0.09442   0.00000  Uiso   1.00
C120   C     0.35053   0.40202  -0.17014   0.00000  Uiso   1.00
C121   C     0.62629   0.56477   0.64682   0.00000  Uiso   1.00
C122   C     0.65684   0.59144   0.55800   0.00000  Uiso   1.00
H123   H     0.40566   0.41865   0.25670   0.00000  Uiso   1.00
H124   H     0.42461   0.43526  -0.18983   0.00000  Uiso   1.00
H125   H     0.57978   0.56499   0.76015   0.00000  Uiso   1.00
H126   H     0.59857   0.58341   0.31897   0.00000  Uiso   1.00
H127   H     0.37365   0.45540  -0.14949   0.00000  Uiso   1.00
H128   H     0.35290   0.37944  -0.12676   0.00000  Uiso   1.00
H129   H     0.32657   0.39889  -0.27794   0.00000  Uiso   1.00
H130   H     0.62521   0.54429   0.81948   0.00000  Uiso   1.00
H131   H     0.68005   0.59235   0.65808   0.00000  Uiso   1.00
H132   H     0.65903   0.61253   0.38770   0.00000  Uiso   1.00
C133   C     0.52084   0.03650   0.34126   0.00000  Uiso   1.00
C134   C     0.48484   0.02174   0.34781   0.00000  Uiso   1.00
C135   C     0.46413   0.98585   0.33558   0.00000  Uiso   1.00
C136   C     0.54453   0.07411   0.37591   0.00000  Uiso   1.00
O137   O     0.57301   0.08677   0.23359   0.00000  Uiso   1.00
N138   N     0.53553   0.09476   0.56931   0.00000  Uiso   1.00
N139   N     0.55802   0.13025   0.58270   0.00000  Uiso   1.00
C140   C     0.54948   0.15083   0.74154   0.00000  Uiso   1.00
C141   C     0.57373   0.18796   0.75372   0.00000  Uiso   1.00
C142   C     0.60737   0.20177   0.61874   0.00000  Uiso   1.00
C143   C     0.62980   0.23706   0.62518   0.00000  Uiso   1.00
C144   C     0.61957   0.25954   0.77683   0.00000  Uiso   1.00
C145   C     0.58583   0.24524   0.91788   0.00000  Uiso   1.00
C146   C     0.56314   0.20998   0.90144   0.00000  Uiso   1.00
C147   C     0.64378   0.29747   0.78500   0.00000  Uiso   1.00
C148   C     0.67944   0.31082   0.78614   0.00000  Uiso   1.00
O149   O     0.47046   0.04324   0.33843   0.00000  Uiso   1.00
H150   H     0.51292   0.08432   0.72663   0.00000  Uiso   1.00
H151   H     0.52419   0.14077   0.86483   0.00000  Uiso   1.00
H152   H     0.61617   0.18538   0.49949   0.00000  Uiso   1.00
H153   H     0.65474   0.24642   0.49827   0.00000  Uiso   1.00
H154   H     0.57687   0.26088   1.05175   0.00000  Uiso   1.00
H155   H     0.53740   0.19980   1.01142   0.00000  Uiso   1.00
H156   H     0.68930   0.29346   0.78592   0.00000  Uiso   1.00
C157   C     0.47847   0.96456   0.31189   0.00000  Uiso   1.00
C158   C     0.51421   0.97931   0.26991   0.00000  Uiso   1.00
C159   C     0.53502   0.01518   0.29431   0.00000  Uiso   1.00
C160   C     0.45522   0.92687   0.31734   0.00000  Uiso   1.00
O161   O     0.42668   0.91477   0.17844   0.00000  Uiso   1.00
N162   N     0.46481   0.90559   0.48524   0.00000  Uiso   1.00
N163   N     0.44240   0.87008   0.48724   0.00000  Uiso   1.00
C164   C     0.45109   0.84910   0.63228   0.00000  Uiso   1.00
C165   C     0.42683   0.81196   0.63555   0.00000  Uiso   1.00
C166   C     0.39331   0.79840   0.49772   0.00000  Uiso   1.00
C167   C     0.37079   0.76313   0.49894   0.00000  Uiso   1.00
C168   C     0.38079   0.74039   0.64839   0.00000  Uiso   1.00
C169   C     0.41445   0.75443   0.79120   0.00000  Uiso   1.00
C170   C     0.43724   0.78968   0.77972   0.00000  Uiso   1.00
C171   C     0.35639   0.70249   0.65374   0.00000  Uiso   1.00
C172   C     0.32077   0.68935   0.65456   0.00000  Uiso   1.00
O173   O     0.52767   0.95751   0.19765   0.00000  Uiso   1.00
H174   H     0.48807   0.91568   0.63034   0.00000  Uiso   1.00
H175   H     0.47641   0.85887   0.75340   0.00000  Uiso   1.00
H176   H     0.38465   0.81499   0.38076   0.00000  Uiso   1.00
H177   H     0.34594   0.75398   0.37054   0.00000  Uiso   1.00
H178   H     0.42324   0.73858   0.92338   0.00000  Uiso   1.00
H179   H     0.46288   0.79965   0.89182   0.00000  Uiso   1.00
H180   H     0.31107   0.70684   0.65459   0.00000  Uiso   1.00
C181   C     0.56144   0.97180   0.04410   0.00000  Uiso   1.00
C182   C     0.43783   0.03121   0.51558   0.00000  Uiso   1.00
H183   H     0.43654   0.97422   0.34074   0.00000  Uiso   1.00
H184   H     0.56257   0.02680   0.28179   0.00000  Uiso   1.00
C185   C     0.56671   0.94330  -0.09442   0.00000  Uiso   1.00
C186   C     0.59798   0.94851  -0.17014   0.00000  Uiso   1.00
C187   C     0.43523   0.06152   0.64682   0.00000  Uiso   1.00
C188   C     0.40856   0.06540   0.55800   0.00000  Uiso   1.00
H189   H     0.58135   0.98701   0.25670   0.00000  Uiso   1.00
H190   H     0.56474   0.98935  -0.18983   0.00000  Uiso   1.00
H191   H     0.43501   0.01479   0.76015   0.00000  Uiso   1.00
H192   H     0.41659   0.01516   0.31897   0.00000  Uiso   1.00
H193   H     0.54460   0.91825  -0.14949   0.00000  Uiso   1.00
H194   H     0.62056   0.97346  -0.12676   0.00000  Uiso   1.00
H195   H     0.60111   0.92768  -0.27794   0.00000  Uiso   1.00
H196   H     0.45571   0.08092   0.81948   0.00000  Uiso   1.00
H197   H     0.40765   0.08770   0.65808   0.00000  Uiso   1.00
H198   H     0.38747   0.04650   0.38770   0.00000  Uiso   1.00
loop_
_geom_bond_atom_site_label_1
_geom_bond_atom_site_label_2
_geom_bond_distance
_geom_bond_site_symmetry_2
_ccdc_geom_bond_type
C1     C2      1.312   .     S
C1     C4      1.384   .     S
C1     C27     1.306   .     D
C2     C3      1.307   1_655 D
C2     O17     1.309   .     S
C3     C2      1.307   1_455 D
C3     C25     1.302   .     S
C3     H51     1.004   .     S
C4     O5      1.148   .     D
C4     N6      1.293   .     S
N6     N7      1.302   .     S
N6     H18     0.988   .     S
N7     C8      1.219   .     D
C8     C9      1.367   .     S
C8     H19     1.019   .     S
C9     C10     1.314   .     D
C9     C14     1.312   .     S
C10    C11     1.295   .     S
C10    H20     1.016   .     S
C11    C12     1.324   .     D
C11    H21     1.016   .     S
C12    C13     1.323   .     S
C12    C15     1.392   .     S
C13    C14     1.297   .     D
C13    H22     1.017   .     S
C14    H23     1.015   .     S
C15    C16     1.306   .     S
C15    C148    1.306   .     D
C16    H24     0.999   .     S
C16    C81     1.306   .     D
O17    C50     1.347   .     S
C25    C26     1.310   .     D
C25    C28     1.379   .     S
C26    C27     1.308   1_455 S
C26    O41     1.314   .     S
C27    C26     1.308   1_655 S
C27    H52     1.004   .     S
C28    O29     1.147   .     D
C28    N30     1.287   .     S
N30    N31     1.302   .     S
N30    H42     0.986   .     S
N31    C32     1.217   .     D
C32    C33     1.367   .     S
C32    H43     1.018   .     S
C33    C34     1.314   .     D
C33    C38     1.311   .     S
C34    C35     1.295   .     S
C34    H44     1.016   .     S
C35    C36     1.324   .     D
C35    H45     1.016   .     S
C36    C37     1.324   .     S
C36    C39     1.393   .     S
C37    C38     1.296   .     D
C37    H46     1.017   .     S
C38    H47     1.016   .     S
C39    C40     1.306   .     S
C39    C172    1.306   .     D
C40    H48     0.999   .     S
C40    C105    1.306   .     D
O41    C49     1.341   .     S
C49    C53     1.403   .     S
C49    H57     1.060   .     S
C49    H58     1.062   .     S
C50    C55     1.404   .     S
C50    H59     1.067   .     S
C50    H60     1.057   .     S
C53    C54     1.243   .     D
C53    H61     1.011   .     S
C54    H62     1.010   .     S
C54    H63     1.017   .     S
C55    C56     1.245   .     D
C55    H64     1.031   .     S
C56    H65     1.015   .     S
C56    H66     1.030   .     S
C67    C68     1.312   .     S
C67    C70     1.384   .     S
C67    C93     1.306   .     D
C68    C69     1.307   .     D
C68    O83     1.309   .     S
C69    C91     1.302   .     S
C69    H117    1.004   .     S
C70    O71     1.148   .     D
C70    N72     1.293   .     S
N72    N73     1.302   .     S
N72    H84     0.988   .     S
N73    C74     1.219   .     D
C74    C75     1.367   .     S
C74    H85     1.019   .     S
C75    C76     1.314   .     D
C75    C80     1.312   .     S
C76    C77     1.295   .     S
C76    H86     1.016   .     S
C77    C78     1.324   .     D
C77    H87     1.016   .     S
C78    C79     1.323   .     S
C78    C81     1.392   .     S
C79    C80     1.297   .     D
C79    H88     1.017   .     S
C80    H89     1.015   .     S
C81    C82     1.306   .     S
C82    H90     0.999   .     S
C82    C147    1.306   .     D
O83    C116    1.347   .     S
C91    C92     1.310   .     D
C91    C94     1.379   .     S
C92    C93     1.308   .     S
C92    O107    1.314   .     S
C93    H118    1.004   .     S
C94    O95     1.147   .     D
C94    N96     1.287   .     S
N96    N97     1.302   .     S
N96    H108    0.986   .     S
N97    C98     1.217   .     D
C98    C99     1.367   .     S
C98    H109    1.018   .     S
C99    C100    1.314   .     D
C99    C104    1.311   .     S
C100   C101    1.295   .     S
C100   H110    1.016   .     S
C101   C102    1.324   .     D
C101   H111    1.016   .     S
C102   C103    1.324   .     S
C102   C105    1.393   .     S
C103   C104    1.296   .     D
C103   H112    1.017   .     S
C104   H113    1.016   .     S
C105   C106    1.306   .     S
C106   H114    0.999   .     S
C106   C171    1.306   .     D
O107   C115    1.341   .     S
C115   C119    1.403   .     S
C115   H123    1.060   .     S
C115   H124    1.062   .     S
C116   C121    1.404   .     S
C116   H125    1.067   .     S
C116   H126    1.057   .     S
C119   C120    1.243   .     D
C119   H127    1.011   .     S
C120   H128    1.010   .     S
C120   H129    1.017   .     S
C121   C122    1.245   .     D
C121   H130    1.031   .     S
C122   H131    1.015   .     S
C122   H132    1.030   .     S
C133   C134    1.312   .     S
C133   C136    1.384   .     S
C133   C159    1.306   .     D
C134   C135    1.307   1_545 D
C134   O149    1.309   .     S
C135   C134    1.307   1_565 D
C135   C157    1.302   .     S
C135   H183    1.004   .     S
C136   O137    1.148   .     D
C136   N138    1.293   .     S
N138   N139    1.302   .     S
N138   H150    0.988   .     S
N139   C140    1.219   .     D
C140   C141    1.367   .     S
C140   H151    1.019   .     S
C141   C142    1.314   .     D
C141   C146    1.312   .     S
C142   C143    1.295   .     S
C142   H152    1.016   .     S
C143   C144    1.324   .     D
C143   H153    1.016   .     S
C144   C145    1.323   .     S
C144   C147    1.392   .     S
C145   C146    1.297   .     D
C145   H154    1.017   .     S
C146   H155    1.015   .     S
C147   C148    1.306   .     S
C148   H156    0.999   .     S
O149   C182    1.347   .     S
C157   C158    1.310   .     D
C157   C160    1.379   .     S
C158   C159    1.308   1_565 S
C158   O173    1.314   .     S
C159   C158    1.308   1_545 S
C159   H184    1.004   .     S
C160   O161    1.147   .     D
C160   N162    1.287   .     S
N162   N163    1.302   .     S
N162   H174    0.986   .     S
N163   C164    1.217   .     D
C164   C165    1.367   .     S
C164   H175    1.018   .     S
C165   C166    1.314   .     D
C165   C170    1.311   .     S
C166   C167    1.295   .     S
C166   H176    1.016   .     S
C167   C168    1.324   .     D
C167   H177    1.016   .     S
C168   C169    1.324   .     S
C168   C171    1.393   .     S
C169   C170    1.296   .     D
C169   H178    1.017   .     S
C170   H179    1.016   .     S
C171   C172    1.306   .     S
C172   H180    0.999   .     S
O173   C181    1.341   .     S
C181   C185    1.403   .     S
C181   H189    1.060   .     S
C181   H190    1.062   .     S
C182   C187    1.404   .     S
C182   H191    1.067   .     S
C182   H192    1.057   .     S
C185   C186    1.243   .     D
C185   H193    1.011   .     S
C186   H194    1.010   .     S
C186   H195    1.017   .     S
C187   C188    1.245   .     D
C187   H196    1.031   .     S
C188   H197    1.015   .     S
C188   H198    1.030   .     S
