data_492
_audit_creation_date              2023-09-08
_audit_creation_method            'Materials Studio'
_symmetry_space_group_name_H-M    'P1'
_symmetry_Int_Tables_number       1
_symmetry_cell_setting            triclinic
loop_
_symmetry_equiv_pos_as_xyz
  x,y,z
_cell_length_a                    44.8692
_cell_length_b                    44.8692
_cell_length_c                    3.3266
_cell_angle_alpha                 90.0000
_cell_angle_beta                  90.0000
_cell_angle_gamma                 120.0000
loop_
_atom_site_label
_atom_site_type_symbol
_atom_site_fract_x
_atom_site_fract_y
_atom_site_fract_z
_atom_site_U_iso_or_equiv
_atom_site_adp_type
_atom_site_occupancy
C1     C     0.96427   0.48483   0.53195   0.00000  Uiso   1.00
C2     C     0.97964   0.46516   0.62073   0.00000  Uiso   1.00
C3     C     0.01537   0.48070   0.59713   0.00000  Uiso   1.00
C4     C     0.92680   0.47035   0.54809   0.00000  Uiso   1.00
O5     O     0.91549   0.48825   0.66527   0.00000  Uiso   1.00
N6     N     0.90477   0.43788   0.42293   0.00000  Uiso   1.00
N7     N     0.86954   0.42522   0.43730   0.00000  Uiso   1.00
C8     C     0.84778   0.39434   0.33122   0.00000  Uiso   1.00
C9     C     0.81097   0.38210   0.34052   0.00000  Uiso   1.00
C10    C     0.79848   0.40342   0.46105   0.00000  Uiso   1.00
C11    C     0.76353   0.39140   0.46922   0.00000  Uiso   1.00
C12    C     0.73991   0.35797   0.34305   0.00000  Uiso   1.00
C13    C     0.75300   0.33696   0.21753   0.00000  Uiso   1.00
C14    C     0.78794   0.34872   0.22307   0.00000  Uiso   1.00
C15    C     0.70222   0.34529   0.34210   0.00000  Uiso   1.00
C16    C     0.68980   0.36820   0.34174   0.00000  Uiso   1.00
O17    O     0.95853   0.43095   0.74128   0.00000  Uiso   1.00
H18    H     0.91390   0.42294   0.29630   0.00000  Uiso   1.00
H19    H     0.85664   0.37738   0.23028   0.00000  Uiso   1.00
H20    H     0.81567   0.42927   0.55806   0.00000  Uiso   1.00
H21    H     0.75556   0.40845   0.58719   0.00000  Uiso   1.00
H22    H     0.73681   0.31167   0.10085   0.00000  Uiso   1.00
H23    H     0.79707   0.33195   0.12435   0.00000  Uiso   1.00
H24    H     0.70758   0.39502   0.34108   0.00000  Uiso   1.00
C25    C     0.03586   0.51530   0.50015   0.00000  Uiso   1.00
C26    C     0.02044   0.53490   0.40824   0.00000  Uiso   1.00
C27    C     0.98471   0.51938   0.43346   0.00000  Uiso   1.00
C28    C     0.07339   0.52980   0.48955   0.00000  Uiso   1.00
O29    O     0.08476   0.51160   0.38640   0.00000  Uiso   1.00
N30    N     0.09543   0.56264   0.60285   0.00000  Uiso   1.00
N31    N     0.13062   0.57500   0.60027   0.00000  Uiso   1.00
C32    C     0.15250   0.60716   0.63438   0.00000  Uiso   1.00
C33    C     0.18919   0.61909   0.63718   0.00000  Uiso   1.00
C34    C     0.20131   0.59721   0.74429   0.00000  Uiso   1.00
C35    C     0.23620   0.60896   0.75352   0.00000  Uiso   1.00
C36    C     0.26012   0.64262   0.63729   0.00000  Uiso   1.00
C37    C     0.24729   0.66415   0.52351   0.00000  Uiso   1.00
C38    C     0.21243   0.65274   0.53335   0.00000  Uiso   1.00
C39    C     0.29781   0.65500   0.63541   0.00000  Uiso   1.00
C40    C     0.30997   0.63187   0.63488   0.00000  Uiso   1.00
O41    O     0.04144   0.56895   0.28146   0.00000  Uiso   1.00
H42    H     0.08643   0.57823   0.71255   0.00000  Uiso   1.00
H43    H     0.14389   0.62554   0.64757   0.00000  Uiso   1.00
H44    H     0.18383   0.57122   0.83426   0.00000  Uiso   1.00
H45    H     0.24381   0.59142   0.86405   0.00000  Uiso   1.00
H46    H     0.26358   0.68967   0.41443   0.00000  Uiso   1.00
H47    H     0.20350   0.66994   0.44564   0.00000  Uiso   1.00
H48    H     0.29203   0.60514   0.63401   0.00000  Uiso   1.00
C49    C     0.02660   0.58825   0.13524   0.00000  Uiso   1.00
C50    C     0.97328   0.41169   0.89120   0.00000  Uiso   1.00
H51    H     0.02781   0.46612   0.65619   0.00000  Uiso   1.00
H52    H     0.97221   0.53391   0.37406   0.00000  Uiso   1.00
H53    H     0.01755   0.59836   0.37530   0.00000  Uiso   1.00
H54    H     0.00485   0.57284  -0.06369   0.00000  Uiso   1.00
H55    H     0.04652   0.61062  -0.02896   0.00000  Uiso   1.00
H56    H     0.98244   0.40152   0.65279   0.00000  Uiso   1.00
H57    H     0.95329   0.38937   1.05540   0.00000  Uiso   1.00
H58    H     0.99493   0.42713   1.09146   0.00000  Uiso   1.00
C59    C     0.51517   0.47944   0.53195   0.00000  Uiso   1.00
C60    C     0.53484   0.51448   0.62073   0.00000  Uiso   1.00
C61    C     0.51930   0.53467   0.59713   0.00000  Uiso   1.00
C62    C     0.52965   0.45645   0.54809   0.00000  Uiso   1.00
O63    O     0.51175   0.42724   0.66527   0.00000  Uiso   1.00
N64    N     0.56212   0.46689   0.42293   0.00000  Uiso   1.00
N65    N     0.57478   0.44432   0.43730   0.00000  Uiso   1.00
C66    C     0.60566   0.45344   0.33122   0.00000  Uiso   1.00
C67    C     0.61790   0.42887   0.34052   0.00000  Uiso   1.00
C68    C     0.59658   0.39506   0.46105   0.00000  Uiso   1.00
C69    C     0.60860   0.37213   0.46922   0.00000  Uiso   1.00
C70    C     0.64203   0.38194   0.34305   0.00000  Uiso   1.00
C71    C     0.66304   0.41604   0.21753   0.00000  Uiso   1.00
C72    C     0.65128   0.43922   0.22307   0.00000  Uiso   1.00
C73    C     0.65471   0.35693   0.34210   0.00000  Uiso   1.00
C74    C     0.63180   0.32160   0.34174   0.00000  Uiso   1.00
O75    O     0.56905   0.52758   0.74128   0.00000  Uiso   1.00
H76    H     0.57706   0.49096   0.29630   0.00000  Uiso   1.00
H77    H     0.62262   0.47926   0.23028   0.00000  Uiso   1.00
H78    H     0.57073   0.38640   0.55806   0.00000  Uiso   1.00
H79    H     0.59155   0.34711   0.58719   0.00000  Uiso   1.00
H80    H     0.68833   0.42514   0.10085   0.00000  Uiso   1.00
H81    H     0.66805   0.46512   0.12435   0.00000  Uiso   1.00
H82    H     0.60498   0.31256   0.34108   0.00000  Uiso   1.00
C83    C     0.48470   0.52056   0.50015   0.00000  Uiso   1.00
C84    C     0.46510   0.48554   0.40824   0.00000  Uiso   1.00
C85    C     0.48062   0.46533   0.43346   0.00000  Uiso   1.00
C86    C     0.47020   0.54359   0.48955   0.00000  Uiso   1.00
O87    O     0.48840   0.57316   0.38640   0.00000  Uiso   1.00
N88    N     0.43736   0.53279   0.60285   0.00000  Uiso   1.00
N89    N     0.42500   0.55562   0.60027   0.00000  Uiso   1.00
C90    C     0.39284   0.54534   0.63438   0.00000  Uiso   1.00
C91    C     0.38091   0.57010   0.63718   0.00000  Uiso   1.00
C92    C     0.40279   0.60410   0.74429   0.00000  Uiso   1.00
C93    C     0.39104   0.62724   0.75352   0.00000  Uiso   1.00
C94    C     0.35738   0.61750   0.63729   0.00000  Uiso   1.00
C95    C     0.33585   0.58314   0.52351   0.00000  Uiso   1.00
C96    C     0.34726   0.55969   0.53335   0.00000  Uiso   1.00
C97    C     0.34500   0.64281   0.63541   0.00000  Uiso   1.00
C98    C     0.36813   0.67810   0.63488   0.00000  Uiso   1.00
O99    O     0.43105   0.47249   0.28146   0.00000  Uiso   1.00
H100   H     0.42177   0.50820   0.71255   0.00000  Uiso   1.00
H101   H     0.37446   0.51835   0.64757   0.00000  Uiso   1.00
H102   H     0.42878   0.61261   0.83426   0.00000  Uiso   1.00
H103   H     0.40858   0.65239   0.86405   0.00000  Uiso   1.00
H104   H     0.31033   0.57391   0.41443   0.00000  Uiso   1.00
H105   H     0.33006   0.53356   0.44564   0.00000  Uiso   1.00
H106   H     0.39486   0.68689   0.63401   0.00000  Uiso   1.00
C107   C     0.41175   0.43835   0.13524   0.00000  Uiso   1.00
C108   C     0.58831   0.56159   0.89120   0.00000  Uiso   1.00
H109   H     0.53388   0.56169   0.65619   0.00000  Uiso   1.00
H110   H     0.46609   0.43830   0.37406   0.00000  Uiso   1.00
H111   H     0.40164   0.41919   0.37530   0.00000  Uiso   1.00
H112   H     0.42716   0.43201  -0.06369   0.00000  Uiso   1.00
H113   H     0.38938   0.43590  -0.02896   0.00000  Uiso   1.00
H114   H     0.59848   0.58092   0.65279   0.00000  Uiso   1.00
H115   H     0.61063   0.56392   1.05540   0.00000  Uiso   1.00
H116   H     0.57287   0.56780   1.09146   0.00000  Uiso   1.00
C117   C     0.52056   0.03573   0.53195   0.00000  Uiso   1.00
C118   C     0.48552   0.02036   0.62073   0.00000  Uiso   1.00
C119   C     0.46533   0.98463   0.59713   0.00000  Uiso   1.00
C120   C     0.54355   0.07320   0.54809   0.00000  Uiso   1.00
O121   O     0.57276   0.08451   0.66527   0.00000  Uiso   1.00
N122   N     0.53311   0.09523   0.42293   0.00000  Uiso   1.00
N123   N     0.55568   0.13046   0.43730   0.00000  Uiso   1.00
C124   C     0.54656   0.15222   0.33122   0.00000  Uiso   1.00
C125   C     0.57113   0.18903   0.34052   0.00000  Uiso   1.00
C126   C     0.60494   0.20152   0.46105   0.00000  Uiso   1.00
C127   C     0.62787   0.23647   0.46922   0.00000  Uiso   1.00
C128   C     0.61806   0.26009   0.34305   0.00000  Uiso   1.00
C129   C     0.58396   0.24700   0.21753   0.00000  Uiso   1.00
C130   C     0.56078   0.21206   0.22307   0.00000  Uiso   1.00
C131   C     0.64307   0.29778   0.34210   0.00000  Uiso   1.00
C132   C     0.67840   0.31020   0.34174   0.00000  Uiso   1.00
O133   O     0.47242   0.04147   0.74128   0.00000  Uiso   1.00
H134   H     0.50904   0.08610   0.29630   0.00000  Uiso   1.00
H135   H     0.52074   0.14336   0.23028   0.00000  Uiso   1.00
H136   H     0.61360   0.18433   0.55806   0.00000  Uiso   1.00
H137   H     0.65289   0.24444   0.58719   0.00000  Uiso   1.00
H138   H     0.57486   0.26319   0.10085   0.00000  Uiso   1.00
H139   H     0.53488   0.20293   0.12435   0.00000  Uiso   1.00
H140   H     0.68744   0.29242   0.34108   0.00000  Uiso   1.00
C141   C     0.47944   0.96414   0.50015   0.00000  Uiso   1.00
C142   C     0.51446   0.97956   0.40824   0.00000  Uiso   1.00
C143   C     0.53467   0.01529   0.43346   0.00000  Uiso   1.00
C144   C     0.45641   0.92661   0.48955   0.00000  Uiso   1.00
O145   O     0.42684   0.91524   0.38640   0.00000  Uiso   1.00
N146   N     0.46721   0.90457   0.60285   0.00000  Uiso   1.00
N147   N     0.44438   0.86938   0.60027   0.00000  Uiso   1.00
C148   C     0.45466   0.84750   0.63438   0.00000  Uiso   1.00
C149   C     0.42990   0.81081   0.63718   0.00000  Uiso   1.00
C150   C     0.39590   0.79869   0.74429   0.00000  Uiso   1.00
C151   C     0.37276   0.76380   0.75352   0.00000  Uiso   1.00
C152   C     0.38250   0.73988   0.63729   0.00000  Uiso   1.00
C153   C     0.41686   0.75271   0.52351   0.00000  Uiso   1.00
C154   C     0.44031   0.78757   0.53335   0.00000  Uiso   1.00
C155   C     0.35719   0.70219   0.63541   0.00000  Uiso   1.00
C156   C     0.32190   0.69003   0.63488   0.00000  Uiso   1.00
O157   O     0.52751   0.95856   0.28146   0.00000  Uiso   1.00
H158   H     0.49180   0.91357   0.71255   0.00000  Uiso   1.00
H159   H     0.48165   0.85611   0.64757   0.00000  Uiso   1.00
H160   H     0.38739   0.81617   0.83426   0.00000  Uiso   1.00
H161   H     0.34761   0.75619   0.86405   0.00000  Uiso   1.00
H162   H     0.42609   0.73642   0.41443   0.00000  Uiso   1.00
H163   H     0.46644   0.79650   0.44564   0.00000  Uiso   1.00
H164   H     0.31311   0.70797   0.63401   0.00000  Uiso   1.00
C165   C     0.56165   0.97340   0.13524   0.00000  Uiso   1.00
C166   C     0.43841   0.02672   0.89120   0.00000  Uiso   1.00
H167   H     0.43831   0.97219   0.65619   0.00000  Uiso   1.00
H168   H     0.56170   0.02779   0.37406   0.00000  Uiso   1.00
H169   H     0.58081   0.98245   0.37530   0.00000  Uiso   1.00
H170   H     0.56799   0.99515  -0.06369   0.00000  Uiso   1.00
H171   H     0.56410   0.95348  -0.02896   0.00000  Uiso   1.00
H172   H     0.41908   0.01756   0.65279   0.00000  Uiso   1.00
H173   H     0.43608   0.04671   1.05540   0.00000  Uiso   1.00
H174   H     0.43220   0.00507   1.09146   0.00000  Uiso   1.00
loop_
_geom_bond_atom_site_label_1
_geom_bond_atom_site_label_2
_geom_bond_distance
_geom_bond_site_symmetry_2
_ccdc_geom_bond_type
C1     C2      1.397   .     S
C1     C4      1.469   .     S
C1     C27     1.389   .     D
C2     C3      1.395   1_655 D
C2     O17     1.400   .     S
C3     C2      1.395   1_455 D
C3     C25     1.390   .     S
C3     H51     1.069   .     S
C4     O5      1.209   .     D
C4     N6      1.354   .     S
N6     N7      1.388   .     S
N6     H18     1.034   .     S
N7     C8      1.282   .     D
C8     C9      1.457   .     S
C8     H19     1.074   .     S
C9     C10     1.388   .     D
C9     C14     1.384   .     S
C10    C11     1.380   .     S
C10    H20     1.072   .     S
C11    C12     1.400   .     D
C11    H21     1.068   .     S
C12    C13     1.401   .     S
C12    C15     1.490   .     S
C13    C14     1.382   .     D
C13    H22     1.068   .     S
C14    H23     1.072   .     S
C15    C16     1.393   .     S
C15    C132    1.392   .     D
C16    H24     1.060   .     S
C16    C73     1.392   .     D
O17    C50     1.416   .     S
C25    C26     1.398   .     D
C25    C28     1.471   .     S
C26    C27     1.395   1_455 S
C26    O41     1.400   .     S
C27    C26     1.395   1_655 S
C27    H52     1.070   .     S
C28    O29     1.209   .     D
C28    N30     1.354   .     S
N30    N31     1.387   .     S
N30    H42     1.033   .     S
N31    C32     1.282   .     D
C32    C33     1.454   .     S
C32    H43     1.072   .     S
C33    C34     1.386   .     D
C33    C38     1.383   .     S
C34    C35     1.380   .     S
C34    H44     1.072   .     S
C35    C36     1.401   .     D
C35    H45     1.068   .     S
C36    C37     1.401   .     S
C36    C39     1.493   .     S
C37    C38     1.382   .     D
C37    H46     1.068   .     S
C38    H47     1.073   .     S
C39    C40     1.393   .     S
C39    C156    1.393   .     D
C40    H48     1.059   .     S
C40    C97     1.393   .     D
O41    C49     1.417   .     S
C49    H53     1.092   .     S
C49    H54     1.093   .     S
C49    H55     1.099   .     S
C50    H56     1.093   .     S
C50    H57     1.099   .     S
C50    H58     1.093   .     S
C59    C60     1.397   .     S
C59    C62     1.469   .     S
C59    C85     1.389   .     D
C60    C61     1.395   .     D
C60    O75     1.400   .     S
C61    C83     1.390   .     S
C61    H109    1.069   .     S
C62    O63     1.209   .     D
C62    N64     1.354   .     S
N64    N65     1.388   .     S
N64    H76     1.034   .     S
N65    C66     1.282   .     D
C66    C67     1.457   .     S
C66    H77     1.074   .     S
C67    C68     1.388   .     D
C67    C72     1.384   .     S
C68    C69     1.380   .     S
C68    H78     1.072   .     S
C69    C70     1.400   .     D
C69    H79     1.068   .     S
C70    C71     1.401   .     S
C70    C73     1.490   .     S
C71    C72     1.382   .     D
C71    H80     1.068   .     S
C72    H81     1.072   .     S
C73    C74     1.393   .     S
C74    H82     1.060   .     S
C74    C131    1.392   .     D
O75    C108    1.416   .     S
C83    C84     1.398   .     D
C83    C86     1.471   .     S
C84    C85     1.395   .     S
C84    O99     1.400   .     S
C85    H110    1.070   .     S
C86    O87     1.209   .     D
C86    N88     1.354   .     S
N88    N89     1.387   .     S
N88    H100    1.033   .     S
N89    C90     1.282   .     D
C90    C91     1.454   .     S
C90    H101    1.072   .     S
C91    C92     1.386   .     S
C91    C96     1.383   .     D
C92    C93     1.380   .     D
C92    H102    1.072   .     S
C93    C94     1.401   .     S
C93    H103    1.068   .     S
C94    C95     1.401   .     D
C94    C97     1.493   .     S
C95    C96     1.382   .     S
C95    H104    1.068   .     S
C96    H105    1.073   .     S
C97    C98     1.393   .     S
C98    H106    1.059   .     S
C98    C155    1.393   .     D
O99    C107    1.417   .     S
C107   H111    1.092   .     S
C107   H112    1.093   .     S
C107   H113    1.099   .     S
C108   H114    1.093   .     S
C108   H115    1.099   .     S
C108   H116    1.093   .     S
C117   C118    1.397   .     S
C117   C120    1.469   .     S
C117   C143    1.389   .     D
C118   C119    1.395   1_545 D
C118   O133    1.400   .     S
C119   C118    1.395   1_565 D
C119   C141    1.390   .     S
C119   H167    1.069   .     S
C120   O121    1.209   .     D
C120   N122    1.354   .     S
N122   N123    1.388   .     S
N122   H134    1.034   .     S
N123   C124    1.282   .     D
C124   C125    1.457   .     S
C124   H135    1.074   .     S
C125   C126    1.388   .     D
C125   C130    1.384   .     S
C126   C127    1.380   .     S
C126   H136    1.072   .     S
C127   C128    1.400   .     D
C127   H137    1.068   .     S
C128   C129    1.401   .     S
C128   C131    1.490   .     S
C129   C130    1.382   .     D
C129   H138    1.068   .     S
C130   H139    1.072   .     S
C131   C132    1.393   .     S
C132   H140    1.060   .     S
O133   C166    1.416   .     S
C141   C142    1.398   .     D
C141   C144    1.471   .     S
C142   C143    1.395   1_565 S
C142   O157    1.400   .     S
C143   C142    1.395   1_545 S
C143   H168    1.070   .     S
C144   O145    1.209   .     D
C144   N146    1.354   .     S
N146   N147    1.387   .     S
N146   H158    1.033   .     S
N147   C148    1.282   .     D
C148   C149    1.454   .     S
C148   H159    1.072   .     S
C149   C150    1.386   .     D
C149   C154    1.383   .     S
C150   C151    1.380   .     S
C150   H160    1.072   .     S
C151   C152    1.401   .     D
C151   H161    1.068   .     S
C152   C153    1.401   .     S
C152   C155    1.493   .     S
C153   C154    1.382   .     D
C153   H162    1.068   .     S
C154   H163    1.073   .     S
C155   C156    1.393   .     S
C156   H164    1.059   .     S
O157   C165    1.417   .     S
C165   H169    1.092   .     S
C165   H170    1.093   .     S
C165   H171    1.099   .     S
C166   H172    1.093   .     S
C166   H173    1.099   .     S
C166   H174    1.093   .     S
