data_493
_audit_creation_date              2023-09-08
_audit_creation_method            'Materials Studio'
_symmetry_space_group_name_H-M    'P1'
_symmetry_Int_Tables_number       1
_symmetry_cell_setting            triclinic
loop_
_symmetry_equiv_pos_as_xyz
  x,y,z
_cell_length_a                    42.2841
_cell_length_b                    42.2841
_cell_length_c                    3.5589
_cell_angle_alpha                 90.0000
_cell_angle_beta                  90.0000
_cell_angle_gamma                 120.0000
loop_
_atom_site_label
_atom_site_type_symbol
_atom_site_fract_x
_atom_site_fract_y
_atom_site_fract_z
_atom_site_U_iso_or_equiv
_atom_site_adp_type
_atom_site_occupancy
C1     C     0.96387   0.48472   0.22651   0.00000  Uiso   1.00
C2     C     0.97905   0.46381   0.21679   0.00000  Uiso   1.00
C3     C     0.01506   0.47945   0.21378   0.00000  Uiso   1.00
C4     C     0.92609   0.47008   0.24787   0.00000  Uiso   1.00
O5     O     0.91334   0.48598   0.10659   0.00000  Uiso   1.00
N6     N     0.90539   0.43972   0.43207   0.00000  Uiso   1.00
N7     N     0.86983   0.42655   0.44548   0.00000  Uiso   1.00
C8     C     0.84920   0.39707   0.59988   0.00000  Uiso   1.00
C9     C     0.81206   0.38439   0.61504   0.00000  Uiso   1.00
C10    C     0.79848   0.40468   0.48521   0.00000  Uiso   1.00
C11    C     0.76320   0.39213   0.49459   0.00000  Uiso   1.00
C12    C     0.74048   0.35927   0.64523   0.00000  Uiso   1.00
C13    C     0.75457   0.33934   0.78129   0.00000  Uiso   1.00
C14    C     0.78984   0.35159   0.76087   0.00000  Uiso   1.00
C15    C     0.70254   0.34594   0.65671   0.00000  Uiso   1.00
C16    C     0.68955   0.36863   0.65842   0.00000  Uiso   1.00
O17    O     0.95794   0.42793   0.18045   0.00000  Uiso   1.00
H18    H     0.91592   0.42728   0.58576   0.00000  Uiso   1.00
H19    H     0.85925   0.38157   0.71903   0.00000  Uiso   1.00
H20    H     0.81503   0.43003   0.36729   0.00000  Uiso   1.00
H21    H     0.75406   0.40809   0.37013   0.00000  Uiso   1.00
H22    H     0.73880   0.31460   0.91462   0.00000  Uiso   1.00
H23    H     0.79987   0.33568   0.86696   0.00000  Uiso   1.00
H24    H     0.70718   0.39585   0.65846   0.00000  Uiso   1.00
C25    C     0.03613   0.51528   0.22651   0.00000  Uiso   1.00
C26    C     0.02095   0.53619   0.21679   0.00000  Uiso   1.00
C27    C     0.98494   0.52056   0.21378   0.00000  Uiso   1.00
C28    C     0.07391   0.52992   0.24786   0.00000  Uiso   1.00
O29    O     0.08666   0.51402   0.10659   0.00000  Uiso   1.00
N30    N     0.09461   0.56028   0.43207   0.00000  Uiso   1.00
N31    N     0.13018   0.57345   0.44548   0.00000  Uiso   1.00
C32    C     0.15080   0.60293   0.59988   0.00000  Uiso   1.00
C33    C     0.18794   0.61562   0.61504   0.00000  Uiso   1.00
C34    C     0.20152   0.59532   0.48520   0.00000  Uiso   1.00
C35    C     0.23680   0.60787   0.49459   0.00000  Uiso   1.00
C36    C     0.25952   0.64073   0.64522   0.00000  Uiso   1.00
C37    C     0.24543   0.66066   0.78129   0.00000  Uiso   1.00
C38    C     0.21016   0.64841   0.76087   0.00000  Uiso   1.00
C39    C     0.29746   0.65406   0.65670   0.00000  Uiso   1.00
C40    C     0.31045   0.63137   0.65842   0.00000  Uiso   1.00
O41    O     0.04206   0.57207   0.18045   0.00000  Uiso   1.00
H42    H     0.08408   0.57272   0.58576   0.00000  Uiso   1.00
H43    H     0.14075   0.61843   0.71903   0.00000  Uiso   1.00
H44    H     0.18497   0.56997   0.36729   0.00000  Uiso   1.00
H45    H     0.24594   0.59191   0.37013   0.00000  Uiso   1.00
H46    H     0.26120   0.68540   0.91462   0.00000  Uiso   1.00
H47    H     0.20013   0.66432   0.86696   0.00000  Uiso   1.00
H48    H     0.29282   0.60415   0.65846   0.00000  Uiso   1.00
C49    C     0.03052   0.59342   0.35385   0.00000  Uiso   1.00
C50    C     0.96948   0.40658   0.35386   0.00000  Uiso   1.00
H51    H     0.02691   0.46362   0.20021   0.00000  Uiso   1.00
H52    H     0.97309   0.53638   0.20021   0.00000  Uiso   1.00
C53    C     0.06169   0.62753   0.47591   0.00000  Uiso   1.00
C54    C     0.05186   0.65403   0.60479   0.00000  Uiso   1.00
C55    C     0.93831   0.37247   0.47591   0.00000  Uiso   1.00
C56    C     0.94814   0.34597   0.60479   0.00000  Uiso   1.00
H57    H     0.01405   0.58029   0.60224   0.00000  Uiso   1.00
H58    H     0.01400   0.59803   0.15863   0.00000  Uiso   1.00
H59    H     0.98595   0.41971   0.60224   0.00000  Uiso   1.00
H60    H     0.98600   0.40197   0.15863   0.00000  Uiso   1.00
H61    H     0.08124   0.63960   0.25076   0.00000  Uiso   1.00
H62    H     0.07535   0.62177   0.69837   0.00000  Uiso   1.00
H63    H     0.02813   0.64215   0.77903   0.00000  Uiso   1.00
H64    H     0.04684   0.66626   0.35778   0.00000  Uiso   1.00
H65    H     0.07350   0.67481   0.76742   0.00000  Uiso   1.00
H66    H     0.91876   0.36040   0.25076   0.00000  Uiso   1.00
H67    H     0.92465   0.37823   0.69837   0.00000  Uiso   1.00
H68    H     0.95316   0.33374   0.35778   0.00000  Uiso   1.00
H69    H     0.92650   0.32519   0.76743   0.00000  Uiso   1.00
H70    H     0.97187   0.35785   0.77903   0.00000  Uiso   1.00
C71    C     0.51528   0.47915   0.22651   0.00000  Uiso   1.00
C72    C     0.53619   0.51524   0.21679   0.00000  Uiso   1.00
C73    C     0.52055   0.53561   0.21378   0.00000  Uiso   1.00
C74    C     0.52992   0.45601   0.24787   0.00000  Uiso   1.00
O75    O     0.51402   0.42736   0.10659   0.00000  Uiso   1.00
N76    N     0.56028   0.46567   0.43207   0.00000  Uiso   1.00
N77    N     0.57345   0.44328   0.44548   0.00000  Uiso   1.00
C78    C     0.60293   0.45213   0.59988   0.00000  Uiso   1.00
C79    C     0.61561   0.42767   0.61504   0.00000  Uiso   1.00
C80    C     0.59532   0.39380   0.48521   0.00000  Uiso   1.00
C81    C     0.60787   0.37107   0.49459   0.00000  Uiso   1.00
C82    C     0.64073   0.38121   0.64523   0.00000  Uiso   1.00
C83    C     0.66066   0.41523   0.78129   0.00000  Uiso   1.00
C84    C     0.64841   0.43825   0.76087   0.00000  Uiso   1.00
C85    C     0.65406   0.35660   0.65671   0.00000  Uiso   1.00
C86    C     0.63137   0.32092   0.65842   0.00000  Uiso   1.00
O87    O     0.57207   0.53001   0.18045   0.00000  Uiso   1.00
H88    H     0.57272   0.48864   0.58576   0.00000  Uiso   1.00
H89    H     0.61843   0.47768   0.71903   0.00000  Uiso   1.00
H90    H     0.56997   0.38500   0.36729   0.00000  Uiso   1.00
H91    H     0.59191   0.34597   0.37013   0.00000  Uiso   1.00
H92    H     0.68540   0.42420   0.91462   0.00000  Uiso   1.00
H93    H     0.66432   0.46419   0.86696   0.00000  Uiso   1.00
H94    H     0.60415   0.31133   0.65846   0.00000  Uiso   1.00
C95    C     0.48472   0.52085   0.22651   0.00000  Uiso   1.00
C96    C     0.46381   0.48476   0.21679   0.00000  Uiso   1.00
C97    C     0.47944   0.46438   0.21378   0.00000  Uiso   1.00
C98    C     0.47008   0.54399   0.24786   0.00000  Uiso   1.00
O99    O     0.48598   0.57264   0.10659   0.00000  Uiso   1.00
N100   N     0.43972   0.53433   0.43207   0.00000  Uiso   1.00
N101   N     0.42655   0.55673   0.44548   0.00000  Uiso   1.00
C102   C     0.39707   0.54787   0.59988   0.00000  Uiso   1.00
C103   C     0.38438   0.57232   0.61504   0.00000  Uiso   1.00
C104   C     0.40468   0.60620   0.48520   0.00000  Uiso   1.00
C105   C     0.39213   0.62893   0.49459   0.00000  Uiso   1.00
C106   C     0.35927   0.61879   0.64522   0.00000  Uiso   1.00
C107   C     0.33934   0.58477   0.78129   0.00000  Uiso   1.00
C108   C     0.35159   0.56175   0.76087   0.00000  Uiso   1.00
C109   C     0.34594   0.64340   0.65670   0.00000  Uiso   1.00
C110   C     0.36863   0.67908   0.65842   0.00000  Uiso   1.00
O111   O     0.42793   0.46999   0.18045   0.00000  Uiso   1.00
H112   H     0.42728   0.51136   0.58576   0.00000  Uiso   1.00
H113   H     0.38157   0.52232   0.71903   0.00000  Uiso   1.00
H114   H     0.43003   0.61500   0.36729   0.00000  Uiso   1.00
H115   H     0.40809   0.65403   0.37013   0.00000  Uiso   1.00
H116   H     0.31460   0.57580   0.91462   0.00000  Uiso   1.00
H117   H     0.33568   0.53581   0.86696   0.00000  Uiso   1.00
H118   H     0.39585   0.68867   0.65846   0.00000  Uiso   1.00
C119   C     0.40658   0.43710   0.35385   0.00000  Uiso   1.00
C120   C     0.59342   0.56290   0.35386   0.00000  Uiso   1.00
H121   H     0.53638   0.56329   0.20021   0.00000  Uiso   1.00
H122   H     0.46362   0.43671   0.20021   0.00000  Uiso   1.00
C123   C     0.37247   0.43416   0.47591   0.00000  Uiso   1.00
C124   C     0.34597   0.39783   0.60479   0.00000  Uiso   1.00
C125   C     0.62753   0.56584   0.47591   0.00000  Uiso   1.00
C126   C     0.65403   0.60217   0.60479   0.00000  Uiso   1.00
H127   H     0.41971   0.43376   0.60224   0.00000  Uiso   1.00
H128   H     0.40197   0.41597   0.15863   0.00000  Uiso   1.00
H129   H     0.58029   0.56624   0.60224   0.00000  Uiso   1.00
H130   H     0.59803   0.58403   0.15863   0.00000  Uiso   1.00
H131   H     0.36040   0.44164   0.25076   0.00000  Uiso   1.00
H132   H     0.37823   0.45358   0.69837   0.00000  Uiso   1.00
H133   H     0.35785   0.38598   0.77903   0.00000  Uiso   1.00
H134   H     0.33374   0.38058   0.35778   0.00000  Uiso   1.00
H135   H     0.32519   0.39869   0.76742   0.00000  Uiso   1.00
H136   H     0.63960   0.55836   0.25076   0.00000  Uiso   1.00
H137   H     0.62177   0.54642   0.69837   0.00000  Uiso   1.00
H138   H     0.66626   0.61942   0.35778   0.00000  Uiso   1.00
H139   H     0.67481   0.60131   0.76743   0.00000  Uiso   1.00
H140   H     0.64215   0.61402   0.77903   0.00000  Uiso   1.00
C141   C     0.52085   0.03613   0.22651   0.00000  Uiso   1.00
C142   C     0.48476   0.02095   0.21679   0.00000  Uiso   1.00
C143   C     0.46439   0.98494   0.21378   0.00000  Uiso   1.00
C144   C     0.54399   0.07391   0.24787   0.00000  Uiso   1.00
O145   O     0.57264   0.08666   0.10659   0.00000  Uiso   1.00
N146   N     0.53433   0.09461   0.43207   0.00000  Uiso   1.00
N147   N     0.55672   0.13017   0.44548   0.00000  Uiso   1.00
C148   C     0.54787   0.15080   0.59988   0.00000  Uiso   1.00
C149   C     0.57233   0.18794   0.61504   0.00000  Uiso   1.00
C150   C     0.60620   0.20152   0.48521   0.00000  Uiso   1.00
C151   C     0.62893   0.23680   0.49459   0.00000  Uiso   1.00
C152   C     0.61879   0.25952   0.64523   0.00000  Uiso   1.00
C153   C     0.58477   0.24543   0.78129   0.00000  Uiso   1.00
C154   C     0.56175   0.21016   0.76087   0.00000  Uiso   1.00
C155   C     0.64340   0.29746   0.65671   0.00000  Uiso   1.00
C156   C     0.67908   0.31045   0.65842   0.00000  Uiso   1.00
O157   O     0.46999   0.04206   0.18045   0.00000  Uiso   1.00
H158   H     0.51136   0.08408   0.58576   0.00000  Uiso   1.00
H159   H     0.52232   0.14075   0.71903   0.00000  Uiso   1.00
H160   H     0.61500   0.18497   0.36729   0.00000  Uiso   1.00
H161   H     0.65403   0.24594   0.37013   0.00000  Uiso   1.00
H162   H     0.57580   0.26120   0.91462   0.00000  Uiso   1.00
H163   H     0.53581   0.20013   0.86696   0.00000  Uiso   1.00
H164   H     0.68867   0.29282   0.65846   0.00000  Uiso   1.00
C165   C     0.47915   0.96387   0.22651   0.00000  Uiso   1.00
C166   C     0.51524   0.97905   0.21679   0.00000  Uiso   1.00
C167   C     0.53562   0.01506   0.21378   0.00000  Uiso   1.00
C168   C     0.45601   0.92609   0.24786   0.00000  Uiso   1.00
O169   O     0.42736   0.91334   0.10659   0.00000  Uiso   1.00
N170   N     0.46567   0.90539   0.43207   0.00000  Uiso   1.00
N171   N     0.44327   0.86982   0.44548   0.00000  Uiso   1.00
C172   C     0.45213   0.84920   0.59988   0.00000  Uiso   1.00
C173   C     0.42768   0.81206   0.61504   0.00000  Uiso   1.00
C174   C     0.39380   0.79848   0.48520   0.00000  Uiso   1.00
C175   C     0.37107   0.76320   0.49459   0.00000  Uiso   1.00
C176   C     0.38121   0.74048   0.64522   0.00000  Uiso   1.00
C177   C     0.41523   0.75457   0.78129   0.00000  Uiso   1.00
C178   C     0.43825   0.78984   0.76087   0.00000  Uiso   1.00
C179   C     0.35660   0.70254   0.65670   0.00000  Uiso   1.00
C180   C     0.32092   0.68955   0.65842   0.00000  Uiso   1.00
O181   O     0.53001   0.95794   0.18045   0.00000  Uiso   1.00
H182   H     0.48864   0.91592   0.58576   0.00000  Uiso   1.00
H183   H     0.47768   0.85925   0.71903   0.00000  Uiso   1.00
H184   H     0.38500   0.81503   0.36729   0.00000  Uiso   1.00
H185   H     0.34597   0.75406   0.37013   0.00000  Uiso   1.00
H186   H     0.42420   0.73880   0.91462   0.00000  Uiso   1.00
H187   H     0.46419   0.79987   0.86696   0.00000  Uiso   1.00
H188   H     0.31133   0.70718   0.65846   0.00000  Uiso   1.00
C189   C     0.56290   0.96948   0.35385   0.00000  Uiso   1.00
C190   C     0.43710   0.03052   0.35386   0.00000  Uiso   1.00
H191   H     0.43671   0.97309   0.20021   0.00000  Uiso   1.00
H192   H     0.56329   0.02691   0.20021   0.00000  Uiso   1.00
C193   C     0.56584   0.93831   0.47591   0.00000  Uiso   1.00
C194   C     0.60217   0.94814   0.60479   0.00000  Uiso   1.00
C195   C     0.43416   0.06169   0.47591   0.00000  Uiso   1.00
C196   C     0.39783   0.05186   0.60479   0.00000  Uiso   1.00
H197   H     0.56624   0.98595   0.60224   0.00000  Uiso   1.00
H198   H     0.58403   0.98600   0.15863   0.00000  Uiso   1.00
H199   H     0.43376   0.01405   0.60224   0.00000  Uiso   1.00
H200   H     0.41597   0.01400   0.15863   0.00000  Uiso   1.00
H201   H     0.55836   0.91876   0.25076   0.00000  Uiso   1.00
H202   H     0.54642   0.92465   0.69837   0.00000  Uiso   1.00
H203   H     0.61402   0.97187   0.77903   0.00000  Uiso   1.00
H204   H     0.61942   0.95316   0.35778   0.00000  Uiso   1.00
H205   H     0.60131   0.92650   0.76742   0.00000  Uiso   1.00
H206   H     0.44164   0.08124   0.25076   0.00000  Uiso   1.00
H207   H     0.45358   0.07535   0.69837   0.00000  Uiso   1.00
H208   H     0.38058   0.04684   0.35778   0.00000  Uiso   1.00
H209   H     0.39869   0.07350   0.76743   0.00000  Uiso   1.00
H210   H     0.38598   0.02813   0.77903   0.00000  Uiso   1.00
loop_
_geom_bond_atom_site_label_1
_geom_bond_atom_site_label_2
_geom_bond_distance
_geom_bond_site_symmetry_2
_ccdc_geom_bond_type
C1     C2      1.328   .     S
C1     C4      1.397   .     S
C1     C27     1.320   .     D
C2     C3      1.322   1_655 D
C2     O17     1.327   .     S
C3     C2      1.322   1_455 D
C3     C25     1.320   .     S
C3     H51     1.018   .     S
C4     O5      1.165   .     D
C4     N6      1.312   .     S
N6     N7      1.318   .     S
N6     H18     1.004   .     S
N7     C8      1.237   .     D
C8     C9      1.384   .     S
C8     H19     1.034   .     S
C9     C10     1.331   .     D
C9     C14     1.331   .     S
C10    C11     1.310   .     S
C10    H20     1.032   .     S
C11    C12     1.344   .     D
C11    H21     1.030   .     S
C12    C13     1.342   .     S
C12    C15     1.410   .     S
C13    C14     1.313   .     D
C13    H22     1.033   .     S
C14    H23     1.030   .     S
C15    C16     1.323   .     S
C15    C156    1.322   .     D
C16    H24     1.011   .     S
C16    C85     1.322   .     D
O17    C50     1.369   .     S
C25    C26     1.328   .     D
C25    C28     1.397   .     S
C26    C27     1.323   1_455 S
C26    O41     1.327   .     S
C27    C26     1.323   1_655 S
C27    H52     1.018   .     S
C28    O29     1.165   .     D
C28    N30     1.312   .     S
N30    N31     1.318   .     S
N30    H42     1.004   .     S
N31    C32     1.237   .     D
C32    C33     1.384   .     S
C32    H43     1.034   .     S
C33    C34     1.332   .     D
C33    C38     1.331   .     S
C34    C35     1.310   .     S
C34    H44     1.032   .     S
C35    C36     1.344   .     D
C35    H45     1.030   .     S
C36    C37     1.342   .     S
C36    C39     1.410   .     S
C37    C38     1.313   .     D
C37    H46     1.033   .     S
C38    H47     1.030   .     S
C39    C40     1.323   .     S
C39    C180    1.322   .     D
C40    H48     1.011   .     S
C40    C109    1.322   .     D
O41    C49     1.369   .     S
C49    C53     1.451   .     S
C49    H57     1.090   .     S
C49    H58     1.070   .     S
C50    C55     1.451   .     S
C50    H59     1.090   .     S
C50    H60     1.070   .     S
C53    C54     1.451   .     S
C53    H61     1.079   .     S
C53    H62     1.077   .     S
C54    H63     1.068   .     S
C54    H64     1.093   .     S
C54    H65     1.068   .     S
C55    C56     1.451   .     S
C55    H66     1.079   .     S
C55    H67     1.077   .     S
C56    H68     1.093   .     S
C56    H69     1.068   .     S
C56    H70     1.068   .     S
C71    C72     1.328   .     S
C71    C74     1.397   .     S
C71    C97     1.320   .     D
C72    C73     1.322   .     D
C72    O87     1.327   .     S
C73    C95     1.320   .     S
C73    H121    1.018   .     S
C74    O75     1.165   .     D
C74    N76     1.312   .     S
N76    N77     1.318   .     S
N76    H88     1.004   .     S
N77    C78     1.237   .     D
C78    C79     1.384   .     S
C78    H89     1.034   .     S
C79    C80     1.331   .     D
C79    C84     1.331   .     S
C80    C81     1.310   .     S
C80    H90     1.032   .     S
C81    C82     1.344   .     D
C81    H91     1.030   .     S
C82    C83     1.342   .     S
C82    C85     1.410   .     S
C83    C84     1.313   .     D
C83    H92     1.033   .     S
C84    H93     1.030   .     S
C85    C86     1.323   .     S
C86    H94     1.011   .     S
C86    C155    1.322   .     D
O87    C120    1.369   .     S
C95    C96     1.328   .     D
C95    C98     1.397   .     S
C96    C97     1.323   .     S
C96    O111    1.327   .     S
C97    H122    1.018   .     S
C98    O99     1.165   .     D
C98    N100    1.312   .     S
N100   N101    1.318   .     S
N100   H112    1.004   .     S
N101   C102    1.237   .     D
C102   C103    1.384   .     S
C102   H113    1.034   .     S
C103   C104    1.332   .     D
C103   C108    1.331   .     S
C104   C105    1.310   .     S
C104   H114    1.032   .     S
C105   C106    1.344   .     D
C105   H115    1.030   .     S
C106   C107    1.342   .     S
C106   C109    1.410   .     S
C107   C108    1.313   .     D
C107   H116    1.033   .     S
C108   H117    1.030   .     S
C109   C110    1.323   .     S
C110   H118    1.011   .     S
C110   C179    1.322   .     D
O111   C119    1.369   .     S
C119   C123    1.451   .     S
C119   H127    1.090   .     S
C119   H128    1.070   .     S
C120   C125    1.451   .     S
C120   H129    1.090   .     S
C120   H130    1.070   .     S
C123   C124    1.451   .     S
C123   H131    1.079   .     S
C123   H132    1.077   .     S
C124   H133    1.068   .     S
C124   H134    1.093   .     S
C124   H135    1.068   .     S
C125   C126    1.451   .     S
C125   H136    1.079   .     S
C125   H137    1.077   .     S
C126   H138    1.093   .     S
C126   H139    1.068   .     S
C126   H140    1.068   .     S
C141   C142    1.328   .     S
C141   C144    1.397   .     S
C141   C167    1.320   .     D
C142   C143    1.322   1_545 D
C142   O157    1.327   .     S
C143   C142    1.322   1_565 D
C143   C165    1.320   .     S
C143   H191    1.018   .     S
C144   O145    1.165   .     D
C144   N146    1.312   .     S
N146   N147    1.318   .     S
N146   H158    1.004   .     S
N147   C148    1.237   .     D
C148   C149    1.384   .     S
C148   H159    1.034   .     S
C149   C150    1.331   .     D
C149   C154    1.331   .     S
C150   C151    1.310   .     S
C150   H160    1.032   .     S
C151   C152    1.344   .     D
C151   H161    1.030   .     S
C152   C153    1.342   .     S
C152   C155    1.410   .     S
C153   C154    1.313   .     D
C153   H162    1.033   .     S
C154   H163    1.030   .     S
C155   C156    1.323   .     S
C156   H164    1.011   .     S
O157   C190    1.369   .     S
C165   C166    1.328   .     D
C165   C168    1.397   .     S
C166   C167    1.323   1_565 S
C166   O181    1.327   .     S
C167   C166    1.323   1_545 S
C167   H192    1.018   .     S
C168   O169    1.165   .     D
C168   N170    1.312   .     S
N170   N171    1.318   .     S
N170   H182    1.004   .     S
N171   C172    1.237   .     D
C172   C173    1.384   .     S
C172   H183    1.034   .     S
C173   C174    1.332   .     D
C173   C178    1.331   .     S
C174   C175    1.310   .     S
C174   H184    1.032   .     S
C175   C176    1.344   .     D
C175   H185    1.030   .     S
C176   C177    1.342   .     S
C176   C179    1.410   .     S
C177   C178    1.313   .     D
C177   H186    1.033   .     S
C178   H187    1.030   .     S
C179   C180    1.323   .     S
C180   H188    1.011   .     S
O181   C189    1.369   .     S
C189   C193    1.451   .     S
C189   H197    1.090   .     S
C189   H198    1.070   .     S
C190   C195    1.451   .     S
C190   H199    1.090   .     S
C190   H200    1.070   .     S
C193   C194    1.451   .     S
C193   H201    1.079   .     S
C193   H202    1.077   .     S
C194   H203    1.068   .     S
C194   H204    1.093   .     S
C194   H205    1.068   .     S
C195   C196    1.451   .     S
C195   H206    1.079   .     S
C195   H207    1.077   .     S
C196   H208    1.093   .     S
C196   H209    1.068   .     S
C196   H210    1.068   .     S
