data_494
_audit_creation_date              2023-09-08
_audit_creation_method            'Materials Studio'
_symmetry_space_group_name_H-M    'P1'
_symmetry_Int_Tables_number       1
_symmetry_cell_setting            triclinic
loop_
_symmetry_equiv_pos_as_xyz
  x,y,z
_cell_length_a                    44.3328
_cell_length_b                    44.3328
_cell_length_c                    3.3890
_cell_angle_alpha                 90.0000
_cell_angle_beta                  90.0000
_cell_angle_gamma                 120.0000
loop_
_atom_site_label
_atom_site_type_symbol
_atom_site_fract_x
_atom_site_fract_y
_atom_site_fract_z
_atom_site_U_iso_or_equiv
_atom_site_adp_type
_atom_site_occupancy
C1     C     0.96404   0.48877   0.63716   0.00000  Uiso   1.00
C2     C     0.97927   0.46803   0.67799   0.00000  Uiso   1.00
C3     C     0.01533   0.48377   0.66983   0.00000  Uiso   1.00
C4     C     0.92622   0.47390   0.60869   0.00000  Uiso   1.00
O5     O     0.91326   0.49027   0.73532   0.00000  Uiso   1.00
N6     N     0.90573   0.44270   0.43438   0.00000  Uiso   1.00
N7     N     0.87012   0.42921   0.41614   0.00000  Uiso   1.00
C8     C     0.84970   0.39893   0.27356   0.00000  Uiso   1.00
C9     C     0.81252   0.38588   0.25415   0.00000  Uiso   1.00
C10    C     0.79870   0.40641   0.37123   0.00000  Uiso   1.00
C11    C     0.76336   0.39351   0.36073   0.00000  Uiso   1.00
C12    C     0.74074   0.36003   0.21946   0.00000  Uiso   1.00
C13    C     0.75515   0.33989   0.09478   0.00000  Uiso   1.00
C14    C     0.79049   0.35250   0.11854   0.00000  Uiso   1.00
C15    C     0.70266   0.34630   0.20645   0.00000  Uiso   1.00
C16    C     0.68927   0.36869   0.20433   0.00000  Uiso   1.00
O17    O     0.95781   0.43221   0.72763   0.00000  Uiso   1.00
H18    H     0.91639   0.42965   0.29190   0.00000  Uiso   1.00
H19    H     0.85997   0.38307   0.16804   0.00000  Uiso   1.00
H20    H     0.81511   0.43224   0.48144   0.00000  Uiso   1.00
H21    H     0.75419   0.40981   0.47844   0.00000  Uiso   1.00
H22    H     0.73967   0.31467  -0.03273   0.00000  Uiso   1.00
H23    H     0.80073   0.33639   0.02224   0.00000  Uiso   1.00
H24    H     0.70667   0.39593   0.20356   0.00000  Uiso   1.00
C25    C     0.03632   0.51960   0.64224   0.00000  Uiso   1.00
C26    C     0.02102   0.54045   0.64259   0.00000  Uiso   1.00
C27    C     0.98498   0.52467   0.63727   0.00000  Uiso   1.00
C28    C     0.07414   0.53415   0.61504   0.00000  Uiso   1.00
O29    O     0.08683   0.51779   0.75037   0.00000  Uiso   1.00
N30    N     0.09500   0.56489   0.43310   0.00000  Uiso   1.00
N31    N     0.13049   0.57762   0.41584   0.00000  Uiso   1.00
C32    C     0.15153   0.60752   0.26875   0.00000  Uiso   1.00
C33    C     0.18848   0.61936   0.24876   0.00000  Uiso   1.00
C34    C     0.20117   0.59786   0.36549   0.00000  Uiso   1.00
C35    C     0.23627   0.60950   0.35355   0.00000  Uiso   1.00
C36    C     0.25977   0.64268   0.21124   0.00000  Uiso   1.00
C37    C     0.24651   0.66384   0.08728   0.00000  Uiso   1.00
C38    C     0.21140   0.65248   0.11227   0.00000  Uiso   1.00
C39    C     0.29759   0.65502   0.19667   0.00000  Uiso   1.00
C40    C     0.30968   0.63155   0.19426   0.00000  Uiso   1.00
O41    O     0.04203   0.57642   0.67598   0.00000  Uiso   1.00
H42    H     0.08477   0.57785   0.27996   0.00000  Uiso   1.00
H43    H     0.14196   0.62386   0.15921   0.00000  Uiso   1.00
H44    H     0.18407   0.57220   0.47622   0.00000  Uiso   1.00
H45    H     0.24457   0.59249   0.47102   0.00000  Uiso   1.00
H46    H     0.26270   0.68891  -0.04065   0.00000  Uiso   1.00
H47    H     0.20204   0.66933   0.01623   0.00000  Uiso   1.00
H48    H     0.29148   0.60450   0.19327   0.00000  Uiso   1.00
C49    C     0.03041   0.59774   0.49740   0.00000  Uiso   1.00
C50    C     0.97169   0.41243   0.89408   0.00000  Uiso   1.00
H51    H     0.02738   0.46812   0.67769   0.00000  Uiso   1.00
H52    H     0.97295   0.54037   0.63610   0.00000  Uiso   1.00
C53    C     0.06169   0.63261   0.39259   0.00000  Uiso   1.00
C54    C     0.05216   0.65923   0.24947   0.00000  Uiso   1.00
C55    C     0.94196   0.37661   1.00048   0.00000  Uiso   1.00
C56    C     0.95380   0.35171   1.14248   0.00000  Uiso   1.00
H57    H     0.01212   0.60099   0.68317   0.00000  Uiso   1.00
H58    H     0.01486   0.58477   0.23890   0.00000  Uiso   1.00
H59    H     0.98716   0.42611   1.14938   0.00000  Uiso   1.00
H60    H     0.99039   0.41043   0.70317   0.00000  Uiso   1.00
H61    H     0.07751   0.62761   0.18597   0.00000  Uiso   1.00
H62    H     0.07991   0.64452   0.63356   0.00000  Uiso   1.00
H63    H     0.03492   0.66317   0.44281   0.00000  Uiso   1.00
H64    H     0.03570   0.64899  -0.00317   0.00000  Uiso   1.00
H65    H     0.92389   0.36380   0.76025   0.00000  Uiso   1.00
H66    H     0.92530   0.38029   1.20790   0.00000  Uiso   1.00
H67    H     0.97009   0.36268   1.39491   0.00000  Uiso   1.00
H68    H     0.97192   0.34921   0.94889   0.00000  Uiso   1.00
S69    S     0.91649   0.30909   1.22908   0.00000  Uiso   1.00
C70    C     0.94057   0.28772   1.36900   0.00000  Uiso   1.00
C71    C     0.91608   0.25145   1.51976   0.00000  Uiso   1.00
S72    S     0.09117   0.70057   0.16272   0.00000  Uiso   1.00
C73    C     0.06961   0.72447   0.02282   0.00000  Uiso   1.00
C74    C     0.09584   0.76020  -0.12794   0.00000  Uiso   1.00
H75    H     0.96002   0.30403   1.58454   0.00000  Uiso   1.00
H76    H     0.95650   0.28573   1.13831   0.00000  Uiso   1.00
H77    H     0.93078   0.24150   1.68155   0.00000  Uiso   1.00
H78    H     0.90247   0.23305   1.27900   0.00000  Uiso   1.00
H79    H     0.89591   0.25145   1.70781   0.00000  Uiso   1.00
H80    H     0.05447   0.72772   0.25353   0.00000  Uiso   1.00
H81    H     0.04971   0.70904  -0.19269   0.00000  Uiso   1.00
H82    H     0.11522   0.75870  -0.31600   0.00000  Uiso   1.00
H83    H     0.11028   0.77823   0.11281   0.00000  Uiso   1.00
H84    H     0.08245   0.77159  -0.28973   0.00000  Uiso   1.00
C85    C     0.51123   0.47527   0.63716   0.00000  Uiso   1.00
C86    C     0.53197   0.51124   0.67799   0.00000  Uiso   1.00
C87    C     0.51623   0.53156   0.66983   0.00000  Uiso   1.00
C88    C     0.52610   0.45232   0.60869   0.00000  Uiso   1.00
O89    O     0.50973   0.42299   0.73532   0.00000  Uiso   1.00
N90    N     0.55730   0.46303   0.43438   0.00000  Uiso   1.00
N91    N     0.57079   0.44091   0.41614   0.00000  Uiso   1.00
C92    C     0.60107   0.45077   0.27356   0.00000  Uiso   1.00
C93    C     0.61412   0.42664   0.25415   0.00000  Uiso   1.00
C94    C     0.59359   0.39229   0.37123   0.00000  Uiso   1.00
C95    C     0.60649   0.36985   0.36073   0.00000  Uiso   1.00
C96    C     0.63997   0.38071   0.21946   0.00000  Uiso   1.00
C97    C     0.66011   0.41526   0.09478   0.00000  Uiso   1.00
C98    C     0.64750   0.43799   0.11854   0.00000  Uiso   1.00
C99    C     0.65370   0.35636   0.20645   0.00000  Uiso   1.00
C100   C     0.63131   0.32058   0.20433   0.00000  Uiso   1.00
O101   O     0.56779   0.52560   0.72763   0.00000  Uiso   1.00
H102   H     0.57035   0.48674   0.29190   0.00000  Uiso   1.00
H103   H     0.61693   0.47690   0.16804   0.00000  Uiso   1.00
H104   H     0.56776   0.38287   0.48144   0.00000  Uiso   1.00
H105   H     0.59019   0.34438   0.47844   0.00000  Uiso   1.00
H106   H     0.68533   0.42500  -0.03273   0.00000  Uiso   1.00
H107   H     0.66361   0.46434   0.02224   0.00000  Uiso   1.00
H108   H     0.60407   0.31074   0.20356   0.00000  Uiso   1.00
C109   C     0.48040   0.51672   0.64224   0.00000  Uiso   1.00
C110   C     0.45955   0.48057   0.64259   0.00000  Uiso   1.00
C111   C     0.47533   0.46031   0.63727   0.00000  Uiso   1.00
C112   C     0.46585   0.53999   0.61504   0.00000  Uiso   1.00
O113   O     0.48221   0.56904   0.75037   0.00000  Uiso   1.00
N114   N     0.43511   0.53011   0.43310   0.00000  Uiso   1.00
N115   N     0.42238   0.55287   0.41584   0.00000  Uiso   1.00
C116   C     0.39248   0.54401   0.26875   0.00000  Uiso   1.00
C117   C     0.38064   0.56912   0.24876   0.00000  Uiso   1.00
C118   C     0.40214   0.60331   0.36549   0.00000  Uiso   1.00
C119   C     0.39050   0.62677   0.35355   0.00000  Uiso   1.00
C120   C     0.35732   0.61709   0.21124   0.00000  Uiso   1.00
C121   C     0.33616   0.58267   0.08728   0.00000  Uiso   1.00
C122   C     0.34752   0.55892   0.11227   0.00000  Uiso   1.00
C123   C     0.34498   0.64257   0.19667   0.00000  Uiso   1.00
C124   C     0.36845   0.67813   0.19426   0.00000  Uiso   1.00
O125   O     0.42358   0.46561   0.67598   0.00000  Uiso   1.00
H126   H     0.42215   0.50692   0.27996   0.00000  Uiso   1.00
H127   H     0.37614   0.51810   0.15921   0.00000  Uiso   1.00
H128   H     0.42780   0.61187   0.47622   0.00000  Uiso   1.00
H129   H     0.40751   0.65208   0.47102   0.00000  Uiso   1.00
H130   H     0.31109   0.57379  -0.04065   0.00000  Uiso   1.00
H131   H     0.33067   0.53271   0.01623   0.00000  Uiso   1.00
H132   H     0.39550   0.68698   0.19327   0.00000  Uiso   1.00
C133   C     0.40226   0.43267   0.49740   0.00000  Uiso   1.00
C134   C     0.58757   0.55926   0.89408   0.00000  Uiso   1.00
H135   H     0.53188   0.55926   0.67769   0.00000  Uiso   1.00
H136   H     0.45963   0.43258   0.63610   0.00000  Uiso   1.00
C137   C     0.36739   0.42908   0.39259   0.00000  Uiso   1.00
C138   C     0.34077   0.39293   0.24947   0.00000  Uiso   1.00
C139   C     0.62339   0.56535   1.00048   0.00000  Uiso   1.00
C140   C     0.64829   0.60209   1.14248   0.00000  Uiso   1.00
H141   H     0.39901   0.41113   0.68317   0.00000  Uiso   1.00
H142   H     0.41523   0.43009   0.23890   0.00000  Uiso   1.00
H143   H     0.57389   0.56105   1.14938   0.00000  Uiso   1.00
H144   H     0.58957   0.57996   0.70317   0.00000  Uiso   1.00
H145   H     0.37239   0.44990   0.18597   0.00000  Uiso   1.00
H146   H     0.35548   0.43539   0.63356   0.00000  Uiso   1.00
H147   H     0.33683   0.37175   0.44281   0.00000  Uiso   1.00
H148   H     0.35101   0.38671  -0.00317   0.00000  Uiso   1.00
H149   H     0.63620   0.56009   0.76025   0.00000  Uiso   1.00
H150   H     0.61971   0.54501   1.20790   0.00000  Uiso   1.00
H151   H     0.63732   0.60741   1.39491   0.00000  Uiso   1.00
H152   H     0.65079   0.62271   0.94889   0.00000  Uiso   1.00
S153   S     0.69091   0.60740   1.22908   0.00000  Uiso   1.00
C154   C     0.71228   0.65285   1.36900   0.00000  Uiso   1.00
C155   C     0.74855   0.66463   1.51976   0.00000  Uiso   1.00
S156   S     0.29943   0.39060   0.16272   0.00000  Uiso   1.00
C157   C     0.27553   0.34514   0.02282   0.00000  Uiso   1.00
C158   C     0.23980   0.33564  -0.12794   0.00000  Uiso   1.00
H159   H     0.69597   0.65599   1.58454   0.00000  Uiso   1.00
H160   H     0.71427   0.67077   1.13831   0.00000  Uiso   1.00
H161   H     0.75850   0.68928   1.68155   0.00000  Uiso   1.00
H162   H     0.76695   0.66942   1.27900   0.00000  Uiso   1.00
H163   H     0.74855   0.64446   1.70781   0.00000  Uiso   1.00
H164   H     0.27228   0.32675   0.25353   0.00000  Uiso   1.00
H165   H     0.29096   0.34067  -0.19269   0.00000  Uiso   1.00
H166   H     0.24130   0.35652  -0.31600   0.00000  Uiso   1.00
H167   H     0.22177   0.33205   0.11281   0.00000  Uiso   1.00
H168   H     0.22841   0.31086  -0.28973   0.00000  Uiso   1.00
C169   C     0.52473   0.03596   0.63716   0.00000  Uiso   1.00
C170   C     0.48876   0.02073   0.67799   0.00000  Uiso   1.00
C171   C     0.46844   0.98467   0.66983   0.00000  Uiso   1.00
C172   C     0.54768   0.07378   0.60869   0.00000  Uiso   1.00
O173   O     0.57701   0.08674   0.73532   0.00000  Uiso   1.00
N174   N     0.53697   0.09427   0.43438   0.00000  Uiso   1.00
N175   N     0.55909   0.12988   0.41614   0.00000  Uiso   1.00
C176   C     0.54923   0.15030   0.27356   0.00000  Uiso   1.00
C177   C     0.57336   0.18748   0.25415   0.00000  Uiso   1.00
C178   C     0.60771   0.20130   0.37123   0.00000  Uiso   1.00
C179   C     0.63015   0.23664   0.36073   0.00000  Uiso   1.00
C180   C     0.61929   0.25926   0.21946   0.00000  Uiso   1.00
C181   C     0.58474   0.24485   0.09478   0.00000  Uiso   1.00
C182   C     0.56201   0.20951   0.11854   0.00000  Uiso   1.00
C183   C     0.64364   0.29734   0.20645   0.00000  Uiso   1.00
C184   C     0.67942   0.31073   0.20433   0.00000  Uiso   1.00
O185   O     0.47440   0.04219   0.72763   0.00000  Uiso   1.00
H186   H     0.51326   0.08361   0.29190   0.00000  Uiso   1.00
H187   H     0.52310   0.14003   0.16804   0.00000  Uiso   1.00
H188   H     0.61713   0.18489   0.48144   0.00000  Uiso   1.00
H189   H     0.65562   0.24581   0.47844   0.00000  Uiso   1.00
H190   H     0.57500   0.26033  -0.03273   0.00000  Uiso   1.00
H191   H     0.53566   0.19927   0.02224   0.00000  Uiso   1.00
H192   H     0.68926   0.29333   0.20356   0.00000  Uiso   1.00
C193   C     0.48328   0.96368   0.64224   0.00000  Uiso   1.00
C194   C     0.51943   0.97898   0.64259   0.00000  Uiso   1.00
C195   C     0.53969   0.01502   0.63727   0.00000  Uiso   1.00
C196   C     0.46001   0.92586   0.61504   0.00000  Uiso   1.00
O197   O     0.43096   0.91317   0.75037   0.00000  Uiso   1.00
N198   N     0.46989   0.90500   0.43310   0.00000  Uiso   1.00
N199   N     0.44713   0.86951   0.41584   0.00000  Uiso   1.00
C200   C     0.45599   0.84847   0.26875   0.00000  Uiso   1.00
C201   C     0.43088   0.81152   0.24876   0.00000  Uiso   1.00
C202   C     0.39669   0.79883   0.36549   0.00000  Uiso   1.00
C203   C     0.37323   0.76373   0.35355   0.00000  Uiso   1.00
C204   C     0.38291   0.74023   0.21124   0.00000  Uiso   1.00
C205   C     0.41733   0.75349   0.08728   0.00000  Uiso   1.00
C206   C     0.44108   0.78860   0.11227   0.00000  Uiso   1.00
C207   C     0.35743   0.70241   0.19667   0.00000  Uiso   1.00
C208   C     0.32187   0.69032   0.19426   0.00000  Uiso   1.00
O209   O     0.53439   0.95797   0.67598   0.00000  Uiso   1.00
H210   H     0.49308   0.91523   0.27996   0.00000  Uiso   1.00
H211   H     0.48190   0.85804   0.15921   0.00000  Uiso   1.00
H212   H     0.38813   0.81593   0.47622   0.00000  Uiso   1.00
H213   H     0.34792   0.75543   0.47102   0.00000  Uiso   1.00
H214   H     0.42621   0.73730  -0.04065   0.00000  Uiso   1.00
H215   H     0.46729   0.79796   0.01623   0.00000  Uiso   1.00
H216   H     0.31302   0.70852   0.19327   0.00000  Uiso   1.00
C217   C     0.56733   0.96959   0.49740   0.00000  Uiso   1.00
C218   C     0.44074   0.02831   0.89408   0.00000  Uiso   1.00
H219   H     0.44074   0.97262   0.67769   0.00000  Uiso   1.00
H220   H     0.56742   0.02705   0.63610   0.00000  Uiso   1.00
C221   C     0.57092   0.93831   0.39259   0.00000  Uiso   1.00
C222   C     0.60707   0.94784   0.24947   0.00000  Uiso   1.00
C223   C     0.43465   0.05804   1.00048   0.00000  Uiso   1.00
C224   C     0.39791   0.04620   1.14248   0.00000  Uiso   1.00
H225   H     0.58887   0.98788   0.68317   0.00000  Uiso   1.00
H226   H     0.56991   0.98514   0.23890   0.00000  Uiso   1.00
H227   H     0.43895   0.01284   1.14938   0.00000  Uiso   1.00
H228   H     0.42004   0.00961   0.70317   0.00000  Uiso   1.00
H229   H     0.55010   0.92249   0.18597   0.00000  Uiso   1.00
H230   H     0.56461   0.92009   0.63356   0.00000  Uiso   1.00
H231   H     0.62825   0.96508   0.44281   0.00000  Uiso   1.00
H232   H     0.61329   0.96430  -0.00317   0.00000  Uiso   1.00
H233   H     0.43991   0.07611   0.76025   0.00000  Uiso   1.00
H234   H     0.45499   0.07470   1.20790   0.00000  Uiso   1.00
H235   H     0.39259   0.02991   1.39491   0.00000  Uiso   1.00
H236   H     0.37729   0.02808   0.94889   0.00000  Uiso   1.00
S237   S     0.39260   0.08351   1.22908   0.00000  Uiso   1.00
C238   C     0.34715   0.05943   1.36900   0.00000  Uiso   1.00
C239   C     0.33537   0.08392   1.51976   0.00000  Uiso   1.00
S240   S     0.60940   0.90883   0.16272   0.00000  Uiso   1.00
C241   C     0.65486   0.93039   0.02282   0.00000  Uiso   1.00
C242   C     0.66436   0.90416  -0.12794   0.00000  Uiso   1.00
H243   H     0.34401   0.03998   1.58454   0.00000  Uiso   1.00
H244   H     0.32923   0.04350   1.13831   0.00000  Uiso   1.00
H245   H     0.31072   0.06922   1.68155   0.00000  Uiso   1.00
H246   H     0.33058   0.09753   1.27900   0.00000  Uiso   1.00
H247   H     0.35554   0.10409   1.70781   0.00000  Uiso   1.00
H248   H     0.67325   0.94553   0.25353   0.00000  Uiso   1.00
H249   H     0.65933   0.95029  -0.19269   0.00000  Uiso   1.00
H250   H     0.64348   0.88478  -0.31600   0.00000  Uiso   1.00
H251   H     0.66795   0.88972   0.11281   0.00000  Uiso   1.00
H252   H     0.68914   0.91755  -0.28973   0.00000  Uiso   1.00
loop_
_geom_bond_atom_site_label_1
_geom_bond_atom_site_label_2
_geom_bond_distance
_geom_bond_site_symmetry_2
_ccdc_geom_bond_type
C1     C2      1.393   .     S
C1     C4      1.466   .     S
C1     C27     1.385   .     D
C2     C3      1.388   1_655 D
C2     O17     1.394   .     S
C3     C2      1.388   1_455 D
C3     C25     1.386   .     S
C3     H51     1.067   .     S
C4     O5      1.207   .     D
C4     N6      1.353   .     S
N6     N7      1.382   .     S
N6     H18     1.032   .     S
N7     C8      1.281   .     D
C8     C9      1.450   .     S
C8     H19     1.072   .     S
C9     C10     1.385   .     D
C9     C14     1.382   .     S
C10    C11     1.374   .     S
C10    H20     1.071   .     S
C11    C12     1.396   .     D
C11    H21     1.068   .     S
C12    C13     1.398   .     S
C12    C15     1.482   .     S
C13    C14     1.378   .     D
C13    H22     1.068   .     S
C14    H23     1.071   .     S
C15    C16     1.388   .     S
C15    C184    1.387   .     D
C16    H24     1.059   .     S
C16    C99     1.387   .     D
O17    C50     1.416   .     S
C25    C26     1.393   .     D
C25    C28     1.468   .     S
C26    C27     1.387   1_455 S
C26    O41     1.392   .     S
C27    C26     1.387   1_655 S
C27    H52     1.068   .     S
C28    O29     1.209   .     D
C28    N30     1.354   .     S
N30    N31     1.382   .     S
N30    H42     1.032   .     S
N31    C32     1.280   .     D
C32    C33     1.450   .     S
C32    H43     1.072   .     S
C33    C34     1.385   .     D
C33    C38     1.382   .     S
C34    C35     1.373   .     S
C34    H44     1.071   .     S
C35    C36     1.396   .     D
C35    H45     1.068   .     S
C36    C37     1.398   .     S
C36    C39     1.482   .     S
C37    C38     1.378   .     D
C37    H46     1.068   .     S
C38    H47     1.071   .     S
C39    C40     1.388   .     S
C39    C208    1.387   .     D
C40    H48     1.059   .     S
C40    C123    1.387   .     D
O41    C49     1.418   .     S
C49    C53     1.515   .     S
C49    H57     1.092   .     S
C49    H58     1.085   .     S
C50    C55     1.515   .     S
C50    H59     1.082   .     S
C50    H60     1.090   .     S
C53    C54     1.518   .     S
C53    H61     1.089   .     S
C53    H62     1.082   .     S
C54    H63     1.085   .     S
C54    H64     1.068   .     S
C54    S72     1.807   .     S
C55    C56     1.518   .     S
C55    H65     1.083   .     S
C55    H66     1.089   .     S
C56    H67     1.067   .     S
C56    H68     1.085   .     S
C56    S69     1.807   .     S
S69    C70     1.809   .     S
C70    C71     1.510   .     S
C70    H75     1.085   .     S
C70    H76     1.086   .     S
C71    H77     1.099   .     S
C71    H78     1.097   .     S
C71    H79     1.098   .     S
S72    C73     1.809   .     S
C73    C74     1.510   .     S
C73    H80     1.086   .     S
C73    H81     1.085   .     S
C74    H82     1.098   .     S
C74    H83     1.097   .     S
C74    H84     1.099   .     S
C85    C86     1.393   .     S
C85    C88     1.466   .     S
C85    C111    1.385   .     D
C86    C87     1.388   .     D
C86    O101    1.394   .     S
C87    C109    1.386   .     S
C87    H135    1.067   .     S
C88    O89     1.207   .     D
C88    N90     1.353   .     S
N90    N91     1.382   .     S
N90    H102    1.032   .     S
N91    C92     1.281   .     D
C92    C93     1.450   .     S
C92    H103    1.072   .     S
C93    C94     1.385   .     D
C93    C98     1.382   .     S
C94    C95     1.374   .     S
C94    H104    1.071   .     S
C95    C96     1.396   .     D
C95    H105    1.068   .     S
C96    C97     1.398   .     S
C96    C99     1.482   .     S
C97    C98     1.378   .     D
C97    H106    1.068   .     S
C98    H107    1.071   .     S
C99    C100    1.388   .     S
C100   H108    1.059   .     S
C100   C183    1.387   .     D
O101   C134    1.416   .     S
C109   C110    1.393   .     D
C109   C112    1.468   .     S
C110   C111    1.387   .     S
C110   O125    1.392   .     S
C111   H136    1.068   .     S
C112   O113    1.209   .     D
C112   N114    1.354   .     S
N114   N115    1.382   .     S
N114   H126    1.032   .     S
N115   C116    1.280   .     D
C116   C117    1.450   .     S
C116   H127    1.072   .     S
C117   C118    1.385   .     S
C117   C122    1.382   .     D
C118   C119    1.373   .     D
C118   H128    1.071   .     S
C119   C120    1.396   .     S
C119   H129    1.068   .     S
C120   C121    1.398   .     D
C120   C123    1.482   .     S
C121   C122    1.378   .     S
C121   H130    1.068   .     S
C122   H131    1.071   .     S
C123   C124    1.388   .     S
C124   H132    1.059   .     S
C124   C207    1.387   .     D
O125   C133    1.418   .     S
C133   C137    1.515   .     S
C133   H141    1.092   .     S
C133   H142    1.085   .     S
C134   C139    1.515   .     S
C134   H143    1.082   .     S
C134   H144    1.090   .     S
C137   C138    1.518   .     S
C137   H145    1.089   .     S
C137   H146    1.082   .     S
C138   H147    1.085   .     S
C138   H148    1.068   .     S
C138   S156    1.807   .     S
C139   C140    1.518   .     S
C139   H149    1.083   .     S
C139   H150    1.089   .     S
C140   H151    1.067   .     S
C140   H152    1.085   .     S
C140   S153    1.807   .     S
S153   C154    1.809   .     S
C154   C155    1.510   .     S
C154   H159    1.085   .     S
C154   H160    1.086   .     S
C155   H161    1.099   .     S
C155   H162    1.097   .     S
C155   H163    1.098   .     S
S156   C157    1.809   .     S
C157   C158    1.510   .     S
C157   H164    1.086   .     S
C157   H165    1.085   .     S
C158   H166    1.098   .     S
C158   H167    1.097   .     S
C158   H168    1.099   .     S
C169   C170    1.393   .     S
C169   C172    1.466   .     S
C169   C195    1.385   .     D
C170   C171    1.388   1_545 D
C170   O185    1.394   .     S
C171   C170    1.388   1_565 D
C171   C193    1.386   .     S
C171   H219    1.067   .     S
C172   O173    1.207   .     D
C172   N174    1.353   .     S
N174   N175    1.382   .     S
N174   H186    1.032   .     S
N175   C176    1.281   .     D
C176   C177    1.450   .     S
C176   H187    1.072   .     S
C177   C178    1.385   .     D
C177   C182    1.382   .     S
C178   C179    1.374   .     S
C178   H188    1.071   .     S
C179   C180    1.396   .     D
C179   H189    1.068   .     S
C180   C181    1.398   .     S
C180   C183    1.482   .     S
C181   C182    1.378   .     D
C181   H190    1.068   .     S
C182   H191    1.071   .     S
C183   C184    1.388   .     S
C184   H192    1.059   .     S
O185   C218    1.416   .     S
C193   C194    1.393   .     D
C193   C196    1.468   .     S
C194   C195    1.387   1_565 S
C194   O209    1.392   .     S
C195   C194    1.387   1_545 S
C195   H220    1.068   .     S
C196   O197    1.209   .     D
C196   N198    1.354   .     S
N198   N199    1.382   .     S
N198   H210    1.032   .     S
N199   C200    1.280   .     D
C200   C201    1.450   .     S
C200   H211    1.072   .     S
C201   C202    1.385   .     D
C201   C206    1.382   .     S
C202   C203    1.373   .     S
C202   H212    1.071   .     S
C203   C204    1.396   .     D
C203   H213    1.068   .     S
C204   C205    1.398   .     S
C204   C207    1.482   .     S
C205   C206    1.378   .     D
C205   H214    1.068   .     S
C206   H215    1.071   .     S
C207   C208    1.388   .     S
C208   H216    1.059   .     S
O209   C217    1.418   .     S
C217   C221    1.515   .     S
C217   H225    1.092   .     S
C217   H226    1.085   .     S
C218   C223    1.515   .     S
C218   H227    1.082   .     S
C218   H228    1.090   .     S
C221   C222    1.518   .     S
C221   H229    1.089   .     S
C221   H230    1.082   .     S
C222   H231    1.085   .     S
C222   H232    1.068   .     S
C222   S240    1.807   .     S
C223   C224    1.518   .     S
C223   H233    1.083   .     S
C223   H234    1.089   .     S
C224   H235    1.067   .     S
C224   H236    1.085   .     S
C224   S237    1.807   .     S
S237   C238    1.809   .     S
C238   C239    1.510   .     S
C238   H243    1.085   .     S
C238   H244    1.086   .     S
C239   H245    1.099   .     S
C239   H246    1.097   .     S
C239   H247    1.098   .     S
S240   C241    1.809   .     S
C241   C242    1.510   .     S
C241   H248    1.086   .     S
C241   H249    1.085   .     S
C242   H250    1.098   .     S
C242   H251    1.097   .     S
C242   H252    1.099   .     S
