data_495
_audit_creation_date              2023-09-08
_audit_creation_method            'Materials Studio'
_symmetry_space_group_name_H-M    'P1'
_symmetry_Int_Tables_number       1
_symmetry_cell_setting            triclinic
loop_
_symmetry_equiv_pos_as_xyz
  x,y,z
_cell_length_a                    26.0324
_cell_length_b                    26.0324
_cell_length_c                    3.6329
_cell_angle_alpha                 90.0000
_cell_angle_beta                  90.0000
_cell_angle_gamma                 120.0000
loop_
_atom_site_label
_atom_site_type_symbol
_atom_site_fract_x
_atom_site_fract_y
_atom_site_fract_z
_atom_site_U_iso_or_equiv
_atom_site_adp_type
_atom_site_occupancy
C1     C     0.26456   0.82035   0.34858   0.00000  Uiso   1.00
C2     C     0.17965   0.44421   0.34858   0.00000  Uiso   1.00
C3     C     0.55579   0.73544   0.34858   0.00000  Uiso   1.00
C4     C     0.29494   0.78951   0.33548   0.00000  Uiso   1.00
C5     C     0.21049   0.50543   0.33548   0.00000  Uiso   1.00
C6     C     0.49457   0.70506   0.33548   0.00000  Uiso   1.00
C7     C     0.26886   0.73077   0.46047   0.00000  Uiso   1.00
C8     C     0.26923   0.53809   0.46047   0.00000  Uiso   1.00
C9     C     0.46191   0.73114   0.46047   0.00000  Uiso   1.00
C10    C     0.21047   0.70421   0.59277   0.00000  Uiso   1.00
C11    C     0.29579   0.50626   0.59277   0.00000  Uiso   1.00
C12    C     0.49374   0.78953   0.59277   0.00000  Uiso   1.00
C13    C     0.17950   0.73449   0.60274   0.00000  Uiso   1.00
C14    C     0.26551   0.44501   0.60274   0.00000  Uiso   1.00
C15    C     0.55499   0.82050   0.60274   0.00000  Uiso   1.00
C16    C     0.20648   0.79378   0.48562   0.00000  Uiso   1.00
C17    C     0.20622   0.41270   0.48562   0.00000  Uiso   1.00
C18    C     0.58730   0.79352   0.48562   0.00000  Uiso   1.00
C19    C     0.30197   0.69774   0.45481   0.00000  Uiso   1.00
C20    C     0.30226   0.60423   0.45481   0.00000  Uiso   1.00
C21    C     0.39577   0.69803   0.45481   0.00000  Uiso   1.00
C22    C     0.27181   0.63577   0.45448   0.00000  Uiso   1.00
C23    C     0.36423   0.63604   0.45448   0.00000  Uiso   1.00
C24    C     0.36396   0.72819   0.45448   0.00000  Uiso   1.00
N25    N     0.64962   0.82033   0.48383   0.00000  Uiso   1.00
N26    N     0.17967   0.82929   0.48383   0.00000  Uiso   1.00
N27    N     0.17071   0.35038   0.48383   0.00000  Uiso   1.00
C28    C     0.09128   0.22600   0.50235   0.00000  Uiso   1.00
C29    C     0.77400   0.86528   0.50235   0.00000  Uiso   1.00
C30    C     0.13472   0.90872   0.50235   0.00000  Uiso   1.00
C31    C     0.05551   0.16506   0.49663   0.00000  Uiso   1.00
C32    C     0.83494   0.89045   0.49663   0.00000  Uiso   1.00
C33    C     0.10955   0.94449   0.49663   0.00000  Uiso   1.00
C34    C     0.07555   0.12784   0.63497   0.00000  Uiso   1.00
C35    C     0.87216   0.94771   0.63497   0.00000  Uiso   1.00
C36    C     0.05229   0.92445   0.63497   0.00000  Uiso   1.00
C37    C     0.13327   0.15455   0.77787   0.00000  Uiso   1.00
C38    C     0.84545   0.97872   0.77787   0.00000  Uiso   1.00
C39    C     0.02128   0.86673   0.77787   0.00000  Uiso   1.00
C40    C     0.16920   0.21552   0.78291   0.00000  Uiso   1.00
C41    C     0.78448   0.95368   0.78291   0.00000  Uiso   1.00
C42    C     0.04632   0.83080   0.78291   0.00000  Uiso   1.00
C43    C     0.14892   0.25249   0.64562   0.00000  Uiso   1.00
C44    C     0.74751   0.89643   0.64562   0.00000  Uiso   1.00
C45    C     0.10357   0.85108   0.64562   0.00000  Uiso   1.00
C46    C     0.03669   0.06206   0.63223   0.00000  Uiso   1.00
C47    C     0.93794   0.97463   0.63223   0.00000  Uiso   1.00
C48    C     0.02537   0.96331   0.63223   0.00000  Uiso   1.00
C49    C     0.97498   0.03618   0.63205   0.00000  Uiso   1.00
C50    C     0.96382   0.93880   0.63205   0.00000  Uiso   1.00
C51    C     0.06120   0.02502   0.63205   0.00000  Uiso   1.00
C52    C     0.13016   0.81300   0.65488   0.00000  Uiso   1.00
C53    C     0.18700   0.31716   0.65488   0.00000  Uiso   1.00
C54    C     0.68284   0.86984   0.65488   0.00000  Uiso   1.00
H55    H     0.28576   0.86612   0.24944   0.00000  Uiso   1.00
H56    H     0.13388   0.41964   0.24944   0.00000  Uiso   1.00
H57    H     0.58036   0.71424   0.24944   0.00000  Uiso   1.00
H58    H     0.33962   0.81162   0.21776   0.00000  Uiso   1.00
H59    H     0.18838   0.52800   0.21776   0.00000  Uiso   1.00
H60    H     0.47200   0.66038   0.21776   0.00000  Uiso   1.00
H61    H     0.18848   0.65877   0.69867   0.00000  Uiso   1.00
H62    H     0.34123   0.52971   0.69867   0.00000  Uiso   1.00
H63    H     0.47029   0.81152   0.69867   0.00000  Uiso   1.00
H64    H     0.13401   0.71140   0.70749   0.00000  Uiso   1.00
H65    H     0.28860   0.42261   0.70749   0.00000  Uiso   1.00
H66    H     0.57739   0.86599   0.70749   0.00000  Uiso   1.00
H67    H     0.22332   0.61138   0.45511   0.00000  Uiso   1.00
H68    H     0.38862   0.61194   0.45511   0.00000  Uiso   1.00
H69    H     0.38806   0.77668   0.45511   0.00000  Uiso   1.00
H70    H     0.07485   0.25417   0.39098   0.00000  Uiso   1.00
H71    H     0.74583   0.82068   0.39098   0.00000  Uiso   1.00
H72    H     0.17932   0.92515   0.39098   0.00000  Uiso   1.00
H73    H     0.01136   0.14621   0.37365   0.00000  Uiso   1.00
H74    H     0.85379   0.86515   0.37365   0.00000  Uiso   1.00
H75    H     0.13485   0.98864   0.37365   0.00000  Uiso   1.00
H76    H     0.15039   0.12749   0.89736   0.00000  Uiso   1.00
H77    H     0.87251   0.02290   0.89736   0.00000  Uiso   1.00
H78    H     0.97710   0.84961   0.89736   0.00000  Uiso   1.00
H79    H     0.21387   0.23499   0.89987   0.00000  Uiso   1.00
H80    H     0.76501   0.97888   0.89987   0.00000  Uiso   1.00
H81    H     0.02112   0.78613   0.89987   0.00000  Uiso   1.00
H82    H     0.95527   0.06470   0.63236   0.00000  Uiso   1.00
H83    H     0.93530   0.89057   0.63236   0.00000  Uiso   1.00
H84    H     0.10943   0.04473   0.63236   0.00000  Uiso   1.00
H85    H     0.10563   0.77081   0.81586   0.00000  Uiso   1.00
H86    H     0.22919   0.33482   0.81586   0.00000  Uiso   1.00
H87    H     0.66518   0.89437   0.81586   0.00000  Uiso   1.00
loop_
_geom_bond_atom_site_label_1
_geom_bond_atom_site_label_2
_geom_bond_distance
_geom_bond_site_symmetry_2
_ccdc_geom_bond_type
C1     C4      1.381   .     S
C1     C16     1.402   .     D
C1     H55     1.094   .     S
C2     C5      1.381   .     S
C2     C17     1.402   .     D
C2     H56     1.094   .     S
C3     C6      1.381   .     D
C3     C18     1.402   .     S
C3     H57     1.094   .     S
C4     C7      1.403   .     D
C4     H58     1.094   .     S
C5     C8      1.403   .     D
C5     H59     1.094   .     S
C6     C9      1.403   .     S
C6     H60     1.094   .     S
C7     C10     1.403   .     S
C7     C19     1.491   .     S
C8     C11     1.403   .     S
C8     C20     1.491   .     S
C9     C12     1.403   .     D
C9     C21     1.491   .     S
C10    C13     1.381   .     D
C10    H61     1.094   .     S
C11    C14     1.381   .     D
C11    H62     1.094   .     S
C12    C15     1.381   .     S
C12    H63     1.094   .     S
C13    C16     1.404   .     S
C13    H64     1.094   .     S
C14    C17     1.404   .     S
C14    H65     1.094   .     S
C15    C18     1.404   .     D
C15    H66     1.094   .     S
C16    N26     1.410   .     S
C17    N27     1.410   .     S
C18    N25     1.410   .     S
C19    C22     1.397   .     D
C19    C24     1.398   .     S
C20    C22     1.398   .     S
C20    C23     1.397   .     D
C21    C23     1.398   .     S
C21    C24     1.397   .     D
C22    H67     1.093   .     S
C23    H68     1.093   .     S
C24    H69     1.093   .     S
N25    C54     1.296   .     D
N26    C52     1.296   .     D
N27    C53     1.296   .     D
C28    C31     1.381   .     S
C28    C43     1.401   .     D
C28    H70     1.095   .     S
C29    C32     1.381   .     D
C29    C44     1.401   .     S
C29    H71     1.095   .     S
C30    C33     1.381   .     S
C30    C45     1.401   .     D
C30    H72     1.095   .     S
C31    C34     1.403   .     D
C31    H73     1.094   .     S
C32    C35     1.403   .     S
C32    H74     1.094   .     S
C33    C36     1.403   .     D
C33    H75     1.094   .     S
C34    C37     1.402   .     S
C34    C46     1.491   .     S
C35    C38     1.402   .     D
C35    C47     1.491   .     S
C36    C39     1.402   .     S
C36    C48     1.491   .     S
C37    C40     1.382   .     D
C37    H76     1.094   .     S
C38    C41     1.382   .     S
C38    H77     1.094   1_565 S
C39    C42     1.382   .     D
C39    H78     1.094   1_455 S
C40    C43     1.401   .     S
C40    H79     1.096   .     S
C41    C44     1.401   .     D
C41    H80     1.096   .     S
C42    C45     1.401   .     S
C42    H81     1.096   .     S
C43    C53     1.466   .     S
C44    C54     1.466   .     S
C45    C52     1.466   .     S
C46    C49     1.397   1_455 S
C46    C51     1.397   .     D
C47    C49     1.397   1_565 D
C47    C50     1.397   .     S
C48    C50     1.397   1_455 D
C48    C51     1.397   1_565 S
C49    C46     1.397   1_655 S
C49    C47     1.397   1_545 D
C49    H82     1.093   .     S
C50    C48     1.397   1_655 D
C50    H83     1.093   .     S
C51    C48     1.397   1_545 S
C51    H84     1.093   .     S
C52    H85     1.120   .     S
C53    H86     1.120   .     S
C54    H87     1.120   .     S
H77    C38     1.094   1_545 S
H78    C39     1.094   1_655 S
