data_496
_audit_creation_date              2023-09-08
_audit_creation_method            'Materials Studio'
_symmetry_space_group_name_H-M    'P1'
_symmetry_Int_Tables_number       1
_symmetry_cell_setting            triclinic
loop_
_symmetry_equiv_pos_as_xyz
  x,y,z
_cell_length_a                    25.7890
_cell_length_b                    25.7835
_cell_length_c                    7.2011
_cell_angle_alpha                 77.6282
_cell_angle_beta                  90.9074
_cell_angle_gamma                 61.1936
loop_
_atom_site_label
_atom_site_type_symbol
_atom_site_fract_x
_atom_site_fract_y
_atom_site_fract_z
_atom_site_U_iso_or_equiv
_atom_site_adp_type
_atom_site_occupancy
C1     C     0.86923   0.27157   0.98416   0.00000  Uiso   1.00
C2     C     0.90491   0.29922   0.98412   0.00000  Uiso   1.00
C3     C     0.88144   0.35896   0.00686   0.00000  Uiso   1.00
C4     C     0.82044   0.39232   0.02410   0.00000  Uiso   1.00
C5     C     0.78296   0.36702   0.01707   0.00000  Uiso   1.00
C6     C     0.80813   0.30640   0.00074   0.00000  Uiso   1.00
H7     H     0.95192   0.27446   0.96128   0.00000  Uiso   1.00
H8     H     0.80219   0.43816   0.04955   0.00000  Uiso   1.00
H9     H     0.77903   0.28627   0.99889   0.00000  Uiso   1.00
C10    C     0.71788   0.40487   0.02024   0.00000  Uiso   1.00
C11    C     0.68301   0.37952   0.10119   0.00000  Uiso   1.00
C12    C     0.68857   0.46833   0.93376   0.00000  Uiso   1.00
C13    C     0.62143   0.41586   0.09338   0.00000  Uiso   1.00
H14    H     0.70428   0.33049   0.17399   0.00000  Uiso   1.00
C15    C     0.62709   0.50469   0.92617   0.00000  Uiso   1.00
H16    H     0.71379   0.48977   0.86562   0.00000  Uiso   1.00
C17    C     0.59224   0.47911   0.00434   0.00000  Uiso   1.00
H18    H     0.59519   0.39504   0.15694   0.00000  Uiso   1.00
H19    H     0.60552   0.55390   0.85546   0.00000  Uiso   1.00
C20    C     0.92027   0.38639   0.01323   0.00000  Uiso   1.00
C21    C     0.89778   0.44960   0.93524   0.00000  Uiso   1.00
C22    C     0.98055   0.35022   0.09875   0.00000  Uiso   1.00
C23    C     0.93382   0.47568   0.94415   0.00000  Uiso   1.00
H24    H     0.85144   0.47899   0.86288   0.00000  Uiso   1.00
C25    C     0.01649   0.37637   0.10968   0.00000  Uiso   1.00
H26    H     0.99974   0.30081   0.16184   0.00000  Uiso   1.00
C27    C     0.99373   0.43958   0.03297   0.00000  Uiso   1.00
H28    H     0.91555   0.52498   0.88200   0.00000  Uiso   1.00
H29    H     0.06312   0.34718   0.17972   0.00000  Uiso   1.00
C30    C     0.89571   0.20733   0.97030   0.00000  Uiso   1.00
C31    C     0.85975   0.18287   0.92610   0.00000  Uiso   1.00
C32    C     0.95829   0.16753   0.00653   0.00000  Uiso   1.00
C33    C     0.88489   0.12161   0.92360   0.00000  Uiso   1.00
H34    H     0.81089   0.21194   0.89129   0.00000  Uiso   1.00
C35    C     0.98361   0.10660   0.00081   0.00000  Uiso   1.00
H36    H     0.98846   0.18378   0.04411   0.00000  Uiso   1.00
C37    C     0.94733   0.08218   0.96114   0.00000  Uiso   1.00
H38    H     0.85545   0.10406   0.88938   0.00000  Uiso   1.00
H39    H     0.03244   0.07666   0.03071   0.00000  Uiso   1.00
C40    C     0.97347   0.01772   0.95931   0.00000  Uiso   1.00
H41    H     0.94072   0.00134   0.94303   0.00000  Uiso   1.00
C42    C     0.03141   0.46712   0.04731   0.00000  Uiso   1.00
H43    H     0.07667   0.43650   0.13624   0.00000  Uiso   1.00
N44    N     0.01236   0.52386   0.96501   0.00000  Uiso   1.00
N45    N     0.03067   0.98305   0.97558   0.00000  Uiso   1.00
C46    C     0.05827   0.92102   0.97579   0.00000  Uiso   1.00
C47    C     0.02735   0.88987   0.94681   0.00000  Uiso   1.00
C48    C     0.12148   0.88798   0.00816   0.00000  Uiso   1.00
C49    C     0.05902   0.82788   0.95302   0.00000  Uiso   1.00
H50    H     0.97824   0.91383   0.91843   0.00000  Uiso   1.00
C51    C     0.15288   0.82595   0.01315   0.00000  Uiso   1.00
H52    H     0.14581   0.91182   0.03131   0.00000  Uiso   1.00
C53    C     0.12203   0.79491   0.98609   0.00000  Uiso   1.00
H54    H     0.03487   0.80375   0.93060   0.00000  Uiso   1.00
H55    H     0.20207   0.80073   0.03964   0.00000  Uiso   1.00
C56    C     0.15365   0.72934   0.98914   0.00000  Uiso   1.00
C57    C     0.24001   0.63940   0.00078   0.00000  Uiso   1.00
C58    C     0.14916   0.64309   0.97767   0.00000  Uiso   1.00
N59    N     0.12013   0.70277   0.97697   0.00000  Uiso   1.00
N60    N     0.21376   0.69893   0.00263   0.00000  Uiso   1.00
N61    N     0.20903   0.61024   0.98793   0.00000  Uiso   1.00
C62    C     0.11400   0.61214   0.97028   0.00000  Uiso   1.00
C63    C     0.14183   0.55111   0.95552   0.00000  Uiso   1.00
C64    C     0.05217   0.64273   0.98134   0.00000  Uiso   1.00
C65    C     0.10932   0.52090   0.95524   0.00000  Uiso   1.00
H66    H     0.18986   0.52736   0.94329   0.00000  Uiso   1.00
C67    C     0.01914   0.61313   0.97954   0.00000  Uiso   1.00
H68    H     0.03022   0.69041   0.99286   0.00000  Uiso   1.00
C69    C     0.04757   0.55140   0.97042   0.00000  Uiso   1.00
H70    H     0.13166   0.47375   0.93887   0.00000  Uiso   1.00
H71    H     0.97117   0.63693   0.99202   0.00000  Uiso   1.00
C72    C     0.30566   0.60386   0.01412   0.00000  Uiso   1.00
C73    C     0.33369   0.54222   0.00525   0.00000  Uiso   1.00
C74    C     0.34150   0.63006   0.03830   0.00000  Uiso   1.00
C75    C     0.39562   0.50767   0.02026   0.00000  Uiso   1.00
H76    H     0.30586   0.52160   0.98589   0.00000  Uiso   1.00
C77    C     0.40350   0.59601   0.05185   0.00000  Uiso   1.00
H78    H     0.32007   0.67789   0.04806   0.00000  Uiso   1.00
C79    C     0.43137   0.53437   0.04100   0.00000  Uiso   1.00
H80    H     0.41691   0.45991   0.01033   0.00000  Uiso   1.00
H81    H     0.43057   0.61704   0.07580   0.00000  Uiso   1.00
N82    N     0.49355   0.49722   0.05827   0.00000  Uiso   1.00
C83    C     0.52728   0.51819   0.98712   0.00000  Uiso   1.00
H84    H     0.50874   0.56707   0.90297   0.00000  Uiso   1.00
C85    C     0.88253   0.27820   0.49016   0.00000  Uiso   1.00
C86    C     0.91825   0.30564   0.49530   0.00000  Uiso   1.00
C87    C     0.89413   0.36625   0.51061   0.00000  Uiso   1.00
C88    C     0.83252   0.40036   0.51866   0.00000  Uiso   1.00
C89    C     0.79519   0.37500   0.50821   0.00000  Uiso   1.00
C90    C     0.82082   0.31397   0.49637   0.00000  Uiso   1.00
H91    H     0.96608   0.27983   0.48327   0.00000  Uiso   1.00
H92    H     0.81363   0.44685   0.53929   0.00000  Uiso   1.00
H93    H     0.79147   0.29436   0.48929   0.00000  Uiso   1.00
C94    C     0.72976   0.41309   0.50396   0.00000  Uiso   1.00
C95    C     0.69452   0.38776   0.58125   0.00000  Uiso   1.00
C96    C     0.70064   0.47646   0.41619   0.00000  Uiso   1.00
C97    C     0.63292   0.42418   0.57167   0.00000  Uiso   1.00
H98    H     0.71549   0.33870   0.65316   0.00000  Uiso   1.00
C99    C     0.63903   0.51290   0.40567   0.00000  Uiso   1.00
H100   H     0.72617   0.49782   0.34999   0.00000  Uiso   1.00
C101   C     0.60404   0.48743   0.48305   0.00000  Uiso   1.00
H102   H     0.60639   0.40352   0.63352   0.00000  Uiso   1.00
H103   H     0.61762   0.56207   0.33463   0.00000  Uiso   1.00
C104   C     0.93281   0.39383   0.51813   0.00000  Uiso   1.00
C105   C     0.91073   0.45676   0.43571   0.00000  Uiso   1.00
C106   C     0.99264   0.35813   0.60824   0.00000  Uiso   1.00
C107   C     0.94668   0.48298   0.44418   0.00000  Uiso   1.00
H108   H     0.86474   0.48589   0.36035   0.00000  Uiso   1.00
C109   C     0.02865   0.38431   0.61700   0.00000  Uiso   1.00
H110   H     0.01132   0.30912   0.67722   0.00000  Uiso   1.00
C111   C     0.00631   0.44723   0.53557   0.00000  Uiso   1.00
H112   H     0.92861   0.53208   0.37886   0.00000  Uiso   1.00
H113   H     0.07499   0.35539   0.68991   0.00000  Uiso   1.00
C114   C     0.90927   0.21360   0.47957   0.00000  Uiso   1.00
C115   C     0.87344   0.18871   0.43809   0.00000  Uiso   1.00
C116   C     0.97190   0.17395   0.51434   0.00000  Uiso   1.00
C117   C     0.89868   0.12754   0.43455   0.00000  Uiso   1.00
H118   H     0.82450   0.21736   0.40599   0.00000  Uiso   1.00
C119   C     0.99731   0.11301   0.50864   0.00000  Uiso   1.00
H120   H     0.00213   0.19035   0.55012   0.00000  Uiso   1.00
C121   C     0.96116   0.08839   0.46959   0.00000  Uiso   1.00
H122   H     0.86925   0.10985   0.40161   0.00000  Uiso   1.00
H123   H     0.04619   0.08329   0.53724   0.00000  Uiso   1.00
C124   C     0.98734   0.02407   0.46595   0.00000  Uiso   1.00
H125   H     0.95462   0.00767   0.44969   0.00000  Uiso   1.00
C126   C     0.04407   0.47479   0.54855   0.00000  Uiso   1.00
H127   H     0.08897   0.44450   0.63996   0.00000  Uiso   1.00
N128   N     0.02553   0.53117   0.46290   0.00000  Uiso   1.00
N129   N     0.04453   0.98952   0.48105   0.00000  Uiso   1.00
C130   C     0.07205   0.92749   0.48114   0.00000  Uiso   1.00
C131   C     0.04110   0.89633   0.45284   0.00000  Uiso   1.00
C132   C     0.13527   0.89443   0.51315   0.00000  Uiso   1.00
C133   C     0.07271   0.83436   0.45887   0.00000  Uiso   1.00
H134   H     0.99199   0.92030   0.42490   0.00000  Uiso   1.00
C135   C     0.16667   0.83238   0.51835   0.00000  Uiso   1.00
H136   H     0.15965   0.91827   0.53589   0.00000  Uiso   1.00
C137   C     0.13572   0.80138   0.49148   0.00000  Uiso   1.00
H138   H     0.04853   0.81025   0.43668   0.00000  Uiso   1.00
H139   H     0.21583   0.80717   0.54452   0.00000  Uiso   1.00
C140   C     0.16729   0.73588   0.49358   0.00000  Uiso   1.00
C141   C     0.25352   0.64600   0.50386   0.00000  Uiso   1.00
C142   C     0.16266   0.64982   0.48040   0.00000  Uiso   1.00
N143   N     0.13373   0.70939   0.48115   0.00000  Uiso   1.00
N144   N     0.22738   0.70550   0.50606   0.00000  Uiso   1.00
N145   N     0.22251   0.61693   0.49046   0.00000  Uiso   1.00
C146   C     0.12740   0.61908   0.47112   0.00000  Uiso   1.00
C147   C     0.15518   0.55813   0.45570   0.00000  Uiso   1.00
C148   C     0.06549   0.64987   0.48072   0.00000  Uiso   1.00
C149   C     0.12255   0.52809   0.45385   0.00000  Uiso   1.00
H150   H     0.20326   0.53433   0.44411   0.00000  Uiso   1.00
C151   C     0.03237   0.62040   0.47777   0.00000  Uiso   1.00
H152   H     0.04357   0.69755   0.49226   0.00000  Uiso   1.00
C153   C     0.06078   0.55868   0.46846   0.00000  Uiso   1.00
H154   H     0.14482   0.48100   0.43702   0.00000  Uiso   1.00
H155   H     0.98436   0.64430   0.48944   0.00000  Uiso   1.00
C156   C     0.31916   0.61042   0.51713   0.00000  Uiso   1.00
C157   C     0.34717   0.54862   0.50995   0.00000  Uiso   1.00
C158   C     0.35489   0.63688   0.53884   0.00000  Uiso   1.00
C159   C     0.40903   0.51427   0.52255   0.00000  Uiso   1.00
H160   H     0.31936   0.52776   0.49368   0.00000  Uiso   1.00
C161   C     0.41680   0.60317   0.54865   0.00000  Uiso   1.00
H162   H     0.33346   0.68474   0.54831   0.00000  Uiso   1.00
C163   C     0.44453   0.54157   0.53762   0.00000  Uiso   1.00
H164   H     0.43038   0.46643   0.51356   0.00000  Uiso   1.00
H165   H     0.44390   0.62450   0.56855   0.00000  Uiso   1.00
N166   N     0.50659   0.50518   0.54924   0.00000  Uiso   1.00
C167   C     0.53907   0.52620   0.46738   0.00000  Uiso   1.00
H168   H     0.51943   0.57452   0.37662   0.00000  Uiso   1.00
loop_
_geom_bond_atom_site_label_1
_geom_bond_atom_site_label_2
_geom_bond_distance
_geom_bond_site_symmetry_2
_ccdc_geom_bond_type
C1     C2      1.410   .     S
C1     C6      1.411   1_556 D
C1     C30     1.484   .     S
C2     C3      1.407   1_556 D
C2     H7      1.100   .     S
C3     C2      1.407   1_554 D
C3     C4      1.406   .     S
C3     C20     1.483   .     S
C4     C5      1.408   .     D
C4     H8      1.101   .     S
C5     C6      1.408   .     S
C5     C10     1.484   .     S
C6     C1      1.411   1_554 D
C6     H9      1.100   1_554 S
H9     C6      1.100   1_556 S
C10    C11     1.413   .     S
C10    C12     1.412   1_554 D
C11    C13     1.394   .     D
C11    H14     1.101   .     S
C12    C10     1.412   1_556 D
C12    C15     1.392   .     S
C12    H16     1.100   .     S
C13    C17     1.411   .     S
C13    H18     1.100   .     S
C15    C17     1.410   1_556 D
C15    H19     1.101   .     S
C17    C15     1.410   1_554 D
C17    C83     1.466   1_554 S
C20    C21     1.412   1_554 D
C20    C22     1.411   .     S
C21    C20     1.412   1_556 D
C21    C23     1.392   .     S
C21    H24     1.101   .     S
C22    C25     1.394   1_655 D
C22    H26     1.101   .     S
C23    C27     1.411   1_556 D
C23    H28     1.100   .     S
C25    C22     1.394   1_455 D
C25    C27     1.410   1_455 S
C25    H29     1.101   .     S
C27    C23     1.411   1_554 D
C27    C25     1.410   1_655 S
C27    C42     1.467   1_655 S
C30    C31     1.414   .     D
C30    C32     1.415   1_556 S
C31    C33     1.393   .     S
C31    H34     1.101   .     S
C32    C30     1.415   1_554 S
C32    C35     1.391   .     D
C32    H36     1.100   .     S
C33    C37     1.411   .     D
C33    H38     1.102   .     S
C35    C37     1.411   1_554 S
C35    H39     1.101   1_655 S
C37    C35     1.411   1_556 S
C37    C40     1.465   .     S
H39    C35     1.101   1_455 S
C40    H41     1.126   .     S
C40    N45     1.291   1_645 D
C42    C27     1.467   1_455 S
C42    H43     1.126   .     S
C42    N44     1.288   1_554 D
N44    C42     1.288   1_556 D
N44    C69     1.401   .     S
N45    C40     1.291   1_465 D
N45    C46     1.402   .     S
C46    C47     1.417   .     S
C46    C48     1.415   1_556 D
C47    C49     1.391   .     D
C47    H50     1.101   1_455 S
C48    C46     1.415   1_554 D
C48    C51     1.393   .     S
C48    H52     1.101   .     S
C49    C53     1.411   .     S
C49    H54     1.102   .     S
H50    C47     1.101   1_655 S
C51    C53     1.410   1_554 D
C51    H55     1.101   .     S
C53    C51     1.410   1_556 D
C53    C56     1.476   .     S
C56    N59     1.348   .     S
C56    N60     1.349   1_556 D
C57    N60     1.350   .     S
C57    N61     1.349   1_554 D
C57    C72     1.476   .     S
C58    N59     1.347   .     D
C58    N61     1.348   .     S
C58    C62     1.475   .     S
N60    C56     1.349   1_554 D
N61    C57     1.349   1_556 D
C62    C63     1.410   .     D
C62    C64     1.411   .     S
C63    C65     1.393   .     S
C63    H66     1.101   .     S
C64    C67     1.392   .     D
C64    H68     1.101   .     S
C65    C69     1.415   .     D
C65    H70     1.101   .     S
C67    C69     1.413   .     S
C67    H71     1.100   1_455 S
H71    C67     1.100   1_655 S
C72    C73     1.411   .     S
C72    C74     1.410   .     D
C73    C75     1.392   .     D
C73    H76     1.102   1_554 S
C74    C77     1.394   .     S
C74    H78     1.101   .     S
C75    C79     1.413   .     S
C75    H80     1.100   .     S
H76    C73     1.102   1_556 S
C77    C79     1.415   .     D
C77    H81     1.101   .     S
C79    N82     1.402   .     S
N82    C83     1.288   1_554 D
C83    C17     1.466   1_556 S
C83    N82     1.288   1_556 D
C83    H84     1.126   .     S
C85    C86     1.410   .     S
C85    C90     1.411   .     D
C85    C114    1.485   .     S
C86    C87     1.407   .     D
C86    H91     1.099   .     S
C87    C88     1.407   .     S
C87    C104    1.484   .     S
C88    C89     1.409   .     D
C88    H92     1.101   .     S
C89    C90     1.406   .     S
C89    C94     1.484   .     S
C90    H93     1.100   .     S
C94    C95     1.412   .     S
C94    C96     1.412   .     D
C95    C97     1.393   .     D
C95    H98     1.101   .     S
C96    C99     1.393   .     S
C96    H100    1.100   .     S
C97    C101    1.411   .     S
C97    H102    1.100   .     S
C99    C101    1.409   .     D
C99    H103    1.101   .     S
C101   C167    1.467   .     S
C104   C105    1.413   .     D
C104   C106    1.412   .     S
C105   C107    1.393   .     S
C105   H108    1.101   .     S
C106   C109    1.394   1_655 D
C106   H110    1.101   1_655 S
C107   C111    1.411   1_655 D
C107   H112    1.100   .     S
C109   C106    1.394   1_455 D
C109   C111    1.410   .     S
C109   H113    1.102   .     S
H110   C106    1.101   1_455 S
C111   C107    1.411   1_455 D
C111   C126    1.468   .     S
C114   C115    1.414   .     D
C114   C116    1.415   .     S
C115   C117    1.393   .     S
C115   H118    1.101   .     S
C116   C119    1.391   .     D
C116   H120    1.100   1_655 S
C117   C121    1.410   .     D
C117   H122    1.102   .     S
C119   C121    1.411   .     S
C119   H123    1.101   1_655 S
H120   C116    1.100   1_455 S
C121   C124    1.465   .     S
H123   C119    1.101   1_455 S
C124   H125    1.125   .     S
C124   N129    1.291   1_645 D
C126   H127    1.126   .     S
C126   N128    1.288   .     D
N128   C153    1.401   .     S
N129   C124    1.291   1_465 D
N129   C130    1.403   .     S
C130   C131    1.417   .     D
C130   C132    1.415   .     S
C131   C133    1.390   .     S
C131   H134    1.100   1_455 S
C132   C135    1.393   .     D
C132   H136    1.101   .     S
C133   C137    1.410   .     D
C133   H138    1.102   .     S
H134   C131    1.100   1_655 S
C135   C137    1.410   .     S
C135   H139    1.101   .     S
C137   C140    1.476   .     S
C140   N143    1.348   .     S
C140   N144    1.349   .     D
C141   N144    1.350   .     S
C141   N145    1.348   .     D
C141   C156    1.475   .     S
C142   N143    1.347   .     D
C142   N145    1.347   .     S
C142   C146    1.475   .     S
C146   C147    1.410   .     D
C146   C148    1.411   .     S
C147   C149    1.393   .     S
C147   H150    1.101   .     S
C148   C151    1.393   .     D
C148   H152    1.102   .     S
C149   C153    1.414   .     D
C149   H154    1.101   .     S
C151   C153    1.413   .     S
C151   H155    1.100   1_455 S
H155   C151    1.100   1_655 S
C156   C157    1.411   .     S
C156   C158    1.409   .     D
C157   C159    1.392   .     D
C157   H160    1.102   .     S
C158   C161    1.394   .     S
C158   H162    1.101   .     S
C159   C163    1.413   .     S
C159   H164    1.100   .     S
C161   C163    1.415   .     D
C161   H165    1.101   .     S
C163   N166    1.401   .     S
N166   C167    1.288   .     D
C167   H168    1.126   .     S
