data_497
_audit_creation_date              2023-09-08
_audit_creation_method            'Materials Studio'
_symmetry_space_group_name_H-M    'P1'
_symmetry_Int_Tables_number       1
_symmetry_cell_setting            triclinic
loop_
_symmetry_equiv_pos_as_xyz
  x,y,z
_cell_length_a                    17.5500
_cell_length_b                    17.5500
_cell_length_c                    3.5040
_cell_angle_alpha                 90.0000
_cell_angle_beta                  90.0000
_cell_angle_gamma                 120.0000
loop_
_atom_site_label
_atom_site_type_symbol
_atom_site_fract_x
_atom_site_fract_y
_atom_site_fract_z
_atom_site_U_iso_or_equiv
_atom_site_adp_type
_atom_site_occupancy
N1     N     0.22663  -0.18623   0.00000   0.00000  Uiso   1.00
C2     C     0.25937  -0.24208   0.00000   0.00000  Uiso   1.00
N3     N     0.34797  -0.20935   0.00000   0.00000  Uiso   1.00
N4     N     0.27505  -0.09344   0.00000   0.00000  Uiso   1.00
N5     N     0.11072  -0.37505   0.00000   0.00000  Uiso   1.00
N6     N     0.20351  -0.33068   0.00000   0.00000  Uiso   1.00
N7     N     0.39233  -0.25777   0.00000   0.00000  Uiso   1.00
C8     C     0.35345  -0.34293   0.00000   0.00000  Uiso   1.00
C9     C     0.40366  -0.38909   0.00000   0.00000  Uiso   1.00
C10    C     0.49583  -0.34291   0.00000   0.00000  Uiso   1.00
C11    C     0.54209  -0.38855   0.00000   0.00000  Uiso   1.00
C12    C     0.49700  -0.48093   0.00000   0.00000  Uiso   1.00
C13    C     0.40460  -0.52662   0.00000   0.00000  Uiso   1.00
C14    C     0.35831  -0.48099   0.00000   0.00000  Uiso   1.00
C15    C     0.50101  -0.62156   0.00000   0.00000  Uiso   1.00
C16    C     0.54602  -0.52933   0.00000   0.00000  Uiso   1.00
C17    C     0.63826  -0.48372   0.00000   0.00000  Uiso   1.00
C18    C     0.68547  -0.52874   0.00000   0.00000  Uiso   1.00
C19    C     0.54662  -0.66819   0.00000   0.00000  Uiso   1.00
C20    C     0.49822  -0.76561   0.00000   0.00000  Uiso   1.00
C21    C     0.78289  -0.47971   0.00000   0.00000  Uiso   1.00
C22    C     0.63885  -0.62097   0.00000   0.00000  Uiso   1.00
C23    C     0.40584  -0.81290   0.00000   0.00000  Uiso   1.00
C24    C     0.82960  -0.38732   0.00000   0.00000  Uiso   1.00
C25    C     0.54391  -0.81231   0.00000   0.00000  Uiso   1.00
C26    C     0.49827  -0.90423   0.00000   0.00000  Uiso   1.00
C27    C     0.40637  -0.95079   0.00000   0.00000  Uiso   1.00
C28    C     0.36019  -0.90480   0.00000   0.00000  Uiso   1.00
C29    C     0.83018  -0.52481   0.00000   0.00000  Uiso   1.00
C30    C     0.92209  -0.47854   0.00000   0.00000  Uiso   1.00
C31    C     0.96808  -0.38637   0.00000   0.00000  Uiso   1.00
C32    C     0.92152  -0.34103   0.00000   0.00000  Uiso   1.00
C33    C     0.06444  -0.33617   0.00000   0.00000  Uiso   1.00
C34    C     0.36022  -0.04715   0.00000   0.00000  Uiso   1.00
H35    H     0.39350  -0.13712   0.00000   0.00000  Uiso   1.00
H36    H     0.23843  -0.36878   0.00000   0.00000  Uiso   1.00
H37    H     0.27854  -0.38365   0.00000   0.00000  Uiso   1.00
H38    H     0.53326  -0.26789   0.00000   0.00000  Uiso   1.00
H39    H     0.61710  -0.35016   0.00000   0.00000  Uiso   1.00
H40    H     0.36668  -0.60164   0.00000   0.00000  Uiso   1.00
H41    H     0.28330  -0.51876   0.00000   0.00000  Uiso   1.00
H42    H     0.42600  -0.65996   0.00000   0.00000  Uiso   1.00
H43    H     0.67486  -0.40872   0.00000   0.00000  Uiso   1.00
H44    H     0.67724  -0.65758   0.00000   0.00000  Uiso   1.00
H45    H     0.36744  -0.77629   0.00000   0.00000  Uiso   1.00
H46    H     0.79250  -0.34940   0.00000   0.00000  Uiso   1.00
H47    H     0.61892  -0.77454   0.00000   0.00000  Uiso   1.00
H48    H     0.53605  -0.94148   0.00000   0.00000  Uiso   1.00
H49    H     0.28518  -0.94239   0.00000   0.00000  Uiso   1.00
H50    H     0.79293  -0.59982   0.00000   0.00000  Uiso   1.00
H51    H     0.95985  -0.51580   0.00000   0.00000  Uiso   1.00
H52    H     0.95853  -0.26602   0.00000   0.00000  Uiso   1.00
H53    H     0.09864  -0.26125   0.00000   0.00000  Uiso   1.00
H54    H     0.40094  -0.08135   0.00000   0.00000  Uiso   1.00
H55    H     0.16382   0.81465   1.00000   0.00000  Uiso   1.00
Cl56   Cl    0.19269   0.93343   1.00000   0.00000  Uiso   1.00
loop_
_geom_bond_atom_site_label_1
_geom_bond_atom_site_label_2
_geom_bond_distance
_geom_bond_site_symmetry_2
_ccdc_geom_bond_type
N1     C2      1.362   .     D
N1     N4      1.411   .     S
N1     H55     1.110   1_544 S
C2     N3      1.362   .     S
C2     N6      1.362   .     S
N3     N7      1.411   .     S
N3     H35     1.110   .     S
N4     C34     1.296   .     D
N4     Cl56    1.730   1_544 S
N5     N6      1.411   .     S
N5     C33     1.296   .     D
N6     H36     1.110   .     S
N7     C8      1.296   .     D
C8     C9      1.465   .     S
C8     H37     1.140   .     S
C9     C10     1.401   .     D
C9     C14     1.397   .     S
C10    C11     1.397   .     S
C10    H38     1.140   .     S
C11    C12     1.404   .     D
C11    H39     1.140   .     S
C12    C13     1.404   .     S
C12    C16     1.481   .     S
C13    C14     1.397   .     D
C13    H40     1.140   .     S
C14    H41     1.140   .     S
C15    C16     1.402   .     D
C15    C19     1.402   .     S
C15    H42     1.140   .     S
C16    C17     1.402   .     S
C17    C18     1.402   .     D
C17    H43     1.140   .     S
C18    C21     1.481   .     S
C18    C22     1.402   .     S
C19    C20     1.481   .     S
C19    C22     1.402   .     D
C20    C23     1.404   .     S
C20    C25     1.404   .     D
C21    C24     1.404   .     S
C21    C29     1.404   .     D
C22    H44     1.140   .     S
C23    C28     1.397   .     D
C23    H45     1.140   .     S
C24    C32     1.397   .     D
C24    H46     1.140   .     S
C25    C26     1.397   .     S
C25    H47     1.140   .     S
C26    C27     1.397   .     D
C26    H48     1.140   .     S
C27    C28     1.401   .     S
C27    C34     1.465   1_545 S
C28    H49     1.140   .     S
C29    C30     1.397   .     S
C29    H50     1.140   .     S
C30    C31     1.401   .     D
C30    H51     1.140   .     S
C31    C32     1.397   .     S
C31    C33     1.465   1_655 S
C32    H52     1.140   .     S
C33    C31     1.465   1_455 S
C33    H53     1.140   .     S
C34    C27     1.465   1_565 S
C34    H54     1.140   .     S
H55    N1      1.110   1_566 S
Cl56   N4      1.730   1_566 S
