data_498
_audit_creation_date              2023-09-08
_audit_creation_method            'Materials Studio'
_symmetry_space_group_name_H-M    'P1'
_symmetry_Int_Tables_number       1
_symmetry_cell_setting            triclinic
loop_
_symmetry_equiv_pos_as_xyz
  x,y,z
_cell_length_a                    22.6005
_cell_length_b                    22.6005
_cell_length_c                    3.4540
_cell_angle_alpha                 90.0000
_cell_angle_beta                  90.0000
_cell_angle_gamma                 120.0000
loop_
_atom_site_label
_atom_site_type_symbol
_atom_site_fract_x
_atom_site_fract_y
_atom_site_fract_z
_atom_site_U_iso_or_equiv
_atom_site_adp_type
_atom_site_occupancy
C1     C     0.38007   0.73796   0.46353   0.00000  Uiso   1.00
C2     C     0.18652   0.61609   0.46688   0.00000  Uiso   1.00
C3     C     0.14001   0.54974   0.60268   0.00000  Uiso   1.00
C4     C     0.06989   0.52517   0.59968   0.00000  Uiso   1.00
C5     C     0.04408   0.56684   0.47364   0.00000  Uiso   1.00
C6     C     0.08952   0.63308   0.34484   0.00000  Uiso   1.00
C7     C     0.15958   0.65707   0.33514   0.00000  Uiso   1.00
C8     C     0.97025   0.54204   0.47319   0.00000  Uiso   1.00
N9     N     0.92730   0.48092   0.59234   0.00000  Uiso   1.00
N10    N     0.85666   0.45546   0.59108   0.00000  Uiso   1.00
C11    C     0.81337   0.39096   0.72657   0.00000  Uiso   1.00
C12    C     0.73821   0.36198   0.73023   0.00000  Uiso   1.00
O13    O     0.83701   0.35595   0.84129   0.00000  Uiso   1.00
C14    C     0.70910   0.40413   0.73427   0.00000  Uiso   1.00
H15    H     0.15688   0.51665   0.72445   0.00000  Uiso   1.00
H16    H     0.03602   0.47394   0.70535   0.00000  Uiso   1.00
H17    H     0.07062   0.66585   0.24179   0.00000  Uiso   1.00
H18    H     0.19164   0.70714   0.21166   0.00000  Uiso   1.00
H19    H     0.95190   0.57530   0.36987   0.00000  Uiso   1.00
H20    H     0.83776   0.48509   0.46973   0.00000  Uiso   1.00
H21    H     0.74136   0.45893   0.74575   0.00000  Uiso   1.00
C22    C     0.30922   0.71254   0.46292   0.00000  Uiso   1.00
H23    H     0.25216   0.54278   0.46253   0.00000  Uiso   1.00
C24    C     0.26204   0.64211   0.46353   0.00000  Uiso   1.00
C25    C     0.38391   0.57043   0.46688   0.00000  Uiso   1.00
C26    C     0.45026   0.59027   0.60268   0.00000  Uiso   1.00
C27    C     0.47483   0.54472   0.59968   0.00000  Uiso   1.00
C28    C     0.43316   0.47724   0.47364   0.00000  Uiso   1.00
C29    C     0.36692   0.45644   0.34484   0.00000  Uiso   1.00
C30    C     0.34293   0.50251   0.33514   0.00000  Uiso   1.00
C31    C     0.45796   0.42821   0.47319   0.00000  Uiso   1.00
N32    N     0.51908   0.44638   0.59234   0.00000  Uiso   1.00
N33    N     0.54454   0.40120   0.59108   0.00000  Uiso   1.00
C34    C     0.60904   0.42241   0.72657   0.00000  Uiso   1.00
C35    C     0.63802   0.37623   0.73023   0.00000  Uiso   1.00
O36    O     0.64405   0.48106   0.84129   0.00000  Uiso   1.00
C37    C     0.59587   0.30497   0.73427   0.00000  Uiso   1.00
H38    H     0.48335   0.64023   0.72445   0.00000  Uiso   1.00
H39    H     0.52606   0.56208   0.70535   0.00000  Uiso   1.00
H40    H     0.33415   0.40477   0.24179   0.00000  Uiso   1.00
H41    H     0.29286   0.48450   0.21166   0.00000  Uiso   1.00
H42    H     0.42470   0.37660   0.36987   0.00000  Uiso   1.00
H43    H     0.51491   0.35267   0.46973   0.00000  Uiso   1.00
H44    H     0.54107   0.28243   0.74575   0.00000  Uiso   1.00
C45    C     0.28746   0.59668   0.46292   0.00000  Uiso   1.00
H46    H     0.45722   0.70938   0.46253   0.00000  Uiso   1.00
C47    C     0.35789   0.61993   0.46353   0.00000  Uiso   1.00
C48    C     0.42957   0.81348   0.46688   0.00000  Uiso   1.00
C49    C     0.40973   0.85999   0.60268   0.00000  Uiso   1.00
C50    C     0.45528   0.93011   0.59968   0.00000  Uiso   1.00
C51    C     0.52276   0.95592   0.47364   0.00000  Uiso   1.00
C52    C     0.54356   0.91048   0.34484   0.00000  Uiso   1.00
C53    C     0.49749   0.84042   0.33514   0.00000  Uiso   1.00
C54    C     0.57179   0.02975   0.47319   0.00000  Uiso   1.00
N55    N     0.55362   0.07270   0.59234   0.00000  Uiso   1.00
N56    N     0.59880   0.14334   0.59108   0.00000  Uiso   1.00
C57    C     0.57759   0.18663   0.72657   0.00000  Uiso   1.00
C58    C     0.62377   0.26179   0.73023   0.00000  Uiso   1.00
O59    O     0.51894   0.16299   0.84129   0.00000  Uiso   1.00
C60    C     0.69503   0.29090   0.73427   0.00000  Uiso   1.00
H61    H     0.35977   0.84312   0.72445   0.00000  Uiso   1.00
H62    H     0.43792   0.96398   0.70535   0.00000  Uiso   1.00
H63    H     0.59523   0.92938   0.24179   0.00000  Uiso   1.00
H64    H     0.51550   0.80836   0.21166   0.00000  Uiso   1.00
H65    H     0.62340   0.04810   0.36987   0.00000  Uiso   1.00
H66    H     0.64733   0.16224   0.46973   0.00000  Uiso   1.00
H67    H     0.71757   0.25864   0.74575   0.00000  Uiso   1.00
C68    C     0.40332   0.69078   0.46292   0.00000  Uiso   1.00
H69    H     0.29062   0.74784   0.46253   0.00000  Uiso   1.00
loop_
_geom_bond_atom_site_label_1
_geom_bond_atom_site_label_2
_geom_bond_distance
_geom_bond_site_symmetry_2
_ccdc_geom_bond_type
C1     C22     1.405   .     S
C1     C48     1.502   .     S
C1     C68     1.405   .     D
C2     C3      1.413   .     D
C2     C7      1.414   .     S
C2     C24     1.502   .     S
C3     C4      1.393   .     S
C3     H15     1.080   .     S
C4     C5      1.402   .     D
C4     H16     1.083   .     S
C5     C6      1.399   .     S
C5     C8      1.471   1_455 S
C6     C7      1.394   .     D
C6     H17     1.084   .     S
C7     H18     1.081   .     S
C8     C5      1.471   1_655 S
C8     N9      1.296   .     D
C8     H19     1.084   .     S
N9     N10     1.400   .     S
N10    C11     1.369   .     S
N10    H20     1.045   .     S
C11    C12     1.484   .     S
C11    O13     1.221   .     D
C12    C14     1.403   .     S
C12    C60     1.402   .     D
C14    H21     1.079   .     S
C14    C35     1.402   .     D
C22    C24     1.405   .     D
C22    H69     1.072   .     S
H23    C45     1.072   .     S
C24    C45     1.405   .     S
C25    C26     1.413   .     D
C25    C30     1.414   .     S
C25    C47     1.502   .     S
C26    C27     1.393   .     S
C26    H38     1.080   .     S
C27    C28     1.402   .     D
C27    H39     1.083   .     S
C28    C29     1.399   .     S
C28    C31     1.471   .     S
C29    C30     1.394   .     D
C29    H40     1.084   .     S
C30    H41     1.081   .     S
C31    N32     1.296   .     D
C31    H42     1.084   .     S
N32    N33     1.400   .     S
N33    C34     1.369   .     S
N33    H43     1.045   .     S
C34    C35     1.484   .     S
C34    O36     1.221   .     D
C35    C37     1.403   .     S
C37    H44     1.079   .     S
C37    C58     1.402   .     D
C45    C47     1.405   .     D
H46    C68     1.072   .     S
C47    C68     1.405   .     S
C48    C49     1.413   .     D
C48    C53     1.414   .     S
C49    C50     1.393   .     S
C49    H61     1.080   .     S
C50    C51     1.402   .     D
C50    H62     1.083   .     S
C51    C52     1.399   .     S
C51    C54     1.471   1_565 S
C52    C53     1.394   .     D
C52    H63     1.084   .     S
C53    H64     1.081   .     S
C54    C51     1.471   1_545 S
C54    N55     1.296   .     D
C54    H65     1.084   .     S
N55    N56     1.400   .     S
N56    C57     1.369   .     S
N56    H66     1.045   .     S
C57    C58     1.484   .     S
C57    O59     1.221   .     D
C58    C60     1.403   .     S
C60    H67     1.079   .     S
