data_499
_audit_creation_date              2023-09-08
_audit_creation_method            'Materials Studio'
_symmetry_space_group_name_H-M    'P1'
_symmetry_Int_Tables_number       1
_symmetry_cell_setting            triclinic
loop_
_symmetry_equiv_pos_as_xyz
  x,y,z
_cell_length_a                    22.5660
_cell_length_b                    22.5660
_cell_length_c                    3.4000
_cell_angle_alpha                 90.0000
_cell_angle_beta                  90.0000
_cell_angle_gamma                 120.0000
loop_
_atom_site_label
_atom_site_type_symbol
_atom_site_fract_x
_atom_site_fract_y
_atom_site_fract_z
_atom_site_U_iso_or_equiv
_atom_site_adp_type
_atom_site_occupancy
C1     C     0.66203   0.39514   0.50000   0.00000  Uiso   1.00
C2     C     0.59865   0.32729   0.50000   0.00000  Uiso   1.00
C3     C     0.66080   0.45440   0.50000   0.00000  Uiso   1.00
N4     N     0.59850   0.44699   0.50000   0.00000  Uiso   1.00
C5     C     0.58132   0.49796   0.50000   0.00000  Uiso   1.00
C6     C     0.62989   0.56745   0.50000   0.00000  Uiso   1.00
C7     C     0.60938   0.61618   0.50000   0.00000  Uiso   1.00
O8     O     0.54042   0.31780   0.50000   0.00000  Uiso   1.00
H9     H     0.70571   0.50549   0.50000   0.00000  Uiso   1.00
H10    H     0.52804   0.63664   0.50000   0.00000  Uiso   1.00
C11    C     0.54086   0.59582   0.50000   0.00000  Uiso   1.00
C12    C     0.49003   0.52511   0.50000   0.00000  Uiso   1.00
H13    H     0.35203   0.32903   0.50000   0.00000  Uiso   1.00
H14    H     0.31506   0.41511   0.50000   0.00000  Uiso   1.00
H15    H     0.55729   0.39998   0.50000   0.00000  Uiso   1.00
C16    C     0.60486   0.26689   0.50000   0.00000  Uiso   1.00
C17    C     0.67271   0.27136   0.50000   0.00000  Uiso   1.00
C18    C     0.54561   0.20641   0.50000   0.00000  Uiso   1.00
N19    N     0.55301   0.15151   0.50000   0.00000  Uiso   1.00
C20    C     0.50204   0.08336   0.50000   0.00000  Uiso   1.00
C21    C     0.43255   0.06244   0.50000   0.00000  Uiso   1.00
C22    C     0.38382   0.99320   0.50000   0.00000  Uiso   1.00
O23    O     0.68220   0.22262   0.50000   0.00000  Uiso   1.00
H24    H     0.49451   0.20022   0.50000   0.00000  Uiso   1.00
H25    H     0.36336   0.89140   0.50000   0.00000  Uiso   1.00
C26    C     0.40418   0.94504   0.50000   0.00000  Uiso   1.00
C27    C     0.47489   0.96492   0.50000   0.00000  Uiso   1.00
H28    H     0.67097   0.02300   0.50000   0.00000  Uiso   1.00
H29    H     0.58489   0.89995   0.50000   0.00000  Uiso   1.00
H30    H     0.60002   0.15732   0.50000   0.00000  Uiso   1.00
C31    C     0.73311   0.33797   0.50000   0.00000  Uiso   1.00
C32    C     0.72864   0.40135   0.50000   0.00000  Uiso   1.00
C33    C     0.79359   0.33920   0.50000   0.00000  Uiso   1.00
N34    N     0.84849   0.40150   0.50000   0.00000  Uiso   1.00
C35    C     0.91664   0.41868   0.50000   0.00000  Uiso   1.00
C36    C     0.93756   0.37011   0.50000   0.00000  Uiso   1.00
C37    C     0.00680   0.39062   0.50000   0.00000  Uiso   1.00
O38    O     0.77738   0.45958   0.50000   0.00000  Uiso   1.00
H39    H     0.79978   0.29429   0.50000   0.00000  Uiso   1.00
H40    H     0.10860   0.47196   0.50000   0.00000  Uiso   1.00
C41    C     0.05496   0.45915   0.50000   0.00000  Uiso   1.00
C42    C     0.03508   0.50997   0.50000   0.00000  Uiso   1.00
H43    H     0.97700   0.64797   0.50000   0.00000  Uiso   1.00
H44    H     0.10005   0.68494   0.50000   0.00000  Uiso   1.00
H45    H     0.84268   0.44271   0.50000   0.00000  Uiso   1.00
C46    C     0.33797   0.60486   0.50000   0.00000  Uiso   1.00
C47    C     0.40135   0.67271   0.50000   0.00000  Uiso   1.00
C48    C     0.33920   0.54561   0.50000   0.00000  Uiso   1.00
N49    N     0.40150   0.55301   0.50000   0.00000  Uiso   1.00
C50    C     0.41868   0.50204   0.50000   0.00000  Uiso   1.00
C51    C     0.37011   0.43255   0.50000   0.00000  Uiso   1.00
C52    C     0.39062   0.38382   0.50000   0.00000  Uiso   1.00
O53    O     0.45958   0.68220   0.50000   0.00000  Uiso   1.00
H54    H     0.29429   0.49451   0.50000   0.00000  Uiso   1.00
H55    H     0.47196   0.36336   0.50000   0.00000  Uiso   1.00
C56    C     0.45914   0.40418   0.50000   0.00000  Uiso   1.00
C57    C     0.50997   0.47489   0.50000   0.00000  Uiso   1.00
H58    H     0.64797   0.67097   0.50000   0.00000  Uiso   1.00
H59    H     0.68494   0.58489   0.50000   0.00000  Uiso   1.00
H60    H     0.44271   0.60002   0.50000   0.00000  Uiso   1.00
C61    C     0.39514   0.73311   0.50000   0.00000  Uiso   1.00
C62    C     0.32729   0.72864   0.50000   0.00000  Uiso   1.00
C63    C     0.45439   0.79359   0.50000   0.00000  Uiso   1.00
N64    N     0.44699   0.84849   0.50000   0.00000  Uiso   1.00
C65    C     0.49796   0.91664   0.50000   0.00000  Uiso   1.00
C66    C     0.56745   0.93756   0.50000   0.00000  Uiso   1.00
C67    C     0.61618   0.00680   0.50000   0.00000  Uiso   1.00
O68    O     0.31780   0.77738   0.50000   0.00000  Uiso   1.00
H69    H     0.50549   0.79978   0.50000   0.00000  Uiso   1.00
H70    H     0.63664   0.10860   0.50000   0.00000  Uiso   1.00
C71    C     0.59582   0.05496   0.50000   0.00000  Uiso   1.00
C72    C     0.52511   0.03508   0.50000   0.00000  Uiso   1.00
H73    H     0.32903   0.97700   0.50000   0.00000  Uiso   1.00
H74    H     0.41511   0.10005   0.50000   0.00000  Uiso   1.00
H75    H     0.39998   0.84268   0.50000   0.00000  Uiso   1.00
C76    C     0.26689   0.66203   0.50000   0.00000  Uiso   1.00
C77    C     0.27136   0.59865   0.50000   0.00000  Uiso   1.00
C78    C     0.20641   0.66080   0.50000   0.00000  Uiso   1.00
N79    N     0.15151   0.59850   0.50000   0.00000  Uiso   1.00
C80    C     0.08336   0.58132   0.50000   0.00000  Uiso   1.00
C81    C     0.06244   0.62989   0.50000   0.00000  Uiso   1.00
C82    C     0.99320   0.60938   0.50000   0.00000  Uiso   1.00
O83    O     0.22262   0.54042   0.50000   0.00000  Uiso   1.00
H84    H     0.20022   0.70571   0.50000   0.00000  Uiso   1.00
H85    H     0.89140   0.52804   0.50000   0.00000  Uiso   1.00
C86    C     0.94504   0.54086   0.50000   0.00000  Uiso   1.00
C87    C     0.96492   0.49003   0.50000   0.00000  Uiso   1.00
H88    H     0.02300   0.35203   0.50000   0.00000  Uiso   1.00
H89    H     0.89995   0.31506   0.50000   0.00000  Uiso   1.00
H90    H     0.15732   0.55729   0.50000   0.00000  Uiso   1.00
loop_
_geom_bond_atom_site_label_1
_geom_bond_atom_site_label_2
_geom_bond_distance
_geom_bond_site_symmetry_2
_ccdc_geom_bond_type
C1     C2      1.483   .     S
C1     C3      1.351   .     D
C1     C32     1.438   .     S
C2     O8      1.221   .     D
C2     C16     1.438   .     S
C3     N4      1.330   .     S
C3     H9      1.090   .     S
N4     C5      1.385   .     S
N4     H15     1.002   .     S
C5     C6      1.393   .     D
C5     C57     1.423   .     S
C6     C7      1.390   .     S
C6     H59     1.100   .     S
C7     C11     1.375   .     D
C7     H58     1.100   .     S
H10    C11     1.095   .     S
C11    C12     1.425   .     S
C12    C50     1.423   .     D
C12    C57     1.413   .     S
H13    C52     1.100   .     S
H14    C51     1.100   .     S
C16    C17     1.483   .     S
C16    C18     1.351   .     D
C17    O23     1.221   .     D
C17    C31     1.438   .     S
C18    N19     1.330   .     S
C18    H24     1.090   .     S
N19    C20     1.385   .     S
N19    H30     1.002   .     S
C20    C21     1.393   .     D
C20    C72     1.423   .     S
C21    C22     1.390   1_545 S
C21    H74     1.100   .     S
C22    C21     1.390   1_565 S
C22    C26     1.375   .     D
C22    H73     1.100   .     S
H25    C26     1.095   .     S
C26    C27     1.425   .     S
C27    C65     1.423   .     S
C27    C72     1.413   1_565 D
H28    C67     1.100   .     S
H29    C66     1.100   .     S
C31    C32     1.483   .     S
C31    C33     1.351   .     D
C32    O38     1.221   .     D
C33    N34     1.330   .     S
C33    H39     1.090   .     S
N34    C35     1.385   .     S
N34    H45     1.002   .     S
C35    C36     1.393   .     D
C35    C87     1.423   .     S
C36    C37     1.390   1_655 S
C36    H89     1.100   .     S
C37    C36     1.390   1_455 S
C37    C41     1.375   .     D
C37    H88     1.100   .     S
H40    C41     1.095   .     S
C41    C42     1.425   .     S
C42    C80     1.423   .     S
C42    C87     1.413   1_455 D
H43    C82     1.100   .     S
H44    C81     1.100   .     S
C46    C47     1.483   .     S
C46    C48     1.351   .     D
C46    C77     1.438   .     S
C47    O53     1.221   .     D
C47    C61     1.438   .     S
C48    N49     1.330   .     S
C48    H54     1.090   .     S
N49    C50     1.385   .     S
N49    H60     1.002   .     S
C50    C51     1.393   .     S
C51    C52     1.390   .     D
C52    C56     1.375   .     S
H55    C56     1.095   .     S
C56    C57     1.425   .     D
C61    C62     1.483   .     S
C61    C63     1.351   .     D
C62    O68     1.221   .     D
C62    C76     1.438   .     S
C63    N64     1.330   .     S
C63    H69     1.090   .     S
N64    C65     1.385   .     S
N64    H75     1.002   .     S
C65    C66     1.393   .     D
C66    C67     1.390   1_565 S
C67    C66     1.390   1_545 S
C67    C71     1.375   .     D
H70    C71     1.095   .     S
C71    C72     1.425   .     S
C72    C27     1.413   1_545 D
C76    C77     1.483   .     S
C76    C78     1.351   .     D
C77    O83     1.221   .     D
C78    N79     1.330   .     S
C78    H84     1.090   .     S
N79    C80     1.385   .     S
N79    H90     1.002   .     S
C80    C81     1.393   .     D
C81    C82     1.390   1_455 S
C82    C81     1.390   1_655 S
C82    C86     1.375   .     D
H85    C86     1.095   .     S
C86    C87     1.425   .     S
C87    C42     1.413   1_655 D
