data_5
_audit_creation_date              2023-09-08
_audit_creation_method            'Materials Studio'
_symmetry_space_group_name_H-M    'P1'
_symmetry_Int_Tables_number       1
_symmetry_cell_setting            triclinic
loop_
_symmetry_equiv_pos_as_xyz
  x,y,z
_cell_length_a                    18.5000
_cell_length_b                    26.3300
_cell_length_c                    7.8010
_cell_angle_alpha                 90.0000
_cell_angle_beta                  96.0880
_cell_angle_gamma                 90.0000
loop_
_atom_site_label
_atom_site_type_symbol
_atom_site_fract_x
_atom_site_fract_y
_atom_site_fract_z
_atom_site_U_iso_or_equiv
_atom_site_adp_type
_atom_site_occupancy
C1     C     0.57730   0.04580   0.94590   0.00000  Uiso   1.00
C2     C     0.35010   0.95260   0.09930   0.00000  Uiso   1.00
C3     C     0.31250   0.09810   0.13270   0.00000  Uiso   1.00
C4     C     0.24850   0.10080   0.21840   0.00000  Uiso   1.00
C5     C     0.24700   0.19420   0.21010   0.00000  Uiso   1.00
C6     C     0.34120   0.14540   0.08500   0.00000  Uiso   1.00
C7     C     0.21600   0.14770   0.25440   0.00000  Uiso   1.00
N8     N     0.21770   0.24370   0.25060   0.00000  Uiso   1.00
C9     C     0.31040   0.19200   0.12720   0.00000  Uiso   1.00
C10    C     0.03120   0.54750   0.45250   0.00000  Uiso   1.00
C11    C     0.93580   0.59650   0.61010   0.00000  Uiso   1.00
C12    C     0.86000   0.60500   0.59480   0.00000  Uiso   1.00
C13    C     0.83090   0.65280   0.63530   0.00000  Uiso   1.00
C14    C     0.87690   0.69360   0.69190   0.00000  Uiso   1.00
C15    C     0.95200   0.68410   0.71590   0.00000  Uiso   1.00
C16    C     0.98060   0.63640   0.67940   0.00000  Uiso   1.00
C17    C     0.84980   0.74620   0.72680   0.00000  Uiso   1.00
H18    H     0.54980   0.08100   0.95570   0.00000  Uiso   1.00
H19    H     0.22390   0.06690   0.26410   0.00000  Uiso   1.00
H20    H     0.38850   0.14750   0.01610   0.00000  Uiso   1.00
H21    H     0.16820   0.14740   0.32300   0.00000  Uiso   1.00
H22    H     0.33600   0.22700   0.09280   0.00000  Uiso   1.00
H23    H     0.82320   0.57520   0.54600   0.00000  Uiso   1.00
H24    H     0.77260   0.65820   0.61870   0.00000  Uiso   1.00
H25    H     0.98930   0.71400   0.76260   0.00000  Uiso   1.00
H26    H     0.03870   0.63140   0.69720   0.00000  Uiso   1.00
H27    H     0.89000   0.77620   0.74430   0.00000  Uiso   1.00
C28    C     0.07730   0.54580   0.94590   0.00000  Uiso   1.00
C29    C     0.85010   0.45260   0.09930   0.00000  Uiso   1.00
C30    C     0.81250   0.59810   0.13270   0.00000  Uiso   1.00
C31    C     0.74850   0.60080   0.21840   0.00000  Uiso   1.00
C32    C     0.74700   0.69420   0.21010   0.00000  Uiso   1.00
C33    C     0.84120   0.64540   0.08500   0.00000  Uiso   1.00
C34    C     0.71600   0.64770   0.25440   0.00000  Uiso   1.00
N35    N     0.71770   0.74370   0.25060   0.00000  Uiso   1.00
C36    C     0.81040   0.69200   0.12720   0.00000  Uiso   1.00
C37    C     0.53120   0.04750   0.45250   0.00000  Uiso   1.00
C38    C     0.43580   0.09650   0.61010   0.00000  Uiso   1.00
C39    C     0.36000   0.10500   0.59480   0.00000  Uiso   1.00
C40    C     0.33090   0.15280   0.63530   0.00000  Uiso   1.00
C41    C     0.37690   0.19360   0.69190   0.00000  Uiso   1.00
C42    C     0.45200   0.18410   0.71590   0.00000  Uiso   1.00
C43    C     0.48060   0.13640   0.67940   0.00000  Uiso   1.00
C44    C     0.34980   0.24620   0.72680   0.00000  Uiso   1.00
H45    H     0.04980   0.58100   0.95570   0.00000  Uiso   1.00
H46    H     0.72390   0.56690   0.26410   0.00000  Uiso   1.00
H47    H     0.88850   0.64750   0.01610   0.00000  Uiso   1.00
H48    H     0.66820   0.64740   0.32300   0.00000  Uiso   1.00
H49    H     0.83600   0.72700   0.09280   0.00000  Uiso   1.00
H50    H     0.32320   0.07520   0.54600   0.00000  Uiso   1.00
H51    H     0.27260   0.15820   0.61870   0.00000  Uiso   1.00
H52    H     0.48930   0.21400   0.76260   0.00000  Uiso   1.00
H53    H     0.53870   0.13140   0.69720   0.00000  Uiso   1.00
H54    H     0.39000   0.27620   0.74430   0.00000  Uiso   1.00
C55    C     0.42270   0.04580   0.05410   0.00000  Uiso   1.00
C56    C     0.64990   0.95260   0.90070   0.00000  Uiso   1.00
C57    C     0.68750   0.09810   0.86730   0.00000  Uiso   1.00
C58    C     0.75150   0.10080   0.78160   0.00000  Uiso   1.00
C59    C     0.75300   0.19420   0.78990   0.00000  Uiso   1.00
C60    C     0.65880   0.14540   0.91500   0.00000  Uiso   1.00
C61    C     0.78400   0.14770   0.74560   0.00000  Uiso   1.00
N62    N     0.78230   0.24370   0.74940   0.00000  Uiso   1.00
C63    C     0.68960   0.19200   0.87280   0.00000  Uiso   1.00
C64    C     0.96880   0.54750   0.54750   0.00000  Uiso   1.00
C65    C     0.06420   0.59650   0.38990   0.00000  Uiso   1.00
C66    C     0.14000   0.60500   0.40520   0.00000  Uiso   1.00
C67    C     0.16910   0.65280   0.36470   0.00000  Uiso   1.00
C68    C     0.12310   0.69360   0.30810   0.00000  Uiso   1.00
C69    C     0.04800   0.68410   0.28410   0.00000  Uiso   1.00
C70    C     0.01940   0.63640   0.32060   0.00000  Uiso   1.00
C71    C     0.15020   0.74620   0.27320   0.00000  Uiso   1.00
H72    H     0.45020   0.08100   0.04430   0.00000  Uiso   1.00
H73    H     0.77610   0.06690   0.73590   0.00000  Uiso   1.00
H74    H     0.61150   0.14750   0.98390   0.00000  Uiso   1.00
H75    H     0.83180   0.14740   0.67700   0.00000  Uiso   1.00
H76    H     0.66400   0.22700   0.90720   0.00000  Uiso   1.00
H77    H     0.17680   0.57520   0.45400   0.00000  Uiso   1.00
H78    H     0.22740   0.65820   0.38130   0.00000  Uiso   1.00
H79    H     0.01070   0.71400   0.23740   0.00000  Uiso   1.00
H80    H     0.96130   0.63140   0.30280   0.00000  Uiso   1.00
H81    H     0.11000   0.77620   0.25570   0.00000  Uiso   1.00
C82    C     0.92270   0.54580   0.05410   0.00000  Uiso   1.00
C83    C     0.14990   0.45260   0.90070   0.00000  Uiso   1.00
C84    C     0.18750   0.59810   0.86730   0.00000  Uiso   1.00
C85    C     0.25150   0.60080   0.78160   0.00000  Uiso   1.00
C86    C     0.25300   0.69420   0.78990   0.00000  Uiso   1.00
C87    C     0.15880   0.64540   0.91500   0.00000  Uiso   1.00
C88    C     0.28400   0.64770   0.74560   0.00000  Uiso   1.00
N89    N     0.28230   0.74370   0.74940   0.00000  Uiso   1.00
C90    C     0.18960   0.69200   0.87280   0.00000  Uiso   1.00
C91    C     0.46880   0.04750   0.54750   0.00000  Uiso   1.00
C92    C     0.56420   0.09650   0.38990   0.00000  Uiso   1.00
C93    C     0.64000   0.10500   0.40520   0.00000  Uiso   1.00
C94    C     0.66910   0.15280   0.36470   0.00000  Uiso   1.00
C95    C     0.62310   0.19360   0.30810   0.00000  Uiso   1.00
C96    C     0.54800   0.18410   0.28410   0.00000  Uiso   1.00
C97    C     0.51940   0.13640   0.32060   0.00000  Uiso   1.00
C98    C     0.65020   0.24620   0.27320   0.00000  Uiso   1.00
H99    H     0.95020   0.58100   0.04430   0.00000  Uiso   1.00
H100   H     0.27610   0.56690   0.73590   0.00000  Uiso   1.00
H101   H     0.11150   0.64750   0.98390   0.00000  Uiso   1.00
H102   H     0.33180   0.64740   0.67700   0.00000  Uiso   1.00
H103   H     0.16400   0.72700   0.90720   0.00000  Uiso   1.00
H104   H     0.67680   0.07520   0.45400   0.00000  Uiso   1.00
H105   H     0.72740   0.15820   0.38130   0.00000  Uiso   1.00
H106   H     0.51070   0.21400   0.23740   0.00000  Uiso   1.00
H107   H     0.46130   0.13140   0.30280   0.00000  Uiso   1.00
H108   H     0.61000   0.27620   0.25570   0.00000  Uiso   1.00
C109   C     0.42270   0.95420   0.05410   0.00000  Uiso   1.00
C110   C     0.64990   0.04740   0.90070   0.00000  Uiso   1.00
C111   C     0.68750   0.90190   0.86730   0.00000  Uiso   1.00
C112   C     0.75150   0.89920   0.78160   0.00000  Uiso   1.00
C113   C     0.75300   0.80580   0.78990   0.00000  Uiso   1.00
C114   C     0.65880   0.85460   0.91500   0.00000  Uiso   1.00
C115   C     0.78400   0.85230   0.74560   0.00000  Uiso   1.00
N116   N     0.78230   0.75630   0.74940   0.00000  Uiso   1.00
C117   C     0.68960   0.80800   0.87280   0.00000  Uiso   1.00
C118   C     0.96880   0.45250   0.54750   0.00000  Uiso   1.00
C119   C     0.06420   0.40350   0.38990   0.00000  Uiso   1.00
C120   C     0.14000   0.39500   0.40520   0.00000  Uiso   1.00
C121   C     0.16910   0.34720   0.36470   0.00000  Uiso   1.00
C122   C     0.12310   0.30640   0.30810   0.00000  Uiso   1.00
C123   C     0.04800   0.31590   0.28410   0.00000  Uiso   1.00
C124   C     0.01940   0.36360   0.32060   0.00000  Uiso   1.00
C125   C     0.15020   0.25380   0.27320   0.00000  Uiso   1.00
H126   H     0.45020   0.91900   0.04430   0.00000  Uiso   1.00
H127   H     0.77610   0.93310   0.73590   0.00000  Uiso   1.00
H128   H     0.61150   0.85250   0.98390   0.00000  Uiso   1.00
H129   H     0.83180   0.85260   0.67700   0.00000  Uiso   1.00
H130   H     0.66400   0.77300   0.90720   0.00000  Uiso   1.00
H131   H     0.17680   0.42480   0.45400   0.00000  Uiso   1.00
H132   H     0.22740   0.34180   0.38130   0.00000  Uiso   1.00
H133   H     0.01070   0.28600   0.23740   0.00000  Uiso   1.00
H134   H     0.96130   0.36860   0.30280   0.00000  Uiso   1.00
H135   H     0.11000   0.22380   0.25570   0.00000  Uiso   1.00
C136   C     0.92270   0.45420   0.05410   0.00000  Uiso   1.00
C137   C     0.14990   0.54740   0.90070   0.00000  Uiso   1.00
C138   C     0.18750   0.40190   0.86730   0.00000  Uiso   1.00
C139   C     0.25150   0.39920   0.78160   0.00000  Uiso   1.00
C140   C     0.25300   0.30580   0.78990   0.00000  Uiso   1.00
C141   C     0.15880   0.35460   0.91500   0.00000  Uiso   1.00
C142   C     0.28400   0.35230   0.74560   0.00000  Uiso   1.00
N143   N     0.28230   0.25630   0.74940   0.00000  Uiso   1.00
C144   C     0.18960   0.30800   0.87280   0.00000  Uiso   1.00
C145   C     0.46880   0.95250   0.54750   0.00000  Uiso   1.00
C146   C     0.56420   0.90350   0.38990   0.00000  Uiso   1.00
C147   C     0.64000   0.89500   0.40520   0.00000  Uiso   1.00
C148   C     0.66910   0.84720   0.36470   0.00000  Uiso   1.00
C149   C     0.62310   0.80640   0.30810   0.00000  Uiso   1.00
C150   C     0.54800   0.81590   0.28410   0.00000  Uiso   1.00
C151   C     0.51940   0.86360   0.32060   0.00000  Uiso   1.00
C152   C     0.65020   0.75380   0.27320   0.00000  Uiso   1.00
H153   H     0.95020   0.41900   0.04430   0.00000  Uiso   1.00
H154   H     0.27610   0.43310   0.73590   0.00000  Uiso   1.00
H155   H     0.11150   0.35250   0.98390   0.00000  Uiso   1.00
H156   H     0.33180   0.35260   0.67700   0.00000  Uiso   1.00
H157   H     0.16400   0.27300   0.90720   0.00000  Uiso   1.00
H158   H     0.67680   0.92480   0.45400   0.00000  Uiso   1.00
H159   H     0.72740   0.84180   0.38130   0.00000  Uiso   1.00
H160   H     0.51070   0.78600   0.23740   0.00000  Uiso   1.00
H161   H     0.46130   0.86860   0.30280   0.00000  Uiso   1.00
H162   H     0.61000   0.72380   0.25570   0.00000  Uiso   1.00
C163   C     0.57730   0.95420   0.94590   0.00000  Uiso   1.00
C164   C     0.35010   0.04740   0.09930   0.00000  Uiso   1.00
C165   C     0.31250   0.90190   0.13270   0.00000  Uiso   1.00
C166   C     0.24850   0.89920   0.21840   0.00000  Uiso   1.00
C167   C     0.24700   0.80580   0.21010   0.00000  Uiso   1.00
C168   C     0.34120   0.85460   0.08500   0.00000  Uiso   1.00
C169   C     0.21600   0.85230   0.25440   0.00000  Uiso   1.00
N170   N     0.21770   0.75630   0.25060   0.00000  Uiso   1.00
C171   C     0.31040   0.80800   0.12720   0.00000  Uiso   1.00
C172   C     0.03120   0.45250   0.45250   0.00000  Uiso   1.00
C173   C     0.93580   0.40350   0.61010   0.00000  Uiso   1.00
C174   C     0.86000   0.39500   0.59480   0.00000  Uiso   1.00
C175   C     0.83090   0.34720   0.63530   0.00000  Uiso   1.00
C176   C     0.87690   0.30640   0.69190   0.00000  Uiso   1.00
C177   C     0.95200   0.31590   0.71590   0.00000  Uiso   1.00
C178   C     0.98060   0.36360   0.67940   0.00000  Uiso   1.00
C179   C     0.84980   0.25380   0.72680   0.00000  Uiso   1.00
H180   H     0.54980   0.91900   0.95570   0.00000  Uiso   1.00
H181   H     0.22390   0.93310   0.26410   0.00000  Uiso   1.00
H182   H     0.38850   0.85250   0.01610   0.00000  Uiso   1.00
H183   H     0.16820   0.85260   0.32300   0.00000  Uiso   1.00
H184   H     0.33600   0.77300   0.09280   0.00000  Uiso   1.00
H185   H     0.82320   0.42480   0.54600   0.00000  Uiso   1.00
H186   H     0.77260   0.34180   0.61870   0.00000  Uiso   1.00
H187   H     0.98930   0.28600   0.76260   0.00000  Uiso   1.00
H188   H     0.03870   0.36860   0.69720   0.00000  Uiso   1.00
H189   H     0.89000   0.22380   0.74430   0.00000  Uiso   1.00
C190   C     0.07730   0.45420   0.94590   0.00000  Uiso   1.00
C191   C     0.85010   0.54740   0.09930   0.00000  Uiso   1.00
C192   C     0.81250   0.40190   0.13270   0.00000  Uiso   1.00
C193   C     0.74850   0.39920   0.21840   0.00000  Uiso   1.00
C194   C     0.74700   0.30580   0.21010   0.00000  Uiso   1.00
C195   C     0.84120   0.35460   0.08500   0.00000  Uiso   1.00
C196   C     0.71600   0.35230   0.25440   0.00000  Uiso   1.00
N197   N     0.71770   0.25630   0.25060   0.00000  Uiso   1.00
C198   C     0.81040   0.30800   0.12720   0.00000  Uiso   1.00
C199   C     0.53120   0.95250   0.45250   0.00000  Uiso   1.00
C200   C     0.43580   0.90350   0.61010   0.00000  Uiso   1.00
C201   C     0.36000   0.89500   0.59480   0.00000  Uiso   1.00
C202   C     0.33090   0.84720   0.63530   0.00000  Uiso   1.00
C203   C     0.37690   0.80640   0.69190   0.00000  Uiso   1.00
C204   C     0.45200   0.81590   0.71590   0.00000  Uiso   1.00
C205   C     0.48060   0.86360   0.67940   0.00000  Uiso   1.00
C206   C     0.34980   0.75380   0.72680   0.00000  Uiso   1.00
H207   H     0.04980   0.41900   0.95570   0.00000  Uiso   1.00
H208   H     0.72390   0.43310   0.26410   0.00000  Uiso   1.00
H209   H     0.88850   0.35250   0.01610   0.00000  Uiso   1.00
H210   H     0.66820   0.35260   0.32300   0.00000  Uiso   1.00
H211   H     0.83600   0.27300   0.09280   0.00000  Uiso   1.00
H212   H     0.32320   0.92480   0.54600   0.00000  Uiso   1.00
H213   H     0.27260   0.84180   0.61870   0.00000  Uiso   1.00
H214   H     0.48930   0.78600   0.76260   0.00000  Uiso   1.00
H215   H     0.53870   0.86860   0.69720   0.00000  Uiso   1.00
H216   H     0.39000   0.72380   0.74430   0.00000  Uiso   1.00
C217   C     0.53940   0.00000   0.97350   0.00000  Uiso   1.00
C218   C     0.31460   0.00000   0.11530   0.00000  Uiso   1.00
C219   C     0.56140   0.00000   0.41060   0.00000  Uiso   1.00
H220   H     0.25830   0.00000   0.13740   0.00000  Uiso   1.00
H221   H     0.60770   0.00000   0.33640   0.00000  Uiso   1.00
C222   C     0.03940   0.50000   0.97350   0.00000  Uiso   1.00
C223   C     0.81460   0.50000   0.11530   0.00000  Uiso   1.00
C224   C     0.06140   0.50000   0.41060   0.00000  Uiso   1.00
H225   H     0.75830   0.50000   0.13740   0.00000  Uiso   1.00
H226   H     0.10770   0.50000   0.33640   0.00000  Uiso   1.00
C227   C     0.46060   0.00000   0.02650   0.00000  Uiso   1.00
C228   C     0.68540   0.00000   0.88470   0.00000  Uiso   1.00
C229   C     0.43860   0.00000   0.58940   0.00000  Uiso   1.00
H230   H     0.74170   0.00000   0.86260   0.00000  Uiso   1.00
H231   H     0.39230   0.00000   0.66360   0.00000  Uiso   1.00
C232   C     0.96060   0.50000   0.02650   0.00000  Uiso   1.00
C233   C     0.18540   0.50000   0.88470   0.00000  Uiso   1.00
C234   C     0.93860   0.50000   0.58940   0.00000  Uiso   1.00
H235   H     0.24170   0.50000   0.86260   0.00000  Uiso   1.00
H236   H     0.89230   0.50000   0.66360   0.00000  Uiso   1.00
loop_
_geom_bond_atom_site_label_1
_geom_bond_atom_site_label_2
_geom_bond_distance
_geom_bond_site_symmetry_2
_ccdc_geom_bond_type
C1     H18     1.064   .     S
C1     C110    1.425   .     D
C1     C217    1.423   .     S
C2     C109    1.425   .     S
C2     C165    1.540   .     S
C2     C218    1.422   1_565 D
C3     C4      1.422   .     D
C3     C6      1.419   .     S
C3     C164    1.540   .     S
C4     C7      1.415   .     S
C4     H19     1.080   .     S
C5     C7      1.410   .     D
C5     N8      1.459   .     S
C5     C9      1.399   .     S
C6     C9      1.407   .     D
C6     H20     1.076   .     S
C7     H21     1.081   .     S
N8     C125    1.307   .     D
C9     H22     1.083   .     S
C10    C64     1.436   1_455 D
C10    C65     1.529   .     S
C10    C224    1.422   .     S
C11    C12     1.413   .     D
C11    C16     1.410   .     S
C11    C64     1.529   .     S
C12    C13     1.418   .     S
C12    H23     1.081   .     S
C13    C14     1.412   .     D
C13    H24     1.082   .     S
C14    C15     1.405   .     S
C14    C17     1.507   .     S
C15    C16     1.404   .     D
C15    H25     1.084   .     S
C16    H26     1.077   1_655 S
C17    H27     1.084   .     S
C17    N116    1.307   .     D
H26    C16     1.077   1_455 S
C28    H45     1.064   .     S
C28    C137    1.425   .     D
C28    C222    1.423   .     S
C29    C136    1.425   .     S
C29    C192    1.540   .     S
C29    C223    1.422   .     D
C30    C31     1.422   .     S
C30    C33     1.419   .     D
C30    C191    1.540   .     S
C31    C34     1.415   .     D
C31    H46     1.080   .     S
C32    C34     1.410   .     S
C32    N35     1.459   .     S
C32    C36     1.399   .     D
C33    C36     1.407   .     S
C33    H47     1.076   .     S
C34    H48     1.081   .     S
N35    C152    1.307   .     D
C36    H49     1.083   .     S
C37    C91     1.436   .     D
C37    C92     1.529   .     S
C37    C219    1.422   .     S
C38    C39     1.413   .     S
C38    C43     1.410   .     D
C38    C91     1.529   .     S
C39    C40     1.418   .     D
C39    H50     1.081   .     S
C40    C41     1.412   .     S
C40    H51     1.082   .     S
C41    C42     1.405   .     D
C41    C44     1.507   .     S
C42    C43     1.404   .     S
C42    H52     1.084   .     S
C43    H53     1.077   .     S
C44    H54     1.084   .     S
C44    N143    1.307   .     D
C55    H72     1.064   .     S
C55    C164    1.425   .     D
C55    C227    1.423   .     S
C56    C111    1.540   .     S
C56    C163    1.425   .     S
C56    C228    1.422   1_565 D
C57    C58     1.422   .     D
C57    C60     1.419   .     S
C57    C110    1.540   .     S
C58    C61     1.415   .     S
C58    H73     1.080   .     S
C59    C61     1.410   .     D
C59    N62     1.459   .     S
C59    C63     1.399   .     S
C60    C63     1.407   .     D
C60    H74     1.076   .     S
C61    H75     1.081   .     S
N62    C179    1.307   .     D
C63    H76     1.083   .     S
C64    C10     1.436   1_655 D
C64    C234    1.422   .     S
C65    C66     1.413   .     S
C65    C70     1.410   .     D
C66    C67     1.418   .     D
C66    H77     1.081   .     S
C67    C68     1.412   .     S
C67    H78     1.082   .     S
C68    C69     1.405   .     D
C68    C71     1.507   .     S
C69    C70     1.404   .     S
C69    H79     1.084   .     S
C70    H80     1.077   1_455 S
C71    H81     1.084   .     S
C71    N170    1.307   .     D
H80    C70     1.077   1_655 S
C82    H99     1.064   .     S
C82    C191    1.425   .     D
C82    C232    1.423   .     S
C83    C138    1.540   .     S
C83    C190    1.425   .     S
C83    C233    1.422   .     D
C84    C85     1.422   .     D
C84    C87     1.419   .     S
C84    C137    1.540   .     S
C85    C88     1.415   .     S
C85    H100    1.080   .     S
C86    C88     1.410   .     D
C86    N89     1.459   .     S
C86    C90     1.399   .     S
C87    C90     1.407   .     D
C87    H101    1.076   .     S
C88    H102    1.081   .     S
N89    C206    1.307   .     D
C90    H103    1.083   .     S
C91    C229    1.422   .     S
C92    C93     1.413   .     D
C92    C97     1.410   .     S
C93    C94     1.418   .     S
C93    H104    1.081   .     S
C94    C95     1.412   .     D
C94    H105    1.082   .     S
C95    C96     1.405   .     S
C95    C98     1.507   .     S
C96    C97     1.404   .     D
C96    H106    1.084   .     S
C97    H107    1.077   .     S
C98    H108    1.084   .     S
C98    N197    1.307   .     D
C109   H126    1.064   .     S
C109   C227    1.423   1_565 D
C110   C228    1.422   .     S
C111   C112    1.422   .     D
C111   C114    1.419   .     S
C112   C115    1.415   .     S
C112   H127    1.080   .     S
C113   C115    1.410   .     D
C113   N116    1.459   .     S
C113   C117    1.399   .     S
C114   C117    1.407   .     D
C114   H128    1.076   .     S
C115   H129    1.081   .     S
C117   H130    1.083   .     S
C118   C172    1.436   1_655 S
C118   C173    1.529   .     S
C118   C234    1.422   .     D
C119   C120    1.413   .     D
C119   C124    1.410   .     S
C119   C172    1.529   .     S
C120   C121    1.418   .     S
C120   H131    1.081   .     S
C121   C122    1.412   .     D
C121   H132    1.082   .     S
C122   C123    1.405   .     S
C122   C125    1.507   .     S
C123   C124    1.404   .     D
C123   H133    1.084   .     S
C124   H134    1.077   1_455 S
C125   H135    1.084   .     S
H134   C124    1.077   1_655 S
C136   H153    1.064   .     S
C136   C232    1.423   .     D
C137   C233    1.422   .     S
C138   C139    1.422   .     S
C138   C141    1.419   .     D
C139   C142    1.415   .     D
C139   H154    1.080   .     S
C140   C142    1.410   .     S
C140   N143    1.459   .     S
C140   C144    1.399   .     D
C141   C144    1.407   .     S
C141   H155    1.076   .     S
C142   H156    1.081   .     S
C144   H157    1.083   .     S
C145   C199    1.436   .     S
C145   C200    1.529   .     S
C145   C229    1.422   1_565 D
C146   C147    1.413   .     D
C146   C151    1.410   .     S
C146   C199    1.529   .     S
C147   C148    1.418   .     S
C147   H158    1.081   .     S
C148   C149    1.412   .     D
C148   H159    1.082   .     S
C149   C150    1.405   .     S
C149   C152    1.507   .     S
C150   C151    1.404   .     D
C150   H160    1.084   .     S
C151   H161    1.077   .     S
C152   H162    1.084   .     S
C163   H180    1.064   .     S
C163   C217    1.423   1_565 D
C164   C218    1.422   .     S
C165   C166    1.422   .     S
C165   C168    1.419   .     D
C166   C169    1.415   .     D
C166   H181    1.080   .     S
C167   C169    1.410   .     S
C167   N170    1.459   .     S
C167   C171    1.399   .     D
C168   C171    1.407   .     S
C168   H182    1.076   .     S
C169   H183    1.081   .     S
C171   H184    1.083   .     S
C172   C118    1.436   1_455 S
C172   C224    1.422   .     D
C173   C174    1.413   .     D
C173   C178    1.410   .     S
C174   C175    1.418   .     S
C174   H185    1.081   .     S
C175   C176    1.412   .     D
C175   H186    1.082   .     S
C176   C177    1.405   .     S
C176   C179    1.507   .     S
C177   C178    1.404   .     D
C177   H187    1.084   .     S
C178   H188    1.077   1_655 S
C179   H189    1.084   .     S
H188   C178    1.077   1_455 S
C190   H207    1.064   .     S
C190   C222    1.423   .     D
C191   C223    1.422   .     S
C192   C193    1.422   .     D
C192   C195    1.419   .     S
C193   C196    1.415   .     S
C193   H208    1.080   .     S
C194   C196    1.410   .     D
C194   N197    1.459   .     S
C194   C198    1.399   .     S
C195   C198    1.407   .     D
C195   H209    1.076   .     S
C196   H210    1.081   .     S
C198   H211    1.083   .     S
C199   C219    1.422   1_565 D
C200   C201    1.413   .     D
C200   C205    1.410   .     S
C201   C202    1.418   .     S
C201   H212    1.081   .     S
C202   C203    1.412   .     D
C202   H213    1.082   .     S
C203   C204    1.405   .     S
C203   C206    1.507   .     S
C204   C205    1.404   .     D
C204   H214    1.084   .     S
C205   H215    1.077   .     S
C206   H216    1.084   .     S
C217   C163    1.423   1_545 D
C217   C227    1.557   1_556 S
C218   C2      1.422   1_545 D
C218   H220    1.074   .     S
C219   C199    1.422   1_545 D
C219   H221    1.083   .     S
C222   C232    1.557   1_456 S
C223   H225    1.074   .     S
C224   H226    1.083   .     S
C227   C217    1.557   1_554 S
C227   C109    1.423   1_545 D
C228   C56     1.422   1_545 D
C228   H230    1.074   .     S
C229   C145    1.422   1_545 D
C229   H231    1.083   .     S
C232   C222    1.557   1_654 S
C233   H235    1.074   .     S
C234   H236    1.083   .     S
