data_500
_audit_creation_date              2023-09-08
_audit_creation_method            'Materials Studio'
_symmetry_space_group_name_H-M    'P1'
_symmetry_Int_Tables_number       1
_symmetry_cell_setting            triclinic
loop_
_symmetry_equiv_pos_as_xyz
  x,y,z
_cell_length_a                    28.1900
_cell_length_b                    28.9200
_cell_length_c                    4.3100
_cell_angle_alpha                 78.3500
_cell_angle_beta                  92.9800
_cell_angle_gamma                 96.5500
loop_
_atom_site_label
_atom_site_type_symbol
_atom_site_fract_x
_atom_site_fract_y
_atom_site_fract_z
_atom_site_U_iso_or_equiv
_atom_site_adp_type
_atom_site_occupancy
C1     C    -0.20517  -0.46493   0.90611   0.00000  Uiso   1.00
C2     C    -0.10339  -0.48944   1.38070   0.00000  Uiso   1.00
C3     C    -0.05073  -0.48983   1.33816   0.00000  Uiso   1.00
C4     C    -0.02562   0.48189   1.58158   0.00000  Uiso   1.00
C5     C    -0.02571  -0.46682   1.06475   0.00000  Uiso   1.00
C6     C     0.02253   0.47548   1.55357   0.00000  Uiso   1.00
C7     C     0.02244  -0.47323   1.03674   0.00000  Uiso   1.00
C8     C     0.04754   0.49848   1.28016   0.00000  Uiso   1.00
C9     C     0.10020   0.49810   1.23762   0.00000  Uiso   1.00
C10    C     0.20198   0.47359   0.71221   0.00000  Uiso   1.00
C11    C     0.49158   0.20767   1.36576   0.00000  Uiso   1.00
C12    C     0.48455   0.10421   1.05692   0.00000  Uiso   1.00
C13    C     0.49456   0.05367   1.18918   0.00000  Uiso   1.00
C14    C     0.52165   0.03865   1.46875   0.00000  Uiso   1.00
C15    C     0.47206   0.01859   1.03181   0.00000  Uiso   1.00
C16    C     0.52476  -0.00993   1.58655   0.00000  Uiso   1.00
C17    C     0.47517  -0.02999   1.14961   0.00000  Uiso   1.00
C18    C     0.50226  -0.04501   1.42917   0.00000  Uiso   1.00
C19    C     0.59346   0.07113   0.70426   0.00000  Uiso   1.00
C20    C     0.51227  -0.09556   1.56144   0.00000  Uiso   1.00
C21    C     0.61081   0.10259   0.92390   0.00000  Uiso   1.00
C22    C     0.40336  -0.06248   0.91410   0.00000  Uiso   1.00
C23    C     0.38601  -0.09394   0.69446   0.00000  Uiso   1.00
C24    C     0.50523  -0.19901   1.25260   0.00000  Uiso   1.00
C25    C     0.51191  -0.24961   1.28559   0.00000  Uiso   1.00
C26    C     0.54221  -0.27447   1.51626   0.00000  Uiso   1.00
C27    C     0.49088  -0.27218   1.04876   0.00000  Uiso   1.00
C28    C     0.55356  -0.31912   1.48251   0.00000  Uiso   1.00
C29    C     0.50066  -0.31749   1.02307   0.00000  Uiso   1.00
C30    C     0.53209  -0.34165   1.24795   0.00000  Uiso   1.00
C31    C     0.54222  -0.39088   1.23683   0.00000  Uiso   1.00
C32    C     0.50574  -0.42936   1.29050   0.00000  Uiso   1.00
C33    C     0.58854  -0.39925   1.17852   0.00000  Uiso   1.00
C34    C     0.51673  -0.47612   1.28287   0.00000  Uiso   1.00
C35    C     0.45798  -0.42305   1.36208   0.00000  Uiso   1.00
C36    C     0.60022  -0.44480   1.17100   0.00000  Uiso   1.00
C37    C     0.48008   0.48477   1.33547   0.00000  Uiso   1.00
C38    C     0.56428  -0.48383   1.22281   0.00000  Uiso   1.00
C39    C     0.42310  -0.46031   1.41256   0.00000  Uiso   1.00
C40    C     0.65001  -0.45111   1.09893   0.00000  Uiso   1.00
C41    C     0.43253   0.49248   1.39552   0.00000  Uiso   1.00
C42    C     0.49107   0.43802   1.32784   0.00000  Uiso   1.00
C43    C     0.57372   0.46896   1.20577   0.00000  Uiso   1.00
C44    C     0.67832  -0.48040   1.31835   0.00000  Uiso   1.00
C45    C     0.66901  -0.42775   0.81209   0.00000  Uiso   1.00
C46    C     0.39659   0.45345   1.44733   0.00000  Uiso   1.00
C47    C     0.45459   0.39953   1.38151   0.00000  Uiso   1.00
C48    C     0.53883   0.43170   1.25626   0.00000  Uiso   1.00
C49    C     0.72401  -0.48659   1.23286   0.00000  Uiso   1.00
C50    C     0.71421  -0.43531   0.72167   0.00000  Uiso   1.00
C51    C     0.40827   0.40790   1.43982   0.00000  Uiso   1.00
C52    C     0.34680   0.45976   1.51940   0.00000  Uiso   1.00
C53    C     0.46473   0.35030   1.37040   0.00000  Uiso   1.00
C54    C     0.74323  -0.46303   0.94606   0.00000  Uiso   1.00
C55    C     0.31849   0.48905   1.29998   0.00000  Uiso   1.00
C56    C     0.32781   0.43641   0.80624   0.00000  Uiso   1.00
C57    C     0.49616   0.32615   1.59528   0.00000  Uiso   1.00
C58    C     0.44325   0.32777   1.13583   0.00000  Uiso   1.00
C59    C     0.27281   0.49525   1.38546   0.00000  Uiso   1.00
C60    C     0.28260   0.44397   0.89666   0.00000  Uiso   1.00
C61    C     0.50593   0.28083   1.56960   0.00000  Uiso   1.00
C62    C     0.45461   0.28313   1.10210   0.00000  Uiso   1.00
C63    C     0.25358   0.47168   0.67227   0.00000  Uiso   1.00
C64    C     0.48491   0.25826   1.33277   0.00000  Uiso   1.00
C65    C     0.02593   0.40064   0.91025   0.00000  Uiso   1.00
C66    C     0.04956   0.37811   1.20522   0.00000  Uiso   1.00
C67    C    -0.02912  -0.39199   0.70807   0.00000  Uiso   1.00
C68    C    -0.05275  -0.36946   1.41310   0.00000  Uiso   1.00
H69    H    -0.12156  -0.47448   0.90563   0.00000  Uiso   1.00
H70    H     0.11838   0.48314   0.71269   0.00000  Uiso   1.00
H71    H     0.18877   0.47348   0.96477   0.00000  Uiso   1.00
H72    H     0.49497   0.19080   0.63350   0.00000  Uiso   1.00
H73    H     0.49699   0.12588   1.47893   0.00000  Uiso   1.00
H74    H     0.44999   0.03062   0.82324   0.00000  Uiso   1.00
H75    H     0.54683  -0.02196   0.79512   0.00000  Uiso   1.00
H76    H     0.60303   0.03461   0.78602   0.00000  Uiso   1.00
H77    H     0.61119   0.08531   1.47310   0.00000  Uiso   1.00
H78    H     0.59805   0.13740   0.85496   0.00000  Uiso   1.00
H79    H     0.59808   0.08690   1.16356   0.00000  Uiso   1.00
H80    H     0.64959   0.10690   0.94023   0.00000  Uiso   1.00
H81    H     0.38563  -0.07666   1.14526   0.00000  Uiso   1.00
H82    H     0.39379  -0.02596   0.83234   0.00000  Uiso   1.00
H83    H     0.49983  -0.11723   1.13943   0.00000  Uiso   1.00
H84    H     0.39874  -0.07824   1.45480   0.00000  Uiso   1.00
H85    H     0.39877  -0.12875   0.76340   0.00000  Uiso   1.00
H86    H     0.34723  -0.09825   0.67813   0.00000  Uiso   1.00
H87    H     0.50184  -0.18214   0.98486   0.00000  Uiso   1.00
H88    H     0.56259  -0.25576   0.68254   0.00000  Uiso   1.00
H89    H     0.46871  -0.25250   0.86609   0.00000  Uiso   1.00
H90    H     0.57736  -0.33805   0.65719   0.00000  Uiso   1.00
H91    H     0.48063  -0.33607   0.85494   0.00000  Uiso   1.00
H92    H     0.61630  -0.36947   1.13747   0.00000  Uiso   1.00
H93    H     0.44992  -0.38784   1.38062   0.00000  Uiso   1.00
H94    H     0.38752  -0.45453   1.47189   0.00000  Uiso   1.00
H95    H     0.60929   0.46318   1.14644   0.00000  Uiso   1.00
H96    H     0.66215   0.49713   1.52701   0.00000  Uiso   1.00
H97    H     0.64695  -0.40550   0.64445   0.00000  Uiso   1.00
H98    H     0.54689   0.39649   1.23771   0.00000  Uiso   1.00
H99    H     0.74655   0.49212   1.40336   0.00000  Uiso   1.00
H100   H     0.73034  -0.41254   1.51354   0.00000  Uiso   1.00
H101   H     0.38052   0.37812   1.48087   0.00000  Uiso   1.00
H102   H     0.33467  -0.48847   1.09132   0.00000  Uiso   1.00
H103   H     0.34987   0.41416   0.97389   0.00000  Uiso   1.00
H104   H     0.51618   0.34473   0.76340   0.00000  Uiso   1.00
H105   H     0.41946   0.34670   0.96115   0.00000  Uiso   1.00
H106   H     0.25027  -0.48346   1.21496   0.00000  Uiso   1.00
H107   H     0.26647   0.42120   1.10479   0.00000  Uiso   1.00
H108   H     0.52810   0.26116   0.75227   0.00000  Uiso   1.00
H109   H     0.43423   0.26442   0.93581   0.00000  Uiso   1.00
H110   H    -0.01318   0.39841   0.92902   0.00000  Uiso   1.00
H111   H     0.03266   0.38097   0.72128   0.00000  Uiso   1.00
H112   H     0.08827   0.38375   1.19332   0.00000  Uiso   1.00
H113   H     0.03936   0.39325   1.40396   0.00000  Uiso   1.00
H114   H     0.03851   0.34020   1.26176   0.00000  Uiso   1.00
H115   H    -0.03585  -0.37231   0.89704   0.00000  Uiso   1.00
H116   H     0.00999  -0.38976   0.68930   0.00000  Uiso   1.00
H117   H    -0.04255  -0.38459   1.21436   0.00000  Uiso   1.00
H118   H    -0.09145  -0.37510   1.42500   0.00000  Uiso   1.00
H119   H    -0.04170  -0.33155   1.35656   0.00000  Uiso   1.00
H120   H    -0.04588   0.46303   0.78510   0.00000  Uiso   1.00
H121   H     0.04269  -0.45438   0.83322   0.00000  Uiso   1.00
H122   H    -0.19196  -0.46482   0.65355   0.00000  Uiso   1.00
N123   N    -0.17865  -0.46664   1.16261   0.00000  Uiso   1.00
N124   N    -0.12939  -0.46696   1.12651   0.00000  Uiso   1.00
N125   N     0.12620   0.47561   1.49181   0.00000  Uiso   1.00
N126   N     0.17546   0.47530   1.45571   0.00000  Uiso   1.00
N127   N     0.49291   0.18562   1.13213   0.00000  Uiso   1.00
N128   N     0.50168   0.13752   1.23362   0.00000  Uiso   1.00
N129   N     0.49514  -0.12886   1.38474   0.00000  Uiso   1.00
N130   N     0.50390  -0.17697   1.48623   0.00000  Uiso   1.00
O131   O    -0.12187   0.49032   0.63833   0.00000  Uiso   1.00
O132   O     0.11868  -0.48167   0.97999   0.00000  Uiso   1.00
O133   O     0.46131   0.11354   0.80012   0.00000  Uiso   1.00
O134   O     0.54283   0.07107   0.64336   0.00000  Uiso   1.00
O135   O     0.45399  -0.06241   0.97500   0.00000  Uiso   1.00
O136   O     0.53551  -0.10489   0.81824   0.00000  Uiso   1.00
O137   O     0.04576   0.44907   0.80719   0.00000  Uiso   1.00
O138   O    -0.04895  -0.44041   0.81113   0.00000  Uiso   1.00
loop_
_geom_bond_atom_site_label_1
_geom_bond_atom_site_label_2
_geom_bond_distance
_geom_bond_site_symmetry_2
_ccdc_geom_bond_type
C1     C54     1.482   1_455 S
C1     H122    1.168   .     S
C1     N123    1.298   .     D
C2     C3      1.507   .     S
C2     N124    1.378   .     S
C2     O131    1.255   1_546 D
C3     C4      1.407   1_545 D
C3     C5      1.411   .     S
C4     C3      1.407   1_565 D
C4     C6      1.405   .     S
C4     H120    1.087   1_556 S
C5     C7      1.405   .     D
C5     O138    1.382   .     S
C6     C8      1.411   .     D
C6     O137    1.382   1_556 S
C7     C8      1.407   1_545 S
C7     H121    1.086   .     S
C8     C7      1.407   1_565 S
C8     C9      1.507   .     S
C9     N125    1.378   .     S
C9     O132    1.255   1_565 D
C10    C63     1.482   .     S
C10    H71     1.168   .     S
C10    N126    1.298   1_554 D
C11    C64     1.474   .     S
C11    H72     1.162   1_556 S
C11    N127    1.300   .     D
C12    C13     1.511   .     S
C12    N128    1.376   .     S
C12    O133    1.254   .     D
C13    C14     1.412   .     D
C13    C15     1.406   .     S
C14    C16     1.405   .     S
C14    O134    1.383   1_556 S
C15    C17     1.405   .     D
C15    H74     1.087   .     S
C16    C18     1.406   .     D
C16    H75     1.087   1_556 S
C17    C18     1.411   .     S
C17    O135    1.383   .     S
C18    C20     1.511   .     S
C19    C21     1.470   .     S
C19    H76     1.103   .     S
C19    H77     1.118   1_554 S
C19    O134    1.438   .     S
C20    N129    1.376   .     S
C20    O136    1.254   1_556 D
C21    H78     1.087   .     S
C21    H79     1.102   .     S
C21    H80     1.086   .     S
C22    C23     1.470   .     S
C22    H81     1.118   .     S
C22    H82     1.103   .     S
C22    O135    1.438   .     S
C23    H84     1.102   1_554 S
C23    H85     1.087   .     S
C23    H86     1.086   .     S
C24    C25     1.474   .     S
C24    H87     1.162   .     S
C24    N130    1.300   .     D
C25    C26     1.414   .     S
C25    C27     1.392   .     D
C26    C28     1.402   .     D
C26    H88     1.086   1_556 S
C27    C29     1.396   .     S
C27    H89     1.088   .     S
C28    C30     1.388   .     S
C28    H90     1.087   1_556 S
C29    C30     1.411   .     D
C29    H91     1.085   .     S
C30    C31     1.494   .     S
C31    C32     1.417   .     S
C31    C33     1.399   .     D
C32    C34     1.428   .     S
C32    C35     1.436   .     D
C33    C36     1.401   .     S
C33    H92     1.088   .     S
C34    C37     1.433   1_545 D
C34    C38     1.429   .     S
C35    C39     1.364   .     S
C35    H93     1.087   .     S
C36    C38     1.418   .     D
C36    C40     1.492   .     S
C37    C34     1.433   1_565 D
C37    C41     1.429   .     S
C37    C42     1.428   .     S
C38    C43     1.437   1_545 S
C39    C41     1.437   1_545 D
C39    H94     1.087   .     S
C40    C44     1.415   .     S
C40    C45     1.386   .     D
C41    C39     1.437   1_565 D
C41    C46     1.418   .     S
C42    C47     1.418   .     D
C42    C48     1.436   .     S
C43    C38     1.437   1_565 S
C43    C48     1.364   .     D
C43    H95     1.087   .     S
C44    C49     1.398   .     D
C44    H96     1.085   1_545 S
C45    C50     1.405   .     S
C45    H97     1.086   .     S
C46    C51     1.401   .     D
C46    C52     1.492   .     S
C47    C51     1.399   .     S
C47    C53     1.494   .     S
C48    H98     1.087   .     S
C49    C54     1.390   .     S
C49    H99     1.087   1_545 S
C50    C54     1.415   .     D
C50    H100    1.087   1_554 S
C51    H101    1.088   .     S
C52    C55     1.415   .     D
C52    C56     1.386   1_556 S
C53    C57     1.411   .     D
C53    C58     1.388   .     S
C54    C1      1.482   1_655 S
C55    C59     1.398   .     S
C55    H102    1.086   1_565 S
C56    C52     1.386   1_554 S
C56    C60     1.405   .     D
C56    H103    1.086   .     S
C57    C61     1.396   .     S
C57    H104    1.085   1_556 S
C58    C62     1.402   .     D
C58    H105    1.087   .     S
C59    C63     1.390   1_556 D
C59    H106    1.087   1_565 S
C60    C63     1.415   .     S
C60    H107    1.087   .     S
C61    C64     1.392   .     D
C61    H108    1.088   1_556 S
C62    C64     1.414   .     S
C62    H109    1.086   .     S
C63    C59     1.390   1_554 D
C65    C66     1.470   .     S
C65    H110    1.103   .     S
C65    H111    1.118   .     S
C65    O137    1.438   .     S
C66    H112    1.087   .     S
C66    H113    1.102   .     S
C66    H114    1.087   .     S
C67    C68     1.470   1_554 S
C67    H115    1.119   .     S
C67    H116    1.103   .     S
C67    O138    1.438   .     S
C68    C67     1.470   1_556 S
C68    H117    1.102   .     S
C68    H118    1.087   .     S
C68    H119    1.087   .     S
H69    N124    1.058   .     S
H70    N125    1.058   1_554 S
H72    C11     1.162   1_554 S
H73    N128    1.053   .     S
H75    C16     1.087   1_554 S
H77    C19     1.118   1_556 S
H83    N129    1.053   .     S
H84    C23     1.102   1_556 S
H88    C26     1.086   1_554 S
H90    C28     1.087   1_554 S
H96    C44     1.085   1_565 S
H99    C49     1.087   1_565 S
H100   C50     1.087   1_556 S
H102   C55     1.086   1_545 S
H104   C57     1.085   1_554 S
H106   C59     1.087   1_545 S
H108   C61     1.088   1_554 S
H120   C4      1.087   1_554 S
N123   N124    1.407   .     S
N125   H70     1.058   1_556 S
N125   N126    1.407   .     S
N126   C10     1.298   1_556 D
N127   N128    1.417   .     S
N129   N130    1.418   .     S
O131   C2      1.255   1_564 D
O132   C9      1.255   1_545 D
O134   C14     1.383   1_554 S
O136   C20     1.254   1_554 D
O137   C6      1.382   1_554 S
