data_501
_audit_creation_date              2023-09-08
_audit_creation_method            'Materials Studio'
_symmetry_space_group_name_H-M    'P1'
_symmetry_Int_Tables_number       1
_symmetry_cell_setting            triclinic
loop_
_symmetry_equiv_pos_as_xyz
  x,y,z
_cell_length_a                    19.1509
_cell_length_b                    19.1509
_cell_length_c                    3.4617
_cell_angle_alpha                 90.0000
_cell_angle_beta                  90.0000
_cell_angle_gamma                 120.0000
loop_
_atom_site_label
_atom_site_type_symbol
_atom_site_fract_x
_atom_site_fract_y
_atom_site_fract_z
_atom_site_U_iso_or_equiv
_atom_site_adp_type
_atom_site_occupancy
N1     N     0.70866   0.29392   0.50000   0.00000  Uiso   1.00
C2     C     0.74867   0.37564   0.50000   0.00000  Uiso   1.00
C3     C     0.58362   0.16182   0.50000   0.00000  Uiso   1.00
C4     C     0.49367   0.37370   0.50000   0.00000  Uiso   1.00
C5     C     0.45040   0.41462   0.50000   0.00000  Uiso   1.00
C6     C     0.48976   0.49956   0.50000   0.00000  Uiso   1.00
C7     C     0.57492   0.54198   0.50000   0.00000  Uiso   1.00
C8     C     0.61820   0.50092   0.50000   0.00000  Uiso   1.00
C9     C     0.43654   0.53661   0.50000   0.00000  Uiso   1.00
C10    C     0.45543   0.61535   0.50000   0.00000  Uiso   1.00
C11    C     0.39154   0.64063   0.50000   0.00000  Uiso   1.00
C12    C     0.41530   0.72333   0.50000   0.00000  Uiso   1.00
C13    C     0.53857   0.67945   0.50000   0.00000  Uiso   1.00
N14    N     0.60460   0.73211   0.50000   0.00000  Uiso   1.00
H15    H     0.46090   0.30840   0.50000   0.00000  Uiso   1.00
H16    H     0.38516   0.37909   0.50000   0.00000  Uiso   1.00
H17    H     0.61043   0.60632   0.50000   0.00000  Uiso   1.00
H18    H     0.68349   0.53552   0.50000   0.00000  Uiso   1.00
H19    H     0.37412   0.49115   0.50000   0.00000  Uiso   1.00
H20    H     0.47847   0.76577   0.50000   0.00000  Uiso   1.00
N21    N     0.70608   0.41474   0.50000   0.00000  Uiso   1.00
C22    C     0.62436   0.37303   0.50000   0.00000  Uiso   1.00
C23    C     0.83818   0.42180   0.50000   0.00000  Uiso   1.00
C24    C     0.62630   0.11997   0.50000   0.00000  Uiso   1.00
C25    C     0.58538   0.03578   0.50000   0.00000  Uiso   1.00
C26    C     0.50044   0.99020   0.50000   0.00000  Uiso   1.00
C27    C     0.45802   0.03294   0.50000   0.00000  Uiso   1.00
C28    C     0.49908   0.11728   0.50000   0.00000  Uiso   1.00
C29    C     0.46339   0.89993   0.50000   0.00000  Uiso   1.00
C30    C     0.38465   0.84008   0.50000   0.00000  Uiso   1.00
C31    C     0.35937   0.75091   0.50000   0.00000  Uiso   1.00
C32    C     0.27667   0.69197   0.50000   0.00000  Uiso   1.00
C33    C     0.32055   0.85912   0.50000   0.00000  Uiso   1.00
N34    N     0.26789   0.87249   0.50000   0.00000  Uiso   1.00
H35    H     0.69160   0.15250   0.50000   0.00000  Uiso   1.00
H36    H     0.62091   0.00607   0.50000   0.00000  Uiso   1.00
H37    H     0.39368   0.00411   0.50000   0.00000  Uiso   1.00
H38    H     0.46448   0.14797   0.50000   0.00000  Uiso   1.00
H39    H     0.50885   0.88297   0.50000   0.00000  Uiso   1.00
H40    H     0.23423   0.71270   0.50000   0.00000  Uiso   1.00
N41    N     0.58526   0.29134   0.50000   0.00000  Uiso   1.00
C42    C     0.62697   0.25133   0.50000   0.00000  Uiso   1.00
C43    C     0.57820   0.41638   0.50000   0.00000  Uiso   1.00
C44    C     0.88003   0.50633   0.50000   0.00000  Uiso   1.00
C45    C     0.96422   0.54960   0.50000   0.00000  Uiso   1.00
C46    C     0.00980   0.51024   0.50000   0.00000  Uiso   1.00
C47    C     0.96706   0.42508   0.50000   0.00000  Uiso   1.00
C48    C     0.88272   0.38180   0.50000   0.00000  Uiso   1.00
C49    C     0.10007   0.56346   0.50000   0.00000  Uiso   1.00
C50    C     0.15992   0.54457   0.50000   0.00000  Uiso   1.00
C51    C     0.24909   0.60846   0.50000   0.00000  Uiso   1.00
C52    C     0.30803   0.58470   0.50000   0.00000  Uiso   1.00
C53    C     0.14088   0.46143   0.50000   0.00000  Uiso   1.00
N54    N     0.12751   0.39540   0.50000   0.00000  Uiso   1.00
H55    H     0.84750   0.53910   0.50000   0.00000  Uiso   1.00
H56    H     0.99393   0.61484   0.50000   0.00000  Uiso   1.00
H57    H     0.99589   0.38957   0.50000   0.00000  Uiso   1.00
H58    H     0.85203   0.31651   0.50000   0.00000  Uiso   1.00
H59    H     0.11703   0.62588   0.50000   0.00000  Uiso   1.00
H60    H     0.28730   0.52153   0.50000   0.00000  Uiso   1.00
loop_
_geom_bond_atom_site_label_1
_geom_bond_atom_site_label_2
_geom_bond_distance
_geom_bond_site_symmetry_2
_ccdc_geom_bond_type
N1     C2      1.355   .     D
N1     C42     1.355   .     S
C2     N21     1.355   .     S
C2     C23     1.485   .     S
C3     C24     1.402   .     S
C3     C28     1.403   .     D
C3     C42     1.485   .     S
C4     C5      1.396   .     S
C4     H15     1.083   .     S
C4     C43     1.402   .     D
C5     C6      1.410   .     D
C5     H16     1.083   .     S
C6     C7      1.412   .     S
C6     C9      1.505   .     S
C7     C8      1.399   .     D
C7     H17     1.069   .     S
C8     H18     1.083   .     S
C8     C43     1.403   .     S
C9     C10     1.364   .     D
C9     H19     1.071   .     S
C10    C11     1.524   .     S
C10    C13     1.445   .     S
C11    C12     1.412   .     S
C11    C52     1.411   .     D
C12    H20     1.068   .     S
C12    C31     1.411   .     D
C13    N14     1.158   .     T
N21    C22     1.355   .     D
C22    N41     1.355   .     S
C22    C43     1.485   .     S
C23    C44     1.402   .     D
C23    C48     1.403   .     S
C24    C25     1.396   .     D
C24    H35     1.083   .     S
C25    C26     1.410   1_545 S
C25    H36     1.083   .     S
C26    C25     1.410   1_565 S
C26    C27     1.412   1_565 D
C26    C29     1.505   .     S
C27    C26     1.412   1_545 D
C27    C28     1.399   .     S
C27    H37     1.069   .     S
C28    H38     1.083   .     S
C29    C30     1.364   .     D
C29    H39     1.071   .     S
C30    C31     1.524   .     S
C30    C33     1.445   .     S
C31    C32     1.412   .     S
C32    H40     1.068   .     S
C32    C51     1.411   .     D
C33    N34     1.158   .     T
N41    C42     1.355   .     D
C44    C45     1.396   .     S
C44    H55     1.083   .     S
C45    C46     1.410   1_655 D
C45    H56     1.083   .     S
C46    C45     1.410   1_455 D
C46    C47     1.412   1_455 S
C46    C49     1.505   .     S
C47    C46     1.412   1_655 S
C47    C48     1.399   .     D
C47    H57     1.069   .     S
C48    H58     1.083   .     S
C49    C50     1.364   .     D
C49    H59     1.071   .     S
C50    C51     1.524   .     S
C50    C53     1.445   .     S
C51    C52     1.412   .     S
C52    H60     1.068   .     S
C53    N54     1.158   .     T
