data_502
_audit_creation_date              2023-09-08
_audit_creation_method            'Materials Studio'
_symmetry_space_group_name_H-M    'P1'
_symmetry_Int_Tables_number       1
_symmetry_cell_setting            triclinic
loop_
_symmetry_equiv_pos_as_xyz
  x,y,z
_cell_length_a                    41.8950
_cell_length_b                    41.8950
_cell_length_c                    3.3700
_cell_angle_alpha                 90.0000
_cell_angle_beta                  90.0000
_cell_angle_gamma                 120.0000
loop_
_atom_site_label
_atom_site_type_symbol
_atom_site_fract_x
_atom_site_fract_y
_atom_site_fract_z
_atom_site_U_iso_or_equiv
_atom_site_adp_type
_atom_site_occupancy
H1     H     0.62202   0.63117   0.21787   0.00000  Uiso   1.00
H2     H     0.55734   0.61174   0.23263   0.00000  Uiso   1.00
H3     H     0.36883   0.99085   0.21787   0.00000  Uiso   1.00
H4     H     0.38826   0.94560   0.23263   0.00000  Uiso   1.00
H5     H     0.00915   0.37798   0.21787   0.00000  Uiso   1.00
H6     H     0.05440   0.44266   0.23263   0.00000  Uiso   1.00
H7     H     0.37798   0.36883   0.21787   0.00000  Uiso   1.00
H8     H     0.44266   0.38826   0.23263   0.00000  Uiso   1.00
H9     H     0.63117   0.00916   0.21787   0.00000  Uiso   1.00
H10    H     0.61174   0.05440   0.23263   0.00000  Uiso   1.00
H11    H     0.99085   0.62202   0.21787   0.00000  Uiso   1.00
H12    H     0.94560   0.55734   0.23263   0.00000  Uiso   1.00
H13    H     0.37798   0.36883  -0.21787   0.00000  Uiso   1.00
H14    H     0.44266   0.38826  -0.23263   0.00000  Uiso   1.00
H15    H     0.63117   0.00916  -0.21787   0.00000  Uiso   1.00
H16    H     0.61174   0.05440  -0.23263   0.00000  Uiso   1.00
H17    H     0.99085   0.62202  -0.21787   0.00000  Uiso   1.00
H18    H     0.94560   0.55734  -0.23263   0.00000  Uiso   1.00
H19    H     0.62202   0.63117  -0.21787   0.00000  Uiso   1.00
H20    H     0.55734   0.61174  -0.23263   0.00000  Uiso   1.00
H21    H     0.36883   0.99085  -0.21787   0.00000  Uiso   1.00
H22    H     0.38826   0.94560  -0.23263   0.00000  Uiso   1.00
H23    H     0.00915   0.37798  -0.21787   0.00000  Uiso   1.00
H24    H     0.05440   0.44266  -0.23263   0.00000  Uiso   1.00
C25    C     0.46484   0.49326   0.00000   0.00000  Uiso   1.00
C26    C     0.46961   0.46288   0.00000   0.00000  Uiso   1.00
C27    C     0.50666   0.46983   0.00000   0.00000  Uiso   1.00
C28    C     0.47874   0.55594   0.00000   0.00000  Uiso   1.00
O29    O     0.56434   0.57050   0.00000   0.00000  Uiso   1.00
C30    C     0.43337   0.39480   0.00000   0.00000  Uiso   1.00
C31    C     0.39330   0.36475   0.00000   0.00000  Uiso   1.00
O32    O     0.44518   0.54253   0.00000   0.00000  Uiso   1.00
N33    N     0.50051   0.59501   0.00000   0.00000  Uiso   1.00
N34    N     0.52013   0.38747   0.00000   0.00000  Uiso   1.00
C35    C     0.49094   0.64722   0.00000   0.00000  Uiso   1.00
C36    C     0.53965   0.34528   0.00000   0.00000  Uiso   1.00
C37    C     0.46512   0.69023   0.00000   0.00000  Uiso   1.00
C38    C     0.43386   0.69438   0.00000   0.00000  Uiso   1.00
C39    C     0.39837   0.66301   0.00000   0.00000  Uiso   1.00
C40    C     0.39415   0.62805   0.00000   0.00000  Uiso   1.00
C41    C     0.42460   0.62405   0.00000   0.00000  Uiso   1.00
C42    C     0.36484   0.66515   0.00000   0.00000  Uiso   1.00
N43    N     0.36636   0.69806   0.00000   0.00000  Uiso   1.00
H44    H     0.49093   0.71293   0.00000   0.00000  Uiso   1.00
H45    H     0.43721   0.72030   0.00000   0.00000  Uiso   1.00
H46    H     0.36887   0.60451   0.00000   0.00000  Uiso   1.00
H47    H     0.41905   0.59724   0.00000   0.00000  Uiso   1.00
H48    H     0.43746   0.48574   0.00000   0.00000  Uiso   1.00
H49    H     0.51807   0.66726   0.00000   0.00000  Uiso   1.00
H50    H     0.52397   0.61202   0.00000   0.00000  Uiso   1.00
C51    C     0.50674   0.97158   0.00000   0.00000  Uiso   1.00
C52    C     0.53712   0.00673   0.00000   0.00000  Uiso   1.00
C53    C     0.53017   0.03683   0.00000   0.00000  Uiso   1.00
C54    C     0.44406   0.92280   0.00000   0.00000  Uiso   1.00
O55    O     0.42950   0.99384   0.00000   0.00000  Uiso   1.00
C56    C     0.60520   0.03857   0.00000   0.00000  Uiso   1.00
C57    C     0.63525   0.02855   0.00000   0.00000  Uiso   1.00
O58    O     0.45747   0.90265   0.00000   0.00000  Uiso   1.00
N59    N     0.40499   0.90550   0.00000   0.00000  Uiso   1.00
N60    N     0.61253   0.13266   0.00000   0.00000  Uiso   1.00
C61    C     0.35278   0.84372   0.00000   0.00000  Uiso   1.00
C62    C     0.65472   0.19437   0.00000   0.00000  Uiso   1.00
C63    C     0.30977   0.77489   0.00000   0.00000  Uiso   1.00
C64    C     0.30562   0.73948   0.00000   0.00000  Uiso   1.00
C65    C     0.33699   0.73536   0.00000   0.00000  Uiso   1.00
C66    C     0.37195   0.76610   0.00000   0.00000  Uiso   1.00
C67    C     0.37595   0.80055   0.00000   0.00000  Uiso   1.00
C68    C     0.33485   0.69969   0.00000   0.00000  Uiso   1.00
N69    N     0.30194   0.66830   0.00000   0.00000  Uiso   1.00
H70    H     0.28707   0.77800   0.00000   0.00000  Uiso   1.00
H71    H     0.27970   0.71691   0.00000   0.00000  Uiso   1.00
H72    H     0.39549   0.76436   0.00000   0.00000  Uiso   1.00
H73    H     0.40276   0.82181   0.00000   0.00000  Uiso   1.00
H74    H     0.51426   0.95172   0.00000   0.00000  Uiso   1.00
H75    H     0.33274   0.85082   0.00000   0.00000  Uiso   1.00
H76    H     0.38798   0.91195   0.00000   0.00000  Uiso   1.00
C77    C     0.02842   0.53516   0.00000   0.00000  Uiso   1.00
C78    C     0.99327   0.53039   0.00000   0.00000  Uiso   1.00
C79    C     0.96317   0.49334   0.00000   0.00000  Uiso   1.00
C80    C     0.07720   0.52126   0.00000   0.00000  Uiso   1.00
O81    O     0.00616   0.43566   0.00000   0.00000  Uiso   1.00
C82    C     0.96143   0.56663   0.00000   0.00000  Uiso   1.00
C83    C     0.97145   0.60670   0.00000   0.00000  Uiso   1.00
O84    O     0.09735   0.55482   0.00000   0.00000  Uiso   1.00
N85    N     0.09450   0.49949   0.00000   0.00000  Uiso   1.00
N86    N     0.86734   0.47987   0.00000   0.00000  Uiso   1.00
C87    C     0.15628   0.50906   0.00000   0.00000  Uiso   1.00
C88    C     0.80563   0.46035   0.00000   0.00000  Uiso   1.00
C89    C     0.22511   0.53488   0.00000   0.00000  Uiso   1.00
C90    C     0.26052   0.56614   0.00000   0.00000  Uiso   1.00
C91    C     0.26464   0.60163   0.00000   0.00000  Uiso   1.00
C92    C     0.23390   0.60585   0.00000   0.00000  Uiso   1.00
C93    C     0.19945   0.57540   0.00000   0.00000  Uiso   1.00
C94    C     0.30031   0.63516   0.00000   0.00000  Uiso   1.00
N95    N     0.33170   0.63364   0.00000   0.00000  Uiso   1.00
H96    H     0.22200   0.50906   0.00000   0.00000  Uiso   1.00
H97    H     0.28309   0.56279   0.00000   0.00000  Uiso   1.00
H98    H     0.23564   0.63113   0.00000   0.00000  Uiso   1.00
H99    H     0.17819   0.58095   0.00000   0.00000  Uiso   1.00
H100   H     0.04828   0.56254   0.00000   0.00000  Uiso   1.00
H101   H     0.14918   0.48193   0.00000   0.00000  Uiso   1.00
H102   H     0.08805   0.47603   0.00000   0.00000  Uiso   1.00
C103   C     0.53516   0.50674   0.00000   0.00000  Uiso   1.00
C104   C     0.53039   0.53712   0.00000   0.00000  Uiso   1.00
C105   C     0.49334   0.53017   0.00000   0.00000  Uiso   1.00
C106   C     0.52126   0.44406   0.00000   0.00000  Uiso   1.00
O107   O     0.43566   0.42950   0.00000   0.00000  Uiso   1.00
C108   C     0.56663   0.60520   0.00000   0.00000  Uiso   1.00
C109   C     0.60670   0.63525   0.00000   0.00000  Uiso   1.00
O110   O     0.55482   0.45747   0.00000   0.00000  Uiso   1.00
N111   N     0.49949   0.40499   0.00000   0.00000  Uiso   1.00
N112   N     0.47987   0.61253   0.00000   0.00000  Uiso   1.00
C113   C     0.50906   0.35278   0.00000   0.00000  Uiso   1.00
C114   C     0.46035   0.65472   0.00000   0.00000  Uiso   1.00
C115   C     0.53488   0.30977   0.00000   0.00000  Uiso   1.00
C116   C     0.56614   0.30562   0.00000   0.00000  Uiso   1.00
C117   C     0.60163   0.33699   0.00000   0.00000  Uiso   1.00
C118   C     0.60585   0.37195   0.00000   0.00000  Uiso   1.00
C119   C     0.57540   0.37595   0.00000   0.00000  Uiso   1.00
C120   C     0.63516   0.33485   0.00000   0.00000  Uiso   1.00
N121   N     0.63364   0.30194   0.00000   0.00000  Uiso   1.00
H122   H     0.50906   0.28707   0.00000   0.00000  Uiso   1.00
H123   H     0.56279   0.27970   0.00000   0.00000  Uiso   1.00
H124   H     0.63113   0.39549   0.00000   0.00000  Uiso   1.00
H125   H     0.58095   0.40276   0.00000   0.00000  Uiso   1.00
H126   H     0.56254   0.51426   0.00000   0.00000  Uiso   1.00
H127   H     0.48193   0.33274   0.00000   0.00000  Uiso   1.00
H128   H     0.47603   0.38798   0.00000   0.00000  Uiso   1.00
C129   C     0.49326   0.02842   0.00000   0.00000  Uiso   1.00
C130   C     0.46288   0.99327   0.00000   0.00000  Uiso   1.00
C131   C     0.46983   0.96317   0.00000   0.00000  Uiso   1.00
C132   C     0.55594   0.07720   0.00000   0.00000  Uiso   1.00
O133   O     0.57050   0.00616   0.00000   0.00000  Uiso   1.00
C134   C     0.39480   0.96143   0.00000   0.00000  Uiso   1.00
C135   C     0.36475   0.97145   0.00000   0.00000  Uiso   1.00
O136   O     0.54253   0.09735   0.00000   0.00000  Uiso   1.00
N137   N     0.59501   0.09450   0.00000   0.00000  Uiso   1.00
N138   N     0.38747   0.86734   0.00000   0.00000  Uiso   1.00
C139   C     0.64722   0.15628   0.00000   0.00000  Uiso   1.00
C140   C     0.34528   0.80563   0.00000   0.00000  Uiso   1.00
C141   C     0.69023   0.22511   0.00000   0.00000  Uiso   1.00
C142   C     0.69438   0.26052   0.00000   0.00000  Uiso   1.00
C143   C     0.66301   0.26464   0.00000   0.00000  Uiso   1.00
C144   C     0.62805   0.23390   0.00000   0.00000  Uiso   1.00
C145   C     0.62405   0.19945   0.00000   0.00000  Uiso   1.00
C146   C     0.66515   0.30031   0.00000   0.00000  Uiso   1.00
N147   N     0.69806   0.33170   0.00000   0.00000  Uiso   1.00
H148   H     0.71293   0.22200   0.00000   0.00000  Uiso   1.00
H149   H     0.72030   0.28309   0.00000   0.00000  Uiso   1.00
H150   H     0.60451   0.23564   0.00000   0.00000  Uiso   1.00
H151   H     0.59724   0.17819   0.00000   0.00000  Uiso   1.00
H152   H     0.48574   0.04828   0.00000   0.00000  Uiso   1.00
H153   H     0.66726   0.14918   0.00000   0.00000  Uiso   1.00
H154   H     0.61202   0.08805   0.00000   0.00000  Uiso   1.00
C155   C     0.97158   0.46484   0.00000   0.00000  Uiso   1.00
C156   C     0.00673   0.46961   0.00000   0.00000  Uiso   1.00
C157   C     0.03683   0.50666   0.00000   0.00000  Uiso   1.00
C158   C     0.92280   0.47874   0.00000   0.00000  Uiso   1.00
O159   O     0.99384   0.56434   0.00000   0.00000  Uiso   1.00
C160   C     0.03857   0.43337   0.00000   0.00000  Uiso   1.00
C161   C     0.02855   0.39330   0.00000   0.00000  Uiso   1.00
O162   O     0.90265   0.44518   0.00000   0.00000  Uiso   1.00
N163   N     0.90550   0.50051   0.00000   0.00000  Uiso   1.00
N164   N     0.13266   0.52013   0.00000   0.00000  Uiso   1.00
C165   C     0.84372   0.49094   0.00000   0.00000  Uiso   1.00
C166   C     0.19437   0.53965   0.00000   0.00000  Uiso   1.00
C167   C     0.77489   0.46512   0.00000   0.00000  Uiso   1.00
C168   C     0.73948   0.43386   0.00000   0.00000  Uiso   1.00
C169   C     0.73536   0.39837   0.00000   0.00000  Uiso   1.00
C170   C     0.76610   0.39415   0.00000   0.00000  Uiso   1.00
C171   C     0.80055   0.42460   0.00000   0.00000  Uiso   1.00
C172   C     0.69969   0.36484   0.00000   0.00000  Uiso   1.00
N173   N     0.66830   0.36636   0.00000   0.00000  Uiso   1.00
H174   H     0.77800   0.49093   0.00000   0.00000  Uiso   1.00
H175   H     0.71691   0.43721   0.00000   0.00000  Uiso   1.00
H176   H     0.76436   0.36887   0.00000   0.00000  Uiso   1.00
H177   H     0.82181   0.41905   0.00000   0.00000  Uiso   1.00
H178   H     0.95172   0.43746   0.00000   0.00000  Uiso   1.00
H179   H     0.85082   0.51807   0.00000   0.00000  Uiso   1.00
H180   H     0.91195   0.52397   0.00000   0.00000  Uiso   1.00
H181   H     0.61165   0.66347   0.00000   0.00000  Uiso   1.00
H182   H     0.33653   0.94819   0.00000   0.00000  Uiso   1.00
H183   H     0.05181   0.38835   0.00000   0.00000  Uiso   1.00
H184   H     0.38835   0.33653   0.00000   0.00000  Uiso   1.00
H185   H     0.66347   0.05181   0.00000   0.00000  Uiso   1.00
H186   H     0.94819   0.61165   0.00000   0.00000  Uiso   1.00
loop_
_geom_bond_atom_site_label_1
_geom_bond_atom_site_label_2
_geom_bond_distance
_geom_bond_site_symmetry_2
_ccdc_geom_bond_type
H1     C109    1.044   .     S
H2     C108    0.974   .     S
H3     C135    1.044   .     S
H4     C134    0.974   .     S
H5     C161    1.044   .     S
H6     C160    0.974   .     S
H7     C31     1.044   .     S
H8     C30     0.974   .     S
H9     C57     1.044   .     S
H10    C56     0.974   .     S
H11    C83     1.044   .     S
H12    C82     0.974   .     S
H13    C31     1.044   .     S
H14    C30     0.974   .     S
H15    C57     1.044   .     S
H16    C56     0.974   .     S
H17    C83     1.044   .     S
H18    C82     0.974   .     S
H19    C109    1.044   .     S
H20    C108    0.974   .     S
H21    C135    1.044   .     S
H22    C134    0.974   .     S
H23    C161    1.044   .     S
H24    C160    0.974   .     S
C25    C26     1.384   .     D
C25    H48     1.027   .     S
C25    C105    1.404   .     S
C26    C27     1.429   .     S
C26    O107    1.411   .     S
C27    C103    1.404   .     D
C27    C106    1.483   .     S
C28    O32     1.226   .     D
C28    N33     1.421   .     S
C28    C105    1.483   .     S
O29    C104    1.411   .     S
O29    C108    1.408   .     S
C30    C31     1.513   .     S
C30    O107    1.408   .     S
C31    H184    1.093   .     S
N33    H50     0.880   .     S
N33    N112    1.386   .     S
N34    N111    1.386   .     S
N34    C113    1.286   .     D
C35    H49     1.021   .     S
C35    N112    1.286   .     D
C35    C114    1.464   .     S
C36    C113    1.464   .     S
C36    C115    1.399   .     D
C36    C119    1.403   .     S
C37    C38     1.405   .     S
C37    H44     1.023   .     S
C37    C114    1.399   .     D
C38    C39     1.409   .     D
C38    H45     1.023   .     S
C39    C40     1.385   .     S
C39    C42     1.452   .     S
C40    C41     1.367   .     D
C40    H46     1.025   .     S
C41    H47     1.027   .     S
C41    C114    1.403   .     S
C42    N43     1.348   .     S
C42    N95     1.356   .     D
N43    C68     1.356   .     D
C51    C52     1.384   1_565 D
C51    H74     1.026   .     S
C51    C131    1.404   .     S
C52    C51     1.384   1_545 D
C52    C53     1.429   .     S
C52    O133    1.411   .     S
C53    C129    1.404   .     D
C53    C132    1.483   .     S
C54    O58     1.226   .     D
C54    N59     1.421   .     S
C54    C131    1.483   .     S
O55    C130    1.411   .     S
O55    C134    1.408   .     S
C56    C57     1.513   .     S
C56    O133    1.408   .     S
C57    H185    1.093   .     S
N59    H76     0.880   .     S
N59    N138    1.386   .     S
N60    N137    1.386   .     S
N60    C139    1.286   .     D
C61    H75     1.021   .     S
C61    N138    1.286   .     D
C61    C140    1.464   .     S
C62    C139    1.464   .     S
C62    C141    1.399   .     D
C62    C145    1.403   .     S
C63    C64     1.405   .     D
C63    H70     1.023   .     S
C63    C140    1.399   .     S
C64    C65     1.409   .     S
C64    H71     1.023   .     S
C65    C66     1.385   .     D
C65    C68     1.452   .     S
C66    C67     1.367   .     S
C66    H72     1.025   .     S
C67    H73     1.027   .     S
C67    C140    1.403   .     D
C68    N69     1.348   .     S
N69    C94     1.356   .     D
C77    C78     1.384   1_455 D
C77    H100    1.027   .     S
C77    C157    1.404   .     S
C78    C77     1.384   1_655 D
C78    C79     1.429   .     S
C78    O159    1.411   .     S
C79    C155    1.404   .     D
C79    C158    1.483   .     S
C80    O84     1.226   .     D
C80    N85     1.421   .     S
C80    C157    1.483   .     S
O81    C156    1.411   .     S
O81    C160    1.408   .     S
C82    C83     1.513   .     S
C82    O159    1.408   .     S
C83    H186    1.093   .     S
N85    H102    0.880   .     S
N85    N164    1.386   .     S
N86    N163    1.386   .     S
N86    C165    1.286   .     D
C87    H101    1.021   .     S
C87    N164    1.286   .     D
C87    C166    1.464   .     S
C88    C165    1.464   .     S
C88    C167    1.399   .     S
C88    C171    1.403   .     D
C89    C90     1.405   .     D
C89    H96     1.023   .     S
C89    C166    1.399   .     S
C90    C91     1.409   .     S
C90    H97     1.023   .     S
C91    C92     1.385   .     D
C91    C94     1.452   .     S
C92    C93     1.367   .     S
C92    H98     1.025   .     S
C93    H99     1.027   .     S
C93    C166    1.403   .     D
C94    N95     1.348   .     S
C103   C104    1.384   .     S
C103   H126    1.027   .     S
C104   C105    1.429   .     D
C106   O110    1.226   .     D
C106   N111    1.421   .     S
C108   C109    1.513   .     S
C109   H181    1.093   .     S
N111   H128    0.880   .     S
C113   H127    1.021   .     S
C115   C116    1.405   .     S
C115   H122    1.023   .     S
C116   C117    1.409   .     D
C116   H123    1.023   .     S
C117   C118    1.385   .     S
C117   C120    1.452   .     S
C118   C119    1.367   .     D
C118   H124    1.025   .     S
C119   H125    1.027   .     S
C120   N121    1.348   .     S
C120   N173    1.356   .     D
N121   C146    1.356   .     D
C129   C130    1.384   1_545 S
C129   H152    1.026   .     S
C130   C129    1.384   1_565 S
C130   C131    1.429   .     D
C132   O136    1.226   .     D
C132   N137    1.421   .     S
C134   C135    1.513   .     S
C135   H182    1.093   .     S
N137   H154    0.880   .     S
C139   H153    1.021   .     S
C141   C142    1.405   .     S
C141   H148    1.023   .     S
C142   C143    1.409   .     D
C142   H149    1.023   .     S
C143   C144    1.385   .     S
C143   C146    1.452   .     S
C144   C145    1.367   .     D
C144   H150    1.025   .     S
C145   H151    1.027   .     S
C146   N147    1.348   .     S
N147   C172    1.356   .     D
C155   C156    1.384   1_655 S
C155   H178    1.027   .     S
C156   C155    1.384   1_455 S
C156   C157    1.429   .     D
C158   O162    1.226   .     D
C158   N163    1.421   .     S
C160   C161    1.513   .     S
C161   H183    1.093   .     S
N163   H180    0.880   .     S
C165   H179    1.021   .     S
C167   C168    1.405   .     D
C167   H174    1.023   .     S
C168   C169    1.409   .     S
C168   H175    1.023   .     S
C169   C170    1.385   .     D
C169   C172    1.452   .     S
C170   C171    1.367   .     S
C170   H176    1.025   .     S
C171   H177    1.027   .     S
C172   N173    1.348   .     S
