data_503
_audit_creation_date              2023-09-08
_audit_creation_method            'Materials Studio'
_symmetry_space_group_name_H-M    'P1'
_symmetry_Int_Tables_number       1
_symmetry_cell_setting            triclinic
loop_
_symmetry_equiv_pos_as_xyz
  x,y,z
_cell_length_a                    17.4900
_cell_length_b                    17.4900
_cell_length_c                    3.4960
_cell_angle_alpha                 90.0000
_cell_angle_beta                  90.0000
_cell_angle_gamma                 120.0000
loop_
_atom_site_label
_atom_site_type_symbol
_atom_site_fract_x
_atom_site_fract_y
_atom_site_fract_z
_atom_site_U_iso_or_equiv
_atom_site_adp_type
_atom_site_occupancy
N1     N     0.20784  -0.18563   0.00000   0.00000  Uiso   1.00
C2     C     0.24089  -0.24127   0.00000   0.00000  Uiso   1.00
N3     N     0.33031  -0.20795   0.00000   0.00000  Uiso   1.00
N4     N     0.25655  -0.09250   0.00000   0.00000  Uiso   1.00
N5     N     0.09080  -0.37517   0.00000   0.00000  Uiso   1.00
N6     N     0.18446  -0.33028   0.00000   0.00000  Uiso   1.00
N7     N     0.37503  -0.25617   0.00000   0.00000  Uiso   1.00
C8     C     0.33566  -0.34163   0.00000   0.00000  Uiso   1.00
C9     C     0.38606  -0.38775   0.00000   0.00000  Uiso   1.00
C10    C     0.47914  -0.34126   0.00000   0.00000  Uiso   1.00
C11    C     0.52549  -0.38699   0.00000   0.00000  Uiso   1.00
C12    C     0.47935  -0.47958   0.00000   0.00000  Uiso   1.00
C13    C     0.38630  -0.52574   0.00000   0.00000  Uiso   1.00
C14    C     0.33993  -0.48003   0.00000   0.00000  Uiso   1.00
N15    N     0.48060  -0.62261   0.00000   0.00000  Uiso   1.00
C16    C     0.52785  -0.52806   0.00000   0.00000  Uiso   1.00
N17    N     0.61783  -0.48411   0.00000   0.00000  Uiso   1.00
C18    C     0.66256  -0.52894   0.00000   0.00000  Uiso   1.00
C19    C     0.52672  -0.66583   0.00000   0.00000  Uiso   1.00
C20    C     0.47923  -0.76311   0.00000   0.00000  Uiso   1.00
N21    N     0.61695  -0.61881   0.00000   0.00000  Uiso   1.00
C22    C     0.38615  -0.81155   0.00000   0.00000  Uiso   1.00
C23    C     0.80778  -0.38758   0.00000   0.00000  Uiso   1.00
C24    C     0.48121  -0.90063   0.00000   0.00000  Uiso   1.00
C25    C     0.38842  -0.94865   0.00000   0.00000  Uiso   1.00
C26    C     0.34096  -0.90376   0.00000   0.00000  Uiso   1.00
C27    C     0.90009  -0.47937   0.00000   0.00000  Uiso   1.00
C28    C     0.94702  -0.38682   0.00000   0.00000  Uiso   1.00
C29    C     0.90055  -0.34121   0.00000   0.00000  Uiso   1.00
C30    C     0.04427  -0.33637   0.00000   0.00000  Uiso   1.00
C31    C     0.34249  -0.04535   0.00000   0.00000  Uiso   1.00
H32    H     0.37627  -0.13540   0.00000   0.00000  Uiso   1.00
H33    H     0.21962  -0.36826   0.00000   0.00000  Uiso   1.00
H34    H     0.26004  -0.38274   0.00000   0.00000  Uiso   1.00
H35    H     0.51718  -0.26597   0.00000   0.00000  Uiso   1.00
H36    H     0.60120  -0.34865   0.00000   0.00000  Uiso   1.00
H37    H     0.34799  -0.60104   0.00000   0.00000  Uiso   1.00
H38    H     0.26422  -0.51802   0.00000   0.00000  Uiso   1.00
H39    H     0.34689  -0.77568   0.00000   0.00000  Uiso   1.00
H40    H     0.77058  -0.34965   0.00000   0.00000  Uiso   1.00
H41    H     0.60213  -0.76937   0.00000   0.00000  Uiso   1.00
H42    H     0.52003  -0.93694   0.00000   0.00000  Uiso   1.00
H43    H     0.26526  -0.94252   0.00000   0.00000  Uiso   1.00
H44    H     0.76926  -0.60103   0.00000   0.00000  Uiso   1.00
H45    H     0.93777  -0.51682   0.00000   0.00000  Uiso   1.00
H46    H     0.93833  -0.26592   0.00000   0.00000  Uiso   1.00
H47    H     0.07897  -0.26118   0.00000   0.00000  Uiso   1.00
H48    H     0.38385  -0.07903   0.00000   0.00000  Uiso   1.00
H49    H     0.13632   0.79383   0.00000   0.00000  Uiso   1.00
Cl50   Cl    0.17349   0.93394   1.00000   0.00000  Uiso   1.00
C51    C     0.75873  -0.48216   0.00000   0.00000  Uiso   1.00
C52    C     0.52894  -0.80850   0.00000   0.00000  Uiso   1.00
C53    C     0.80745  -0.52672   0.00000   0.00000  Uiso   1.00
loop_
_geom_bond_atom_site_label_1
_geom_bond_atom_site_label_2
_geom_bond_distance
_geom_bond_site_symmetry_2
_ccdc_geom_bond_type
N1     C2      1.358   .     D
N1     N4      1.411   .     S
N1     H49     1.116   1_545 S
C2     N3      1.369   .     S
C2     N6      1.364   .     S
N3     N7      1.408   .     S
N3     H32     1.112   .     S
N4     C31     1.304   .     D
N4     Cl50    1.731   1_544 S
N5     N6      1.419   .     S
N5     C30     1.294   .     D
N6     H33     1.108   .     S
N7     C8      1.296   .     D
C8     C9      1.462   .     S
C8     H34     1.147   .     S
C9     C10     1.410   .     D
C9     C14     1.398   .     S
C10    C11     1.395   .     S
C10    H35     1.140   .     S
C11    C12     1.402   .     D
C11    H36     1.147   .     S
C12    C13     1.409   .     S
C12    C16     1.469   .     S
C13    C14     1.395   .     D
C13    H37     1.141   .     S
C14    H38     1.147   .     S
N15    C16     1.432   .     S
N15    C19     1.353   .     D
C16    N17     1.363   .     D
N17    C18     1.357   .     S
C18    N21     1.361   .     D
C18    C51     1.457   .     S
C19    C20     1.474   .     S
C19    N21     1.367   .     S
C20    C22     1.410   .     S
C20    C52     1.441   .     D
C22    C26     1.397   .     D
C22    H39     1.138   .     S
C23    C29     1.405   .     D
C23    H40     1.138   .     S
C23    C51     1.433   .     S
C24    C25     1.406   .     D
C24    H42     1.138   .     S
C24    C52     1.396   .     S
C25    C26     1.399   .     S
C25    C31     1.465   1_545 S
C26    H43     1.147   .     S
C27    C28     1.402   .     D
C27    H45     1.138   .     S
C27    C53     1.403   .     S
C28    C29     1.395   .     S
C28    C30     1.473   1_655 S
C29    H46     1.140   .     S
C30    C28     1.473   1_455 S
C30    H47     1.140   .     S
C31    C25     1.465   1_565 S
C31    H48     1.139   .     S
H41    C52     1.109   .     S
H44    C53     1.126   .     S
H49    N1      1.116   1_565 S
Cl50   N4      1.731   1_566 S
C51    C53     1.413   .     D
