data_504
_audit_creation_date              2023-09-08
_audit_creation_method            'Materials Studio'
_symmetry_space_group_name_H-M    'P1'
_symmetry_Int_Tables_number       1
_symmetry_cell_setting            triclinic
loop_
_symmetry_equiv_pos_as_xyz
  x,y,z
_cell_length_a                    21.9528
_cell_length_b                    21.9528
_cell_length_c                    3.4934
_cell_angle_alpha                 90.0000
_cell_angle_beta                  90.0000
_cell_angle_gamma                 120.0000
loop_
_atom_site_label
_atom_site_type_symbol
_atom_site_fract_x
_atom_site_fract_y
_atom_site_fract_z
_atom_site_U_iso_or_equiv
_atom_site_adp_type
_atom_site_occupancy
C1     C     0.73770   0.38172   0.50000   0.00000  Uiso   1.00
C2     C     0.26544   0.61004   0.50000   0.00000  Uiso   1.00
C3     C     0.61829   0.35598   0.50000   0.00000  Uiso   1.00
C4     C     0.38997   0.65540   0.50000   0.00000  Uiso   1.00
C5     C     0.64402   0.26230   0.50000   0.00000  Uiso   1.00
C6     C     0.34460   0.73456   0.50000   0.00000  Uiso   1.00
C7     C     0.68994   0.40492   0.50000   0.00000  Uiso   1.00
C8     C     0.32129   0.59827   0.50000   0.00000  Uiso   1.00
C9     C     0.59508   0.28502   0.50000   0.00000  Uiso   1.00
C10    C     0.40173   0.72302   0.50000   0.00000  Uiso   1.00
C11    C     0.71498   0.31006   0.50000   0.00000  Uiso   1.00
C12    C     0.27698   0.67871   0.50000   0.00000  Uiso   1.00
C13    C     0.81107   0.43212   0.50000   0.00000  Uiso   1.00
C14    C     0.19506   0.55129   0.50000   0.00000  Uiso   1.00
C15    C     0.56788   0.37895   0.50000   0.00000  Uiso   1.00
C16    C     0.44871   0.64376   0.50000   0.00000  Uiso   1.00
C17    C     0.62105   0.18893   0.50000   0.00000  Uiso   1.00
C18    C     0.35624   0.80495   0.50000   0.00000  Uiso   1.00
N19    N     0.85370   0.40816   0.50000   0.00000  Uiso   1.00
N20    N     0.14652   0.56726   0.50000   0.00000  Uiso   1.00
N21    N     0.59184   0.44554   0.50000   0.00000  Uiso   1.00
N22    N     0.43274   0.57926   0.50000   0.00000  Uiso   1.00
N23    N     0.55446   0.14630   0.50000   0.00000  Uiso   1.00
N24    N     0.42074   0.85348   0.50000   0.00000  Uiso   1.00
C25    C     0.92719   0.44813   0.50000   0.00000  Uiso   1.00
C26    C     0.07369   0.52375   0.50000   0.00000  Uiso   1.00
C27    C     0.55187   0.47906   0.50000   0.00000  Uiso   1.00
C28    C     0.47625   0.54994   0.50000   0.00000  Uiso   1.00
C29    C     0.52094   0.07281   0.50000   0.00000  Uiso   1.00
C30    C     0.45006   0.92631   0.50000   0.00000  Uiso   1.00
C31    C     0.96466   0.41269   0.50000   0.00000  Uiso   1.00
C32    C     0.03590   0.55901   0.50000   0.00000  Uiso   1.00
C33    C     0.58731   0.55196   0.50000   0.00000  Uiso   1.00
C34    C     0.44099   0.47688   0.50000   0.00000  Uiso   1.00
C35    C     0.44804   0.03534   0.50000   0.00000  Uiso   1.00
C36    C     0.52312   0.96410   0.50000   0.00000  Uiso   1.00
C37    C     0.03846   0.45027   0.50000   0.00000  Uiso   1.00
C38    C     0.96329   0.52207   0.50000   0.00000  Uiso   1.00
C39    C     0.54973   0.58819   0.50000   0.00000  Uiso   1.00
C40    C     0.47793   0.44121   0.50000   0.00000  Uiso   1.00
C41    C     0.41181   0.96154   0.50000   0.00000  Uiso   1.00
C42    C     0.55879   0.03671   0.50000   0.00000  Uiso   1.00
H43    H     0.70860   0.46094   0.50000   0.00000  Uiso   1.00
H44    H     0.31100   0.54457   0.50000   0.00000  Uiso   1.00
H45    H     0.53906   0.24766   0.50000   0.00000  Uiso   1.00
H46    H     0.45543   0.76643   0.50000   0.00000  Uiso   1.00
H47    H     0.75234   0.29140   0.50000   0.00000  Uiso   1.00
H48    H     0.23357   0.68900   0.50000   0.00000  Uiso   1.00
H49    H     0.82792   0.48746   0.50000   0.00000  Uiso   1.00
H50    H     0.18506   0.49789   0.50000   0.00000  Uiso   1.00
H51    H     0.51254   0.34046   0.50000   0.00000  Uiso   1.00
H52    H     0.50211   0.68717   0.50000   0.00000  Uiso   1.00
H53    H     0.65954   0.17208   0.50000   0.00000  Uiso   1.00
H54    H     0.31283   0.81494   0.50000   0.00000  Uiso   1.00
N55    N     0.93784   0.34286   0.50000   0.00000  Uiso   1.00
N56    N     0.65714   0.59498   0.50000   0.00000  Uiso   1.00
N57    N     0.40501   0.06216   0.50000   0.00000  Uiso   1.00
N58    N     0.06585   0.40775   0.50000   0.00000  Uiso   1.00
N59    N     0.59225   0.65811   0.50000   0.00000  Uiso   1.00
N60    N     0.34189   0.93415   0.50000   0.00000  Uiso   1.00
S61    S     0.67835   0.68068   0.50000   0.00000  Uiso   1.00
S62    S     0.31932   0.99767   0.50000   0.00000  Uiso   1.00
S63    S     0.00233   0.32165   0.50000   0.00000  Uiso   1.00
H64    H     0.93700   0.55239   0.50000   0.00000  Uiso   1.00
H65    H     0.06370   0.61604   0.50000   0.00000  Uiso   1.00
H66    H     0.44761   0.38461   0.50000   0.00000  Uiso   1.00
H67    H     0.38396   0.44766   0.50000   0.00000  Uiso   1.00
H68    H     0.61539   0.06300   0.50000   0.00000  Uiso   1.00
H69    H     0.55234   0.93630   0.50000   0.00000  Uiso   1.00
loop_
_geom_bond_atom_site_label_1
_geom_bond_atom_site_label_2
_geom_bond_distance
_geom_bond_site_symmetry_2
_ccdc_geom_bond_type
C1     C7      1.376   .     S
C1     C11     1.392   .     D
C1     C13     1.427   .     S
C2     C8      1.374   .     S
C2     C12     1.398   .     D
C2     C14     1.435   .     S
C3     C7      1.392   .     D
C3     C9      1.376   .     S
C3     C15     1.427   .     S
C4     C8      1.398   .     D
C4     C10     1.374   .     S
C4     C16     1.435   .     S
C5     C9      1.392   .     D
C5     C11     1.376   .     S
C5     C17     1.427   .     S
C6     C10     1.398   .     D
C6     C12     1.374   .     S
C6     C18     1.435   .     S
C7     H43     1.085   .     S
C8     H44     1.084   .     S
C9     H45     1.085   .     S
C10    H46     1.084   .     S
C11    H47     1.085   .     S
C12    H48     1.084   .     S
C13    N19     1.282   .     D
C13    H49     1.079   .     S
C14    N20     1.277   .     D
C14    H50     1.079   .     S
C15    N21     1.282   .     D
C15    H51     1.079   .     S
C16    N22     1.277   .     D
C16    H52     1.079   .     S
C17    N23     1.282   .     D
C17    H53     1.079   .     S
C18    N24     1.277   .     D
C18    H54     1.079   .     S
N19    C25     1.399   .     S
N20    C26     1.393   .     S
N21    C27     1.399   .     S
N22    C28     1.393   .     S
N23    C29     1.399   .     S
N24    C30     1.393   .     S
C25    C31     1.386   .     S
C25    C38     1.406   .     D
C26    C32     1.389   .     D
C26    C37     1.397   .     S
C27    C33     1.386   .     S
C27    C40     1.406   .     D
C28    C34     1.389   .     D
C28    C39     1.397   .     S
C29    C35     1.386   .     S
C29    C42     1.406   .     D
C30    C36     1.389   .     D
C30    C41     1.397   .     S
C31    C37     1.403   1_655 S
C31    N55     1.340   .     D
C32    C38     1.380   1_455 S
C32    H65     1.084   .     S
C33    C39     1.403   .     S
C33    N56     1.340   .     D
C34    C40     1.380   .     S
C34    H67     1.084   .     S
C35    C41     1.403   1_545 S
C35    N57     1.340   .     D
C36    C42     1.380   1_565 S
C36    H69     1.084   .     S
C37    C31     1.403   1_455 S
C37    N58     1.339   .     D
C38    C32     1.380   1_655 S
C38    H64     1.077   .     S
C39    N59     1.339   .     D
C40    H66     1.077   .     S
C41    C35     1.403   1_565 S
C41    N60     1.340   .     D
C42    C36     1.380   1_545 S
C42    H68     1.077   .     S
N55    S63     1.697   1_655 S
N56    S61     1.697   .     S
N57    S62     1.697   1_545 S
N58    S63     1.697   .     S
N59    S61     1.697   .     S
N60    S62     1.697   .     S
S62    N57     1.697   1_565 S
S63    N55     1.697   1_455 S
