data_505
_audit_creation_date              2023-09-08
_audit_creation_method            'Materials Studio'
_symmetry_space_group_name_H-M    'P1'
_symmetry_Int_Tables_number       1
_symmetry_cell_setting            triclinic
loop_
_symmetry_equiv_pos_as_xyz
  x,y,z
_cell_length_a                    38.8200
_cell_length_b                    38.8200
_cell_length_c                    4.0500
_cell_angle_alpha                 90.0000
_cell_angle_beta                  90.0000
_cell_angle_gamma                 120.0000
loop_
_atom_site_label
_atom_site_type_symbol
_atom_site_fract_x
_atom_site_fract_y
_atom_site_fract_z
_atom_site_U_iso_or_equiv
_atom_site_adp_type
_atom_site_occupancy
H1     H     0.57634   0.58922   0.21924   0.00000  Uiso   1.00
H2     H     0.62927   0.65755   0.22167   0.00000  Uiso   1.00
H3     H     0.61844   0.71616   0.21976   0.00000  Uiso   1.00
H4     H     0.41078   0.98712   0.21924   0.00000  Uiso   1.00
H5     H     0.34245   0.97172   0.22167   0.00000  Uiso   1.00
H6     H     0.28384   0.90228   0.21976   0.00000  Uiso   1.00
H7     H     0.01288   0.42366   0.21924   0.00000  Uiso   1.00
H8     H     0.02828   0.37073   0.22167   0.00000  Uiso   1.00
H9     H     0.09772   0.38156   0.21976   0.00000  Uiso   1.00
H10    H     0.42366   0.41078   0.21924   0.00000  Uiso   1.00
H11    H     0.37073   0.34245   0.22167   0.00000  Uiso   1.00
H12    H     0.38156   0.28384   0.21976   0.00000  Uiso   1.00
H13    H     0.58922   0.01288   0.21924   0.00000  Uiso   1.00
H14    H     0.65755   0.02828   0.22167   0.00000  Uiso   1.00
H15    H     0.71616   0.09772   0.21976   0.00000  Uiso   1.00
H16    H     0.98712   0.57634   0.21924   0.00000  Uiso   1.00
H17    H     0.97172   0.62927   0.22167   0.00000  Uiso   1.00
H18    H     0.90228   0.61844   0.21976   0.00000  Uiso   1.00
H19    H     0.42366   0.41078  -0.21924   0.00000  Uiso   1.00
H20    H     0.37073   0.34245  -0.22167   0.00000  Uiso   1.00
H21    H     0.38156   0.28384  -0.21976   0.00000  Uiso   1.00
H22    H     0.58922   0.01288  -0.21924   0.00000  Uiso   1.00
H23    H     0.65755   0.02828  -0.22167   0.00000  Uiso   1.00
H24    H     0.71616   0.09772  -0.21976   0.00000  Uiso   1.00
H25    H     0.98712   0.57634  -0.21924   0.00000  Uiso   1.00
H26    H     0.97172   0.62927  -0.22167   0.00000  Uiso   1.00
H27    H     0.90228   0.61844  -0.21976   0.00000  Uiso   1.00
H28    H     0.57634   0.58922  -0.21924   0.00000  Uiso   1.00
H29    H     0.62927   0.65755  -0.22167   0.00000  Uiso   1.00
H30    H     0.61844   0.71616  -0.21976   0.00000  Uiso   1.00
H31    H     0.41078   0.98712  -0.21924   0.00000  Uiso   1.00
H32    H     0.34245   0.97172  -0.22167   0.00000  Uiso   1.00
H33    H     0.28384   0.90228  -0.21976   0.00000  Uiso   1.00
H34    H     0.01288   0.42366  -0.21924   0.00000  Uiso   1.00
H35    H     0.02828   0.37073  -0.22167   0.00000  Uiso   1.00
H36    H     0.09772   0.38156  -0.21976   0.00000  Uiso   1.00
O37    O     0.41326   0.71150   0.00000   0.00000  Uiso   1.00
C38    C     0.37709   0.69150   0.00000   0.00000  Uiso   1.00
C39    C     0.35870   0.64738   0.00000   0.00000  Uiso   1.00
H40    H     0.41515   0.65313   0.00000   0.00000  Uiso   1.00
C41    C     0.38373   0.63214   0.00000   0.00000  Uiso   1.00
N42    N     0.37198   0.59044   0.00000   0.00000  Uiso   1.00
H43    H     0.34212   0.56894   0.00000   0.00000  Uiso   1.00
C44    C     0.39898   0.57503   0.00000   0.00000  Uiso   1.00
H45    H     0.35150   0.51433   0.00000   0.00000  Uiso   1.00
C46    C     0.38345   0.53400   0.00000   0.00000  Uiso   1.00
C47    C     0.44033   0.59914   0.00000   0.00000  Uiso   1.00
H48    H     0.45473   0.63117   0.00000   0.00000  Uiso   1.00
H49    H     0.49454   0.60189   0.00000   0.00000  Uiso   1.00
C50    C     0.46482   0.58223   0.00000   0.00000  Uiso   1.00
C51    C     0.40832   0.51752   0.00000   0.00000  Uiso   1.00
H52    H     0.39151   0.48570   0.00000   0.00000  Uiso   1.00
C53    C     0.45100   0.54143   0.00000   0.00000  Uiso   1.00
C54    C     0.47936   0.52370   0.00000   0.00000  Uiso   1.00
H55    H     0.42852   0.46567   0.00000   0.00000  Uiso   1.00
C56    C     0.45999   0.48154   0.00000   0.00000  Uiso   1.00
C57    C     0.52264   0.54332   0.00000   0.00000  Uiso   1.00
C58    C     0.55836   0.58735   0.00000   0.00000  Uiso   1.00
S59    S     0.56344   0.63688   0.00000   0.00000  Uiso   1.00
C60    C     0.61751   0.66494   0.00000   0.00000  Uiso   1.00
C61    C     0.63061   0.70894   0.00000   0.00000  Uiso   1.00
H62    H     0.66354   0.72730   0.00000   0.00000  Uiso   1.00
O63    O     0.28850   0.70176   0.00000   0.00000  Uiso   1.00
C64    C     0.30850   0.68559   0.00000   0.00000  Uiso   1.00
C65    C     0.35262   0.71132   0.00000   0.00000  Uiso   1.00
H66    H     0.34687   0.76202   0.00000   0.00000  Uiso   1.00
C67    C     0.36786   0.75159   0.00000   0.00000  Uiso   1.00
N68    N     0.40956   0.78154   0.00000   0.00000  Uiso   1.00
H69    H     0.43106   0.77318   0.00000   0.00000  Uiso   1.00
C70    C     0.42497   0.82395   0.00000   0.00000  Uiso   1.00
H71    H     0.48567   0.83717   0.00000   0.00000  Uiso   1.00
C72    C     0.46600   0.84945   0.00000   0.00000  Uiso   1.00
C73    C     0.40086   0.84119   0.00000   0.00000  Uiso   1.00
H74    H     0.36883   0.82356   0.00000   0.00000  Uiso   1.00
H75    H     0.39811   0.89265   0.00000   0.00000  Uiso   1.00
C76    C     0.41777   0.88259   0.00000   0.00000  Uiso   1.00
C77    C     0.48248   0.89080   0.00000   0.00000  Uiso   1.00
H78    H     0.51430   0.90581   0.00000   0.00000  Uiso   1.00
C79    C     0.45857   0.90957   0.00000   0.00000  Uiso   1.00
C80    C     0.47630   0.95566   0.00000   0.00000  Uiso   1.00
H81    H     0.53433   0.96285   0.00000   0.00000  Uiso   1.00
C82    C     0.51846   0.97845   0.00000   0.00000  Uiso   1.00
C83    C     0.45668   0.97932   0.00000   0.00000  Uiso   1.00
C84    C     0.41265   0.97101   0.00000   0.00000  Uiso   1.00
S85    S     0.36312   0.92656   0.00000   0.00000  Uiso   1.00
C86    C     0.33506   0.95257   0.00000   0.00000  Uiso   1.00
C87    C     0.29106   0.92167   0.00000   0.00000  Uiso   1.00
H88    H     0.27270   0.93624   0.00000   0.00000  Uiso   1.00
O89    O     0.29824   0.58674   0.00000   0.00000  Uiso   1.00
C90    C     0.31441   0.62291   0.00000   0.00000  Uiso   1.00
C91    C     0.28868   0.64130   0.00000   0.00000  Uiso   1.00
H92    H     0.23798   0.58485   0.00000   0.00000  Uiso   1.00
C93    C     0.24841   0.61627   0.00000   0.00000  Uiso   1.00
N94    N     0.21846   0.62802   0.00000   0.00000  Uiso   1.00
H95    H     0.22682   0.65788   0.00000   0.00000  Uiso   1.00
C96    C     0.17605   0.60102   0.00000   0.00000  Uiso   1.00
H97    H     0.16283   0.64850   0.00000   0.00000  Uiso   1.00
C98    C     0.15055   0.61655   0.00000   0.00000  Uiso   1.00
C99    C     0.15881   0.55967   0.00000   0.00000  Uiso   1.00
H100   H     0.17644   0.54527   0.00000   0.00000  Uiso   1.00
H101   H     0.10735   0.50546   0.00000   0.00000  Uiso   1.00
C102   C     0.11741   0.53518   0.00000   0.00000  Uiso   1.00
C103   C     0.10920   0.59168   0.00000   0.00000  Uiso   1.00
H104   H     0.09419   0.60849   0.00000   0.00000  Uiso   1.00
C105   C     0.09043   0.54900   0.00000   0.00000  Uiso   1.00
C106   C     0.04434   0.52064   0.00000   0.00000  Uiso   1.00
H107   H     0.03715   0.57148   0.00000   0.00000  Uiso   1.00
C108   C     0.02155   0.54001   0.00000   0.00000  Uiso   1.00
C109   C     0.02068   0.47736   0.00000   0.00000  Uiso   1.00
C110   C     0.02899   0.44164   0.00000   0.00000  Uiso   1.00
S111   S     0.07344   0.43656   0.00000   0.00000  Uiso   1.00
C112   C     0.04743   0.38249   0.00000   0.00000  Uiso   1.00
C113   C     0.07833   0.36939   0.00000   0.00000  Uiso   1.00
H114   H     0.06376   0.33646   0.00000   0.00000  Uiso   1.00
O115   O     0.58674   0.28850   0.00000   0.00000  Uiso   1.00
C116   C     0.62291   0.30850   0.00000   0.00000  Uiso   1.00
C117   C     0.64130   0.35262   0.00000   0.00000  Uiso   1.00
H118   H     0.58485   0.34687   0.00000   0.00000  Uiso   1.00
C119   C     0.61627   0.36786   0.00000   0.00000  Uiso   1.00
N120   N     0.62802   0.40956   0.00000   0.00000  Uiso   1.00
H121   H     0.65788   0.43106   0.00000   0.00000  Uiso   1.00
C122   C     0.60102   0.42497   0.00000   0.00000  Uiso   1.00
H123   H     0.64850   0.48567   0.00000   0.00000  Uiso   1.00
C124   C     0.61655   0.46600   0.00000   0.00000  Uiso   1.00
C125   C     0.55967   0.40086   0.00000   0.00000  Uiso   1.00
H126   H     0.54527   0.36883   0.00000   0.00000  Uiso   1.00
H127   H     0.50546   0.39811   0.00000   0.00000  Uiso   1.00
C128   C     0.53518   0.41777   0.00000   0.00000  Uiso   1.00
C129   C     0.59168   0.48248   0.00000   0.00000  Uiso   1.00
H130   H     0.60849   0.51430   0.00000   0.00000  Uiso   1.00
C131   C     0.54900   0.45857   0.00000   0.00000  Uiso   1.00
C132   C     0.52064   0.47630   0.00000   0.00000  Uiso   1.00
H133   H     0.57148   0.53433   0.00000   0.00000  Uiso   1.00
C134   C     0.54001   0.51846   0.00000   0.00000  Uiso   1.00
C135   C     0.47736   0.45668   0.00000   0.00000  Uiso   1.00
C136   C     0.44164   0.41265   0.00000   0.00000  Uiso   1.00
S137   S     0.43656   0.36312   0.00000   0.00000  Uiso   1.00
C138   C     0.38249   0.33506   0.00000   0.00000  Uiso   1.00
C139   C     0.36939   0.29106   0.00000   0.00000  Uiso   1.00
H140   H     0.33646   0.27270   0.00000   0.00000  Uiso   1.00
O141   O     0.71150   0.29824   0.00000   0.00000  Uiso   1.00
C142   C     0.69150   0.31441   0.00000   0.00000  Uiso   1.00
C143   C     0.64738   0.28868   0.00000   0.00000  Uiso   1.00
H144   H     0.65313   0.23798   0.00000   0.00000  Uiso   1.00
C145   C     0.63214   0.24841   0.00000   0.00000  Uiso   1.00
N146   N     0.59044   0.21846   0.00000   0.00000  Uiso   1.00
H147   H     0.56894   0.22682   0.00000   0.00000  Uiso   1.00
C148   C     0.57503   0.17605   0.00000   0.00000  Uiso   1.00
H149   H     0.51433   0.16283   0.00000   0.00000  Uiso   1.00
C150   C     0.53400   0.15055   0.00000   0.00000  Uiso   1.00
C151   C     0.59914   0.15881   0.00000   0.00000  Uiso   1.00
H152   H     0.63117   0.17644   0.00000   0.00000  Uiso   1.00
H153   H     0.60189   0.10735   0.00000   0.00000  Uiso   1.00
C154   C     0.58223   0.11741   0.00000   0.00000  Uiso   1.00
C155   C     0.51752   0.10920   0.00000   0.00000  Uiso   1.00
H156   H     0.48570   0.09419   0.00000   0.00000  Uiso   1.00
C157   C     0.54143   0.09043   0.00000   0.00000  Uiso   1.00
C158   C     0.52370   0.04434   0.00000   0.00000  Uiso   1.00
H159   H     0.46567   0.03715   0.00000   0.00000  Uiso   1.00
C160   C     0.48154   0.02155   0.00000   0.00000  Uiso   1.00
C161   C     0.54332   0.02068   0.00000   0.00000  Uiso   1.00
C162   C     0.58735   0.02899   0.00000   0.00000  Uiso   1.00
S163   S     0.63688   0.07344   0.00000   0.00000  Uiso   1.00
C164   C     0.66494   0.04743   0.00000   0.00000  Uiso   1.00
C165   C     0.70894   0.07833   0.00000   0.00000  Uiso   1.00
H166   H     0.72730   0.06376   0.00000   0.00000  Uiso   1.00
O167   O     0.70176   0.41326   0.00000   0.00000  Uiso   1.00
C168   C     0.68559   0.37709   0.00000   0.00000  Uiso   1.00
C169   C     0.71132   0.35870   0.00000   0.00000  Uiso   1.00
H170   H     0.76202   0.41515   0.00000   0.00000  Uiso   1.00
C171   C     0.75159   0.38373   0.00000   0.00000  Uiso   1.00
N172   N     0.78154   0.37198   0.00000   0.00000  Uiso   1.00
H173   H     0.77318   0.34212   0.00000   0.00000  Uiso   1.00
C174   C     0.82395   0.39898   0.00000   0.00000  Uiso   1.00
H175   H     0.83717   0.35150   0.00000   0.00000  Uiso   1.00
C176   C     0.84945   0.38345   0.00000   0.00000  Uiso   1.00
C177   C     0.84119   0.44033   0.00000   0.00000  Uiso   1.00
H178   H     0.82356   0.45473   0.00000   0.00000  Uiso   1.00
H179   H     0.89265   0.49454   0.00000   0.00000  Uiso   1.00
C180   C     0.88259   0.46482   0.00000   0.00000  Uiso   1.00
C181   C     0.89080   0.40832   0.00000   0.00000  Uiso   1.00
H182   H     0.90581   0.39151   0.00000   0.00000  Uiso   1.00
C183   C     0.90957   0.45100   0.00000   0.00000  Uiso   1.00
C184   C     0.95566   0.47936   0.00000   0.00000  Uiso   1.00
H185   H     0.96285   0.42852   0.00000   0.00000  Uiso   1.00
C186   C     0.97845   0.45999   0.00000   0.00000  Uiso   1.00
C187   C     0.97932   0.52264   0.00000   0.00000  Uiso   1.00
C188   C     0.97101   0.55836   0.00000   0.00000  Uiso   1.00
S189   S     0.92656   0.56344   0.00000   0.00000  Uiso   1.00
C190   C     0.95257   0.61751   0.00000   0.00000  Uiso   1.00
C191   C     0.92167   0.63061   0.00000   0.00000  Uiso   1.00
H192   H     0.93624   0.66354   0.00000   0.00000  Uiso   1.00
loop_
_geom_bond_atom_site_label_1
_geom_bond_atom_site_label_2
_geom_bond_distance
_geom_bond_site_symmetry_2
_ccdc_geom_bond_type
H1     C58     1.109   .     S
H2     C60     1.108   .     S
H3     C61     1.107   .     S
H4     C84     1.109   .     S
H5     C86     1.108   .     S
H6     C87     1.107   .     S
H7     C110    1.109   .     S
H8     C112    1.108   .     S
H9     C113    1.107   .     S
H10    C136    1.109   .     S
H11    C138    1.108   .     S
H12    C139    1.107   .     S
H13    C162    1.109   .     S
H14    C164    1.108   .     S
H15    C165    1.107   .     S
H16    C188    1.109   .     S
H17    C190    1.108   .     S
H18    C191    1.107   .     S
H19    C136    1.109   .     S
H20    C138    1.108   .     S
H21    C139    1.107   .     S
H22    C162    1.109   .     S
H23    C164    1.108   .     S
H24    C165    1.107   .     S
H25    C188    1.109   .     S
H26    C190    1.108   .     S
H27    C191    1.107   .     S
H28    C58     1.109   .     S
H29    C60     1.108   .     S
H30    C61     1.107   .     S
H31    C84     1.109   .     S
H32    C86     1.108   .     S
H33    C87     1.107   .     S
H34    C110    1.109   .     S
H35    C112    1.108   .     S
H36    C113    1.107   .     S
O37    C38     1.218   .     D
C38    C39     1.490   .     S
C38    C65     1.492   .     S
C39    C41     1.367   .     D
C39    C90     1.492   .     S
H40    C41     1.076   .     S
C41    N42     1.446   .     S
N42    H43     1.036   .     S
N42    C44     1.443   .     S
C44    C46     1.393   .     D
C44    C47     1.397   .     S
H45    C46     1.084   .     S
C46    C51     1.400   .     S
C47    H48     1.079   .     S
C47    C50     1.400   .     D
H49    C50     1.016   .     S
C50    C53     1.395   .     S
C51    H52     1.070   .     S
C51    C53     1.438   .     D
C53    C54     1.563   .     S
C54    C56     1.419   .     S
C54    C57     1.457   .     D
H55    C56     1.058   .     S
C56    C135    1.427   .     D
C57    C58     1.573   .     S
C57    C134    1.427   .     S
C58    S59     1.832   .     S
S59    C60     1.818   .     S
C60    C61     1.519   .     S
C61    H62     1.110   .     S
O63    C64     1.218   .     D
C64    C65     1.490   .     S
C64    C91     1.492   .     S
C65    C67     1.367   .     D
H66    C67     1.076   .     S
C67    N68     1.446   .     S
N68    H69     1.036   .     S
N68    C70     1.443   .     S
C70    C72     1.393   .     D
C70    C73     1.397   .     S
H71    C72     1.084   .     S
C72    C77     1.400   .     S
C73    H74     1.079   .     S
C73    C76     1.400   .     D
H75    C76     1.016   .     S
C76    C79     1.395   .     S
C77    H78     1.070   .     S
C77    C79     1.438   .     D
C79    C80     1.563   .     S
C80    C82     1.419   .     S
C80    C83     1.457   .     D
H81    C82     1.058   .     S
C82    C161    1.427   1_565 D
C83    C84     1.573   .     S
C83    C160    1.427   1_565 S
C84    S85     1.832   .     S
S85    C86     1.818   .     S
C86    C87     1.519   .     S
C87    H88     1.110   .     S
O89    C90     1.218   .     D
C90    C91     1.490   .     S
C91    C93     1.367   .     D
H92    C93     1.076   .     S
C93    N94     1.446   .     S
N94    H95     1.036   .     S
N94    C96     1.443   .     S
C96    C98     1.393   .     D
C96    C99     1.397   .     S
H97    C98     1.084   .     S
C98    C103    1.400   .     S
C99    H100    1.079   .     S
C99    C102    1.400   .     D
H101   C102    1.016   .     S
C102   C105    1.395   .     S
C103   H104    1.070   .     S
C103   C105    1.438   .     D
C105   C106    1.563   .     S
C106   C108    1.419   .     D
C106   C109    1.457   .     S
H107   C108    1.058   .     S
C108   C187    1.427   1_455 S
C109   C110    1.573   .     S
C109   C186    1.427   1_455 D
C110   S111    1.832   .     S
S111   C112    1.818   .     S
C112   C113    1.519   .     S
C113   H114    1.110   .     S
O115   C116    1.218   .     D
C116   C117    1.490   .     S
C116   C143    1.492   .     S
C117   C119    1.367   .     D
C117   C168    1.492   .     S
H118   C119    1.076   .     S
C119   N120    1.446   .     S
N120   H121    1.036   .     S
N120   C122    1.443   .     S
C122   C124    1.393   .     D
C122   C125    1.397   .     S
H123   C124    1.084   .     S
C124   C129    1.400   .     S
C125   H126    1.079   .     S
C125   C128    1.400   .     D
H127   C128    1.016   .     S
C128   C131    1.395   .     S
C129   H130    1.070   .     S
C129   C131    1.438   .     D
C131   C132    1.563   .     S
C132   C134    1.419   .     D
C132   C135    1.457   .     S
H133   C134    1.058   .     S
C135   C136    1.573   .     S
C136   S137    1.832   .     S
S137   C138    1.818   .     S
C138   C139    1.519   .     S
C139   H140    1.110   .     S
O141   C142    1.218   .     D
C142   C143    1.490   .     S
C142   C169    1.492   .     S
C143   C145    1.367   .     D
H144   C145    1.076   .     S
C145   N146    1.446   .     S
N146   H147    1.036   .     S
N146   C148    1.443   .     S
C148   C150    1.393   .     D
C148   C151    1.397   .     S
H149   C150    1.084   .     S
C150   C155    1.400   .     S
C151   H152    1.079   .     S
C151   C154    1.400   .     D
H153   C154    1.016   .     S
C154   C157    1.395   .     S
C155   H156    1.070   .     S
C155   C157    1.438   .     D
C157   C158    1.563   .     S
C158   C160    1.419   .     D
C158   C161    1.457   .     S
H159   C160    1.058   .     S
C160   C83     1.427   1_545 S
C161   C82     1.427   1_545 D
C161   C162    1.573   .     S
C162   S163    1.832   .     S
S163   C164    1.818   .     S
C164   C165    1.519   .     S
C165   H166    1.110   .     S
O167   C168    1.218   .     D
C168   C169    1.490   .     S
C169   C171    1.367   .     D
H170   C171    1.076   .     S
C171   N172    1.446   .     S
N172   H173    1.036   .     S
N172   C174    1.443   .     S
C174   C176    1.393   .     D
C174   C177    1.397   .     S
H175   C176    1.084   .     S
C176   C181    1.400   .     S
C177   H178    1.079   .     S
C177   C180    1.400   .     D
H179   C180    1.016   .     S
C180   C183    1.395   .     S
C181   H182    1.070   .     S
C181   C183    1.438   .     D
C183   C184    1.563   .     S
C184   C186    1.419   .     S
C184   C187    1.457   .     D
H185   C186    1.058   .     S
C186   C109    1.427   1_655 D
C187   C108    1.427   1_655 S
C187   C188    1.573   .     S
C188   S189    1.832   .     S
S189   C190    1.818   .     S
C190   C191    1.519   .     S
C191   H192    1.110   .     S
