data_507
_audit_creation_date              2023-09-08
_audit_creation_method            'Materials Studio'
_symmetry_space_group_name_H-M    'P1'
_symmetry_Int_Tables_number       1
_symmetry_cell_setting            triclinic
loop_
_symmetry_equiv_pos_as_xyz
  x,y,z
_cell_length_a                    25.0222
_cell_length_b                    25.0222
_cell_length_c                    4.1500
_cell_angle_alpha                 90.0000
_cell_angle_beta                  90.0000
_cell_angle_gamma                 120.0000
loop_
_atom_site_label
_atom_site_type_symbol
_atom_site_fract_x
_atom_site_fract_y
_atom_site_fract_z
_atom_site_U_iso_or_equiv
_atom_site_adp_type
_atom_site_occupancy
C1     C     0.36830   0.63817  -0.09704   0.00000  Uiso   1.00
C2     C     0.40401   0.60825  -0.03686   0.00000  Uiso   1.00
C3     C     0.39006   0.57164   0.19300   0.00000  Uiso   1.00
C4     C     0.41909   0.53922   0.24338   0.00000  Uiso   1.00
C5     C     0.46568   0.54573   0.07351   0.00000  Uiso   1.00
C6     C     0.48083   0.58350  -0.15078   0.00000  Uiso   1.00
C7     C     0.44963   0.61345  -0.20880   0.00000  Uiso   1.00
N8     N     0.49870   0.51522   0.11857   0.00000  Uiso   1.00
C9     C     0.49049   0.47742   0.31029   0.00000  Uiso   1.00
C10    C     0.52812   0.44938   0.32667   0.00000  Uiso   1.00
C11    C     0.51467   0.40435   0.51842   0.00000  Uiso   1.00
C12    C     0.54882   0.37616   0.53289   0.00000  Uiso   1.00
C13    C     0.59750   0.39311   0.35785   0.00000  Uiso   1.00
C14    C     0.61148   0.43872   0.16834   0.00000  Uiso   1.00
C15    C     0.57699   0.46647   0.15200   0.00000  Uiso   1.00
C16    C     0.63296   0.36253   0.36858   0.00000  Uiso   1.00
C17    C     0.69568   0.39584   0.36918   0.00000  Uiso   1.00
C18    C     0.39675   0.70158  -0.10685   0.00000  Uiso   1.00
C19    C     0.46456   0.73853  -0.13017   0.00000  Uiso   1.00
H20    H     0.60929   0.08675   0.65623   0.00000  Uiso   1.00
H21    H     0.65849   0.19609   0.68254   0.00000  Uiso   1.00
H22    H     0.54804   0.19636   0.02869   0.00000  Uiso   1.00
H23    H     0.49904   0.08743   0.00144   0.00000  Uiso   1.00
H24    H     0.43317   0.78837   0.33014   0.00000  Uiso   1.00
H25    H     0.48983   0.89491   0.41739   0.00000  Uiso   1.00
H26    H     0.41154   0.92755  -0.28610   0.00000  Uiso   1.00
H27    H     0.36091   0.82121  -0.39294   0.00000  Uiso   1.00
H28    H     0.53513   0.99068   0.45881   0.00000  Uiso   1.00
H29    H     0.72611   0.28185   0.36632   0.00000  Uiso   1.00
H30    H     0.27104   0.75707   0.04221   0.00000  Uiso   1.00
H31    H     0.21264   0.69540  -0.13889   0.00000  Uiso   1.00
H32    H     0.27113   0.75033  -0.32415   0.00000  Uiso   1.00
C33    C     0.36183   0.73013  -0.09704   0.00000  Uiso   1.00
C34    C     0.39175   0.79576  -0.03686   0.00000  Uiso   1.00
C35    C     0.42836   0.81842   0.19300   0.00000  Uiso   1.00
C36    C     0.46078   0.87987   0.24338   0.00000  Uiso   1.00
C37    C     0.45427   0.91995   0.07351   0.00000  Uiso   1.00
C38    C     0.41650   0.89733  -0.15078   0.00000  Uiso   1.00
C39    C     0.38655   0.83618  -0.20880   0.00000  Uiso   1.00
N40    N     0.48478   0.98348   0.11857   0.00000  Uiso   1.00
C41    C     0.52258   0.01307   0.31029   0.00000  Uiso   1.00
C42    C     0.55062   0.07874   0.32667   0.00000  Uiso   1.00
C43    C     0.59565   0.11032   0.51842   0.00000  Uiso   1.00
C44    C     0.62384   0.17266   0.53289   0.00000  Uiso   1.00
C45    C     0.60689   0.20439   0.35785   0.00000  Uiso   1.00
C46    C     0.56128   0.17276   0.16834   0.00000  Uiso   1.00
C47    C     0.53353   0.11052   0.15200   0.00000  Uiso   1.00
C48    C     0.63747   0.27043   0.36858   0.00000  Uiso   1.00
C49    C     0.60416   0.29984   0.36918   0.00000  Uiso   1.00
C50    C     0.29842   0.69517  -0.10685   0.00000  Uiso   1.00
C51    C     0.26147   0.72603  -0.13017   0.00000  Uiso   1.00
H52    H     0.91325   0.52254   0.65623   0.00000  Uiso   1.00
H53    H     0.80391   0.46240   0.68254   0.00000  Uiso   1.00
H54    H     0.80364   0.35168   0.02869   0.00000  Uiso   1.00
H55    H     0.91257   0.41161   0.00144   0.00000  Uiso   1.00
H56    H     0.21163   0.64480   0.33014   0.00000  Uiso   1.00
H57    H     0.10509   0.59492   0.41739   0.00000  Uiso   1.00
H58    H     0.07245   0.48399  -0.28610   0.00000  Uiso   1.00
H59    H     0.17879   0.53970  -0.39294   0.00000  Uiso   1.00
H60    H     0.00932   0.54445   0.45881   0.00000  Uiso   1.00
H61    H     0.71815   0.44426   0.36632   0.00000  Uiso   1.00
H62    H     0.24293   0.51397   0.04221   0.00000  Uiso   1.00
H63    H     0.30460   0.51724  -0.13889   0.00000  Uiso   1.00
H64    H     0.24967   0.52080  -0.32415   0.00000  Uiso   1.00
C65    C     0.26987   0.63170  -0.09704   0.00000  Uiso   1.00
C66    C     0.20424   0.59599  -0.03686   0.00000  Uiso   1.00
C67    C     0.18158   0.60994   0.19300   0.00000  Uiso   1.00
C68    C     0.12013   0.58091   0.24338   0.00000  Uiso   1.00
C69    C     0.08005   0.53432   0.07351   0.00000  Uiso   1.00
C70    C     0.10267   0.51917  -0.15078   0.00000  Uiso   1.00
C71    C     0.16382   0.55037  -0.20880   0.00000  Uiso   1.00
N72    N     0.01652   0.50130   0.11857   0.00000  Uiso   1.00
C73    C     0.98693   0.50951   0.31029   0.00000  Uiso   1.00
C74    C     0.92126   0.47188   0.32667   0.00000  Uiso   1.00
C75    C     0.88968   0.48533   0.51842   0.00000  Uiso   1.00
C76    C     0.82734   0.45118   0.53289   0.00000  Uiso   1.00
C77    C     0.79561   0.40250   0.35785   0.00000  Uiso   1.00
C78    C     0.82724   0.38852   0.16834   0.00000  Uiso   1.00
C79    C     0.88948   0.42301   0.15200   0.00000  Uiso   1.00
C80    C     0.72957   0.36704   0.36858   0.00000  Uiso   1.00
C81    C     0.70016   0.30432   0.36918   0.00000  Uiso   1.00
C82    C     0.30483   0.60325  -0.10685   0.00000  Uiso   1.00
C83    C     0.27397   0.53544  -0.13017   0.00000  Uiso   1.00
H84    H     0.47746   0.39071   0.65623   0.00000  Uiso   1.00
H85    H     0.53760   0.34151   0.68254   0.00000  Uiso   1.00
H86    H     0.64832   0.45196   0.02869   0.00000  Uiso   1.00
H87    H     0.58839   0.50096   0.00144   0.00000  Uiso   1.00
H88    H     0.35520   0.56683   0.33014   0.00000  Uiso   1.00
H89    H     0.40508   0.51017   0.41739   0.00000  Uiso   1.00
H90    H     0.51601   0.58846  -0.28610   0.00000  Uiso   1.00
H91    H     0.46030   0.63909  -0.39294   0.00000  Uiso   1.00
H92    H     0.45555   0.46487   0.45881   0.00000  Uiso   1.00
H93    H     0.55574   0.27389   0.36632   0.00000  Uiso   1.00
H94    H     0.48603   0.72896   0.04221   0.00000  Uiso   1.00
H95    H     0.48276   0.78736  -0.13889   0.00000  Uiso   1.00
H96    H     0.47920   0.72887  -0.32415   0.00000  Uiso   1.00
loop_
_geom_bond_atom_site_label_1
_geom_bond_atom_site_label_2
_geom_bond_distance
_geom_bond_site_symmetry_2
_ccdc_geom_bond_type
C1     C2      1.446   .     S
C1     C18     1.377   .     D
C1     C82     1.378   .     S
C2     C3      1.245   .     S
C2     C7      1.296   .     D
C3     C4      1.349   .     D
C3     H88     0.997   .     S
C4     C5      1.301   .     S
C4     H89     0.958   .     S
C5     C6      1.243   .     D
C5     N8      1.390   .     S
C6     C7      1.347   .     S
C6     H90     0.998   .     S
C7     H91     0.946   .     S
N8     C9      1.173   .     D
C9     C10     1.430   .     S
C9     H92     0.984   .     S
C10    C11     1.279   .     S
C10    C15     1.296   .     D
C11    C12     1.354   .     D
C11    H84     0.996   .     S
C12    C13     1.294   .     S
C12    H85     0.986   .     S
C13    C14     1.282   .     D
C13    C16     1.433   .     S
C14    C15     1.353   .     S
C14    H86     0.995   .     S
C15    H87     0.985   .     S
C16    C17     1.360   .     D
C16    C49     1.360   .     S
C17    H61     1.050   .     S
C17    C80     1.360   .     S
C18    C19     1.475   .     S
C18    C33     1.378   .     S
C19    H94     0.993   .     S
C19    H95     1.070   .     S
C19    H96     0.964   .     S
H20    C43     0.996   .     S
H21    C44     0.986   .     S
H22    C46     0.995   .     S
H23    C47     0.985   .     S
H24    C35     0.997   .     S
H25    C36     0.958   .     S
H26    C38     0.998   .     S
H27    C39     0.946   .     S
H28    C41     0.984   1_565 S
H29    C81     1.050   .     S
H30    C51     0.993   .     S
H31    C51     1.070   .     S
H32    C51     0.964   .     S
C33    C34     1.446   .     S
C33    C50     1.377   .     D
C34    C35     1.245   .     S
C34    C39     1.296   .     D
C35    C36     1.349   .     D
C36    C37     1.301   .     S
C37    C38     1.243   .     D
C37    N40     1.390   .     S
C38    C39     1.347   .     S
N40    C41     1.173   1_565 D
C41    N40     1.173   1_545 D
C41    H28     0.984   1_545 S
C41    C42     1.430   .     S
C42    C43     1.279   .     D
C42    C47     1.296   .     S
C43    C44     1.354   .     S
C44    C45     1.294   .     D
C45    C46     1.282   .     S
C45    C48     1.433   .     S
C46    C47     1.353   .     D
C48    C49     1.360   .     D
C48    C81     1.360   .     S
C49    H93     1.050   .     S
C50    C51     1.475   .     S
C50    C65     1.378   .     S
H52    C75     0.996   .     S
H53    C76     0.986   .     S
H54    C78     0.995   .     S
H55    C79     0.985   .     S
H56    C67     0.997   .     S
H57    C68     0.958   .     S
H58    C70     0.998   .     S
H59    C71     0.946   .     S
H60    C73     0.984   1_455 S
H62    C83     0.993   .     S
H63    C83     1.070   .     S
H64    C83     0.964   .     S
C65    C66     1.446   .     S
C65    C82     1.377   .     D
C66    C67     1.245   .     D
C66    C71     1.296   .     S
C67    C68     1.349   .     S
C68    C69     1.301   .     D
C69    C70     1.243   .     S
C69    N72     1.390   .     S
C70    C71     1.347   .     D
N72    C73     1.173   1_455 D
C73    N72     1.173   1_655 D
C73    H60     0.984   1_655 S
C73    C74     1.430   .     S
C74    C75     1.279   .     D
C74    C79     1.296   .     S
C75    C76     1.354   .     S
C76    C77     1.294   .     D
C77    C78     1.282   .     S
C77    C80     1.433   .     S
C78    C79     1.353   .     D
C80    C81     1.360   .     D
C82    C83     1.475   .     S
