data_508
_audit_creation_date              2023-09-08
_audit_creation_method            'Materials Studio'
_symmetry_space_group_name_H-M    'P1'
_symmetry_Int_Tables_number       1
_symmetry_cell_setting            triclinic
loop_
_symmetry_equiv_pos_as_xyz
  x,y,z
_cell_length_a                    20.9239
_cell_length_b                    20.9239
_cell_length_c                    3.9196
_cell_angle_alpha                 90.0000
_cell_angle_beta                  90.0000
_cell_angle_gamma                 120.0000
loop_
_atom_site_label
_atom_site_type_symbol
_atom_site_fract_x
_atom_site_fract_y
_atom_site_fract_z
_atom_site_U_iso_or_equiv
_atom_site_adp_type
_atom_site_occupancy
C1     C     0.37183   0.62668  -0.14702   0.00000  Uiso   1.00
C2     C     0.44030   0.65566   0.02069   0.00000  Uiso   1.00
C3     C     0.47739   0.61641   0.04039   0.00000  Uiso   1.00
C4     C     0.44703   0.54521  -0.10145   0.00000  Uiso   1.00
C5     C     0.37933   0.51706  -0.27493   0.00000  Uiso   1.00
C6     C     0.34261   0.55670  -0.29826   0.00000  Uiso   1.00
N7     N     0.47799   0.49950  -0.08907   0.00000  Uiso   1.00
C8     C     0.63324   0.37813   0.11562   0.00000  Uiso   1.00
C9     C     0.56491   0.35436  -0.04723   0.00000  Uiso   1.00
C10    C     0.53258   0.39806  -0.05113   0.00000  Uiso   1.00
C11    C     0.56711   0.46782   0.10666   0.00000  Uiso   1.00
C12    C     0.63490   0.49130   0.27129   0.00000  Uiso   1.00
C13    C     0.66744   0.44752   0.27560   0.00000  Uiso   1.00
C14    C     0.53452   0.51509   0.09967   0.00000  Uiso   1.00
H15    H     0.46453   0.70984   0.13806   0.00000  Uiso   1.00
H16    H     0.52958   0.64108   0.17815   0.00000  Uiso   1.00
H17    H     0.35684   0.46312  -0.39568   0.00000  Uiso   1.00
H18    H     0.29058   0.53325  -0.43510   0.00000  Uiso   1.00
H19    H     0.53735   0.30091  -0.17221   0.00000  Uiso   1.00
H20    H     0.48058   0.38012  -0.18395   0.00000  Uiso   1.00
H21    H     0.66190   0.54424   0.40395   0.00000  Uiso   1.00
H22    H     0.71980   0.46693   0.40556   0.00000  Uiso   1.00
H23    H     0.56151   0.56430   0.26512   0.00000  Uiso   1.00
C24    C     0.37332   0.74515  -0.14702   0.00000  Uiso   1.00
C25    C     0.34434   0.78464   0.02069   0.00000  Uiso   1.00
C26    C     0.38359   0.86098   0.04039   0.00000  Uiso   1.00
C27    C     0.45479   0.90182  -0.10145   0.00000  Uiso   1.00
C28    C     0.48294   0.86227  -0.27493   0.00000  Uiso   1.00
C29    C     0.44330   0.78591  -0.29826   0.00000  Uiso   1.00
N30    N     0.50050   0.97849  -0.08907   0.00000  Uiso   1.00
C31    C     0.62187   0.25511   0.11562   0.00000  Uiso   1.00
C32    C     0.64564   0.21055  -0.04723   0.00000  Uiso   1.00
C33    C     0.60194   0.13452  -0.05113   0.00000  Uiso   1.00
C34    C     0.53218   0.09929   0.10666   0.00000  Uiso   1.00
C35    C     0.50870   0.14360   0.27129   0.00000  Uiso   1.00
C36    C     0.55248   0.21992   0.27560   0.00000  Uiso   1.00
C37    C     0.48491   0.01943   0.09967   0.00000  Uiso   1.00
H38    H     0.29016   0.75469   0.13806   0.00000  Uiso   1.00
H39    H     0.35892   0.88850   0.17815   0.00000  Uiso   1.00
H40    H     0.53688   0.89372  -0.39568   0.00000  Uiso   1.00
H41    H     0.46675   0.75733  -0.43510   0.00000  Uiso   1.00
H42    H     0.69909   0.23644  -0.17221   0.00000  Uiso   1.00
H43    H     0.61988   0.10046  -0.18395   0.00000  Uiso   1.00
H44    H     0.45576   0.11766   0.40395   0.00000  Uiso   1.00
H45    H     0.53307   0.25287   0.40556   0.00000  Uiso   1.00
H46    H     0.43570   0.99721   0.26512   0.00000  Uiso   1.00
C47    C     0.25485   0.62817  -0.14702   0.00000  Uiso   1.00
C48    C     0.21536   0.55970   0.02069   0.00000  Uiso   1.00
C49    C     0.13902   0.52261   0.04039   0.00000  Uiso   1.00
C50    C     0.09818   0.55297  -0.10145   0.00000  Uiso   1.00
C51    C     0.13773   0.62067  -0.27493   0.00000  Uiso   1.00
C52    C     0.21409   0.65739  -0.29826   0.00000  Uiso   1.00
N53    N     0.02151   0.52201  -0.08907   0.00000  Uiso   1.00
C54    C     0.74489   0.36676   0.11562   0.00000  Uiso   1.00
C55    C     0.78945   0.43509  -0.04723   0.00000  Uiso   1.00
C56    C     0.86548   0.46742  -0.05113   0.00000  Uiso   1.00
C57    C     0.90071   0.43289   0.10666   0.00000  Uiso   1.00
C58    C     0.85640   0.36510   0.27129   0.00000  Uiso   1.00
C59    C     0.78008   0.33256   0.27560   0.00000  Uiso   1.00
C60    C     0.98057   0.46548   0.09967   0.00000  Uiso   1.00
H61    H     0.24531   0.53547   0.13806   0.00000  Uiso   1.00
H62    H     0.11150   0.47042   0.17815   0.00000  Uiso   1.00
H63    H     0.10628   0.64316  -0.39568   0.00000  Uiso   1.00
H64    H     0.24267   0.70942  -0.43510   0.00000  Uiso   1.00
H65    H     0.76356   0.46265  -0.17221   0.00000  Uiso   1.00
H66    H     0.89954   0.51942  -0.18395   0.00000  Uiso   1.00
H67    H     0.88234   0.33810   0.40395   0.00000  Uiso   1.00
H68    H     0.74713   0.28020   0.40556   0.00000  Uiso   1.00
H69    H     0.00279   0.43849   0.26512   0.00000  Uiso   1.00
N70    N     0.66667   0.33333   0.11601   0.00000  Uiso   1.00
N71    N     0.33333   0.66667  -0.16010   0.00000  Uiso   1.00
loop_
_geom_bond_atom_site_label_1
_geom_bond_atom_site_label_2
_geom_bond_distance
_geom_bond_site_symmetry_2
_ccdc_geom_bond_type
C1     C2      1.408   .     S
C1     C6      1.405   .     D
C1     N71     1.423   .     S
C2     C3      1.386   .     D
C2     H15     1.086   .     S
C3     C4      1.409   .     S
C3     H16     1.089   .     S
C4     C5      1.408   .     D
C4     N7      1.399   .     S
C5     C6      1.387   .     S
C5     H17     1.090   .     S
C6     H18     1.086   .     S
N7     C14     1.291   .     D
C8     C9      1.410   .     D
C8     C13     1.405   .     S
C8     N70     1.422   .     S
C9     C10     1.383   .     S
C9     H19     1.086   .     S
C10    C11     1.407   .     D
C10    H20     1.090   .     S
C11    C12     1.405   .     S
C11    C14     1.455   .     S
C12    C13     1.388   .     D
C12    H21     1.091   .     S
C13    H22     1.086   .     S
C14    H23     1.104   .     S
C24    C25     1.408   .     D
C24    C29     1.405   .     S
C24    N71     1.423   .     S
C25    C26     1.386   .     S
C25    H38     1.086   .     S
C26    C27     1.409   .     D
C26    H39     1.089   .     S
C27    C28     1.408   .     S
C27    N30     1.399   .     S
C28    C29     1.387   .     D
C28    H40     1.090   .     S
C29    H41     1.086   .     S
N30    C37     1.291   1_565 D
C31    C32     1.410   .     D
C31    C36     1.405   .     S
C31    N70     1.422   .     S
C32    C33     1.383   .     S
C32    H42     1.086   .     S
C33    C34     1.407   .     D
C33    H43     1.090   .     S
C34    C35     1.405   .     S
C34    C37     1.455   .     S
C35    C36     1.388   .     D
C35    H44     1.091   .     S
C36    H45     1.086   .     S
C37    N30     1.291   1_545 D
C37    H46     1.104   1_545 S
H46    C37     1.104   1_565 S
C47    C48     1.408   .     D
C47    C52     1.405   .     S
C47    N71     1.423   .     S
C48    C49     1.386   .     S
C48    H61     1.086   .     S
C49    C50     1.409   .     D
C49    H62     1.089   .     S
C50    C51     1.408   .     S
C50    N53     1.399   .     S
C51    C52     1.387   .     D
C51    H63     1.090   .     S
C52    H64     1.086   .     S
N53    C60     1.291   1_455 D
C54    C55     1.410   .     D
C54    C59     1.405   .     S
C54    N70     1.422   .     S
C55    C56     1.383   .     S
C55    H65     1.086   .     S
C56    C57     1.407   .     D
C56    H66     1.090   .     S
C57    C58     1.405   .     S
C57    C60     1.455   .     S
C58    C59     1.388   .     D
C58    H67     1.091   .     S
C59    H68     1.086   .     S
C60    N53     1.291   1_655 D
C60    H69     1.104   1_655 S
H69    C60     1.104   1_455 S
