data_509
_audit_creation_date              2023-09-08
_audit_creation_method            'Materials Studio'
_symmetry_space_group_name_H-M    'P1'
_symmetry_Int_Tables_number       1
_symmetry_cell_setting            triclinic
loop_
_symmetry_equiv_pos_as_xyz
  x,y,z
_cell_length_a                    23.4586
_cell_length_b                    23.4586
_cell_length_c                    3.8991
_cell_angle_alpha                 90.0000
_cell_angle_beta                  90.0000
_cell_angle_gamma                 120.0000
loop_
_atom_site_label
_atom_site_type_symbol
_atom_site_fract_x
_atom_site_fract_y
_atom_site_fract_z
_atom_site_U_iso_or_equiv
_atom_site_adp_type
_atom_site_occupancy
C1     C     0.07127   0.03766   1.11696   0.00000  Uiso   1.00
C2     C     0.10543   0.10075   1.26378   0.00000  Uiso   1.00
C3     C     0.17398   0.13773   1.24888   0.00000  Uiso   1.00
C4     C     0.20962   0.11202   1.09054   0.00000  Uiso   1.00
C5     C     0.17607   0.04885   0.94590   0.00000  Uiso   1.00
C6     C     0.10757   0.01227   0.95781   0.00000  Uiso   1.00
N7     N     0.27967   0.15141   1.07409   0.00000  Uiso   1.00
C8     C     0.31668   0.12950   0.95583   0.00000  Uiso   1.00
C9     C     0.38807   0.17192   0.93761   0.00000  Uiso   1.00
C10    C     0.42683   0.14459   0.84567   0.00000  Uiso   1.00
C11    C     0.49518   0.18421   0.82973   0.00000  Uiso   1.00
C12    C     0.52543   0.25173   0.90324   0.00000  Uiso   1.00
C13    C     0.48610   0.27888   0.99293   0.00000  Uiso   1.00
C14    C     0.41787   0.23924   1.01075   0.00000  Uiso   1.00
C15    C     0.59771   0.29349   0.89305   0.00000  Uiso   1.00
C16    C     0.73497   0.37279   0.89335   0.00000  Uiso   1.00
H17    H     0.07713   0.12225   1.39693   0.00000  Uiso   1.00
H18    H     0.20103   0.18911   1.36620   0.00000  Uiso   1.00
H19    H     0.20484   0.02731   0.81819   0.00000  Uiso   1.00
H20    H     0.08101   0.96122   0.83658   0.00000  Uiso   1.00
H21    H     0.29363   0.07638   0.86400   0.00000  Uiso   1.00
H22    H     0.40266   0.08988   0.78355   0.00000  Uiso   1.00
H23    H     0.52682   0.16178   0.75663   0.00000  Uiso   1.00
H24    H     0.50990   0.33369   1.05180   0.00000  Uiso   1.00
H25    H     0.38632   0.26172   1.08502   0.00000  Uiso   1.00
H26    H     0.79082   0.40546   0.89384   0.00000  Uiso   1.00
C27    C     0.96234   0.03361   1.11696   0.00000  Uiso   1.00
C28    C     0.89925   0.00468   1.26378   0.00000  Uiso   1.00
C29    C     0.86227   0.03625   1.24888   0.00000  Uiso   1.00
C30    C     0.88798   0.09760   1.09054   0.00000  Uiso   1.00
C31    C     0.95115   0.12722   0.94590   0.00000  Uiso   1.00
C32    C     0.98773   0.09530   0.95781   0.00000  Uiso   1.00
N33    N     0.84859   0.12826   1.07409   0.00000  Uiso   1.00
C34    C     0.87050   0.18718   0.95583   0.00000  Uiso   1.00
C35    C     0.82808   0.21615   0.93761   0.00000  Uiso   1.00
C36    C     0.85541   0.28224   0.84567   0.00000  Uiso   1.00
C37    C     0.81579   0.31097   0.82973   0.00000  Uiso   1.00
C38    C     0.74827   0.27370   0.90324   0.00000  Uiso   1.00
C39    C     0.72112   0.20722   0.99293   0.00000  Uiso   1.00
C40    C     0.76076   0.17863   1.01075   0.00000  Uiso   1.00
C41    C     0.70651   0.30422   0.89305   0.00000  Uiso   1.00
C42    C     0.62721   0.36218   0.89335   0.00000  Uiso   1.00
H43    H     0.87775   0.95488   1.39693   0.00000  Uiso   1.00
H44    H     0.81089   0.01192   1.36620   0.00000  Uiso   1.00
H45    H     0.97269   0.17753   0.81819   0.00000  Uiso   1.00
H46    H     0.03878   0.11979   0.83658   0.00000  Uiso   1.00
H47    H     0.92362   0.21725   0.86400   0.00000  Uiso   1.00
H48    H     0.91012   0.31278   0.78355   0.00000  Uiso   1.00
H49    H     0.83822   0.36504   0.75663   0.00000  Uiso   1.00
H50    H     0.66631   0.17621   1.05180   0.00000  Uiso   1.00
H51    H     0.73828   0.12460   1.08502   0.00000  Uiso   1.00
H52    H     0.59454   0.38536   0.89384   0.00000  Uiso   1.00
C53    C     0.96639   0.92873   1.11696   0.00000  Uiso   1.00
C54    C     0.99532   0.89457   1.26378   0.00000  Uiso   1.00
C55    C     0.96375   0.82602   1.24888   0.00000  Uiso   1.00
C56    C     0.90240   0.79038   1.09054   0.00000  Uiso   1.00
C57    C     0.87278   0.82393   0.94590   0.00000  Uiso   1.00
C58    C     0.90470   0.89243   0.95781   0.00000  Uiso   1.00
N59    N     0.87174   0.72033   1.07409   0.00000  Uiso   1.00
C60    C     0.81282   0.68332   0.95583   0.00000  Uiso   1.00
C61    C     0.78385   0.61193   0.93761   0.00000  Uiso   1.00
C62    C     0.71776   0.57317   0.84567   0.00000  Uiso   1.00
C63    C     0.68903   0.50482   0.82973   0.00000  Uiso   1.00
C64    C     0.72630   0.47457   0.90324   0.00000  Uiso   1.00
C65    C     0.79278   0.51390   0.99293   0.00000  Uiso   1.00
C66    C     0.82137   0.58213   1.01075   0.00000  Uiso   1.00
C67    C     0.69578   0.40229   0.89305   0.00000  Uiso   1.00
C68    C     0.63782   0.26503   0.89335   0.00000  Uiso   1.00
H69    H     0.04512   0.92287   1.39693   0.00000  Uiso   1.00
H70    H     0.98808   0.79897   1.36620   0.00000  Uiso   1.00
H71    H     0.82247   0.79516   0.81819   0.00000  Uiso   1.00
H72    H     0.88021   0.91899   0.83658   0.00000  Uiso   1.00
H73    H     0.78275   0.70637   0.86400   0.00000  Uiso   1.00
H74    H     0.68722   0.59734   0.78355   0.00000  Uiso   1.00
H75    H     0.63496   0.47318   0.75663   0.00000  Uiso   1.00
H76    H     0.82379   0.49010   1.05180   0.00000  Uiso   1.00
H77    H     0.87540   0.61368   1.08502   0.00000  Uiso   1.00
H78    H     0.61464   0.20918   0.89384   0.00000  Uiso   1.00
N79    N     0.00000   0.00000   1.12386   0.00000  Uiso   1.00
loop_
_geom_bond_atom_site_label_1
_geom_bond_atom_site_label_2
_geom_bond_distance
_geom_bond_site_symmetry_2
_ccdc_geom_bond_type
C1     C2      1.405   .     D
C1     C6      1.404   .     S
C1     N79     1.449   .     S
C2     C3      1.395   .     S
C2     H17     1.140   .     S
C3     C4      1.396   .     D
C3     H18     1.140   .     S
C4     C5      1.403   .     S
C4     N7      1.428   .     S
C5     C6      1.393   .     D
C5     H19     1.140   .     S
C6     H20     1.140   1_545 S
N7     C8      1.295   .     D
C8     C9      1.461   .     S
C8     H21     1.140   .     S
C9     C10     1.396   .     S
C9     C14     1.400   .     D
C10    C11     1.396   .     D
C10    H22     1.140   .     S
C11    C12     1.404   .     S
C11    H23     1.140   .     S
C12    C13     1.402   .     D
C12    C15     1.475   .     S
C13    C14     1.394   .     S
C13    H24     1.140   .     S
C14    H25     1.140   .     S
C15    C42     1.400   .     D
C15    C68     1.400   .     S
C16    H26     1.140   .     S
C16    C41     1.400   .     S
C16    C67     1.400   .     D
H20    C6      1.140   1_565 S
C27    C28     1.405   .     D
C27    C32     1.404   .     S
C27    N79     1.449   1_655 S
C28    C29     1.395   .     S
C28    H43     1.140   1_545 S
C29    C30     1.396   .     D
C29    H44     1.140   .     S
C30    C31     1.403   .     S
C30    N33     1.428   .     S
C31    C32     1.393   .     D
C31    H45     1.140   .     S
C32    H46     1.140   1_655 S
N33    C34     1.295   .     D
C34    C35     1.461   .     S
C34    H47     1.140   .     S
C35    C36     1.396   .     D
C35    C40     1.400   .     S
C36    C37     1.396   .     S
C36    H48     1.140   .     S
C37    C38     1.404   .     D
C37    H49     1.140   .     S
C38    C39     1.402   .     S
C38    C41     1.475   .     S
C39    C40     1.394   .     D
C39    H50     1.140   .     S
C40    H51     1.140   .     S
C41    C68     1.400   .     D
C42    H52     1.140   .     S
C42    C67     1.400   .     S
H43    C28     1.140   1_565 S
H46    C32     1.140   1_455 S
C53    C54     1.405   .     D
C53    C58     1.404   .     S
C53    N79     1.449   1_665 S
C54    C55     1.395   .     S
C54    H69     1.140   1_655 S
C55    C56     1.396   .     D
C55    H70     1.140   .     S
C56    C57     1.403   .     S
C56    N59     1.428   .     S
C57    C58     1.393   .     D
C57    H71     1.140   .     S
C58    H72     1.140   .     S
N59    C60     1.295   .     D
C60    C61     1.461   .     S
C60    H73     1.140   .     S
C61    C62     1.396   .     S
C61    C66     1.400   .     D
C62    C63     1.396   .     D
C62    H74     1.140   .     S
C63    C64     1.404   .     S
C63    H75     1.140   .     S
C64    C65     1.402   .     D
C64    C67     1.475   .     S
C65    C66     1.394   .     S
C65    H76     1.140   .     S
C66    H77     1.140   .     S
C68    H78     1.140   .     S
H69    C54     1.140   1_455 S
N79    C27     1.449   1_455 S
N79    C53     1.449   1_445 S
