data_510
_audit_creation_date              2023-09-08
_audit_creation_method            'Materials Studio'
_symmetry_space_group_name_H-M    'P1'
_symmetry_Int_Tables_number       1
_symmetry_cell_setting            triclinic
loop_
_symmetry_equiv_pos_as_xyz
  x,y,z
_cell_length_a                    22.0101
_cell_length_b                    22.0101
_cell_length_c                    3.7504
_cell_angle_alpha                 90.0000
_cell_angle_beta                  90.0000
_cell_angle_gamma                 120.0000
loop_
_atom_site_label
_atom_site_type_symbol
_atom_site_fract_x
_atom_site_fract_y
_atom_site_fract_z
_atom_site_U_iso_or_equiv
_atom_site_adp_type
_atom_site_occupancy
N1     N     0.14306   0.86208   1.06914   0.00000  Uiso   1.00
N2     N     0.26765   0.64087   0.94637   0.00000  Uiso   1.00
C3     C     0.03785   0.96632   1.09884   0.00000  Uiso   1.00
C4     C     0.01447   0.90514   1.25258   0.00000  Uiso   1.00
C5     C     0.04994   0.87216   1.24174   0.00000  Uiso   1.00
C6     C     0.10979   0.89914   1.07710   0.00000  Uiso   1.00
C7     C     0.13448   0.96073   0.92689   0.00000  Uiso   1.00
C8     C     0.09878   0.99348   0.93798   0.00000  Uiso   1.00
C9     C     0.19673   0.87673   0.91162   0.00000  Uiso   1.00
C10    C     0.22475   0.83310   0.92651   0.00000  Uiso   1.00
C11    C     0.19042   0.77098   1.07427   0.00000  Uiso   1.00
C12    C     0.21715   0.72975   1.07954   0.00000  Uiso   1.00
C13    C     0.27918   0.75038   0.94235   0.00000  Uiso   1.00
C14    C     0.31381   0.81284   0.79847   0.00000  Uiso   1.00
C15    C     0.28655   0.85358   0.78807   0.00000  Uiso   1.00
C16    C     0.30741   0.70676   0.94654   0.00000  Uiso   1.00
H17    H     0.96805   0.88194   1.37527   0.00000  Uiso   1.00
H18    H     0.03081   0.82505   1.36127   0.00000  Uiso   1.00
H19    H     0.18078   0.98399   0.79922   0.00000  Uiso   1.00
H20    H     0.11934   0.04047   0.82217   0.00000  Uiso   1.00
H21    H     0.22189   0.92064   0.76446   0.00000  Uiso   1.00
H22    H     0.14287   0.75447   1.18465   0.00000  Uiso   1.00
H23    H     0.18998   0.68206   1.19509   0.00000  Uiso   1.00
H24    H     0.36136   0.82935   0.68766   0.00000  Uiso   1.00
H25    H     0.31361   0.90104   0.67054   0.00000  Uiso   1.00
N26    N     0.13792   0.28098   1.06914   0.00000  Uiso   1.00
N27    N     0.35913   0.62678   0.94637   0.00000  Uiso   1.00
C28    C     0.03368   0.07153   1.09884   0.00000  Uiso   1.00
C29    C     0.09486   0.10933   1.25258   0.00000  Uiso   1.00
C30    C     0.12784   0.17778   1.24174   0.00000  Uiso   1.00
C31    C     0.10086   0.21065   1.07710   0.00000  Uiso   1.00
C32    C     0.03927   0.17375   0.92689   0.00000  Uiso   1.00
C33    C     0.00652   0.10530   0.93798   0.00000  Uiso   1.00
C34    C     0.12327   0.32000   0.91162   0.00000  Uiso   1.00
C35    C     0.16690   0.39165   0.92651   0.00000  Uiso   1.00
C36    C     0.22902   0.41944   1.07427   0.00000  Uiso   1.00
C37    C     0.27025   0.48740   1.07954   0.00000  Uiso   1.00
C38    C     0.24962   0.52880   0.94235   0.00000  Uiso   1.00
C39    C     0.18716   0.50097   0.79847   0.00000  Uiso   1.00
C40    C     0.14642   0.43297   0.78807   0.00000  Uiso   1.00
C41    C     0.29324   0.60065   0.94654   0.00000  Uiso   1.00
H42    H     0.11806   0.08611   1.37527   0.00000  Uiso   1.00
H43    H     0.17495   0.20576   1.36127   0.00000  Uiso   1.00
H44    H     0.01601   0.19679   0.79922   0.00000  Uiso   1.00
H45    H     0.95953   0.07887   0.82217   0.00000  Uiso   1.00
H46    H     0.07936   0.30125   0.76446   0.00000  Uiso   1.00
H47    H     0.24553   0.38840   1.18465   0.00000  Uiso   1.00
H48    H     0.31794   0.50792   1.19509   0.00000  Uiso   1.00
H49    H     0.17065   0.53201   0.68766   0.00000  Uiso   1.00
H50    H     0.09896   0.41257   0.67054   0.00000  Uiso   1.00
N51    N     0.71902   0.85694   1.06914   0.00000  Uiso   1.00
N52    N     0.37322   0.73235   0.94637   0.00000  Uiso   1.00
C53    C     0.92847   0.96215   1.09884   0.00000  Uiso   1.00
C54    C     0.89067   0.98553   1.25258   0.00000  Uiso   1.00
C55    C     0.82222   0.95006   1.24174   0.00000  Uiso   1.00
C56    C     0.78935   0.89021   1.07710   0.00000  Uiso   1.00
C57    C     0.82625   0.86552   0.92689   0.00000  Uiso   1.00
C58    C     0.89470   0.90122   0.93798   0.00000  Uiso   1.00
C59    C     0.68000   0.80327   0.91162   0.00000  Uiso   1.00
C60    C     0.60835   0.77525   0.92651   0.00000  Uiso   1.00
C61    C     0.58056   0.80958   1.07427   0.00000  Uiso   1.00
C62    C     0.51260   0.78285   1.07954   0.00000  Uiso   1.00
C63    C     0.47120   0.72082   0.94235   0.00000  Uiso   1.00
C64    C     0.49903   0.68619   0.79847   0.00000  Uiso   1.00
C65    C     0.56703   0.71345   0.78807   0.00000  Uiso   1.00
C66    C     0.39935   0.69259   0.94654   0.00000  Uiso   1.00
H67    H     0.91389   0.03195   1.37527   0.00000  Uiso   1.00
H68    H     0.79424   0.96919   1.36127   0.00000  Uiso   1.00
H69    H     0.80321   0.81922   0.79922   0.00000  Uiso   1.00
H70    H     0.92113   0.88066   0.82217   0.00000  Uiso   1.00
H71    H     0.69875   0.77811   0.76446   0.00000  Uiso   1.00
H72    H     0.61160   0.85713   1.18465   0.00000  Uiso   1.00
H73    H     0.49208   0.81002   1.19509   0.00000  Uiso   1.00
H74    H     0.46799   0.63864   0.68766   0.00000  Uiso   1.00
H75    H     0.58743   0.68639   0.67054   0.00000  Uiso   1.00
N76    N     0.00000   0.00000   1.10281   0.00000  Uiso   1.00
loop_
_geom_bond_atom_site_label_1
_geom_bond_atom_site_label_2
_geom_bond_distance
_geom_bond_site_symmetry_2
_ccdc_geom_bond_type
N1     C6      1.342   .     S
N1     C9      1.211   .     D
N2     C16     1.265   .     D
N2     C41     1.265   .     S
C3     C4      1.311   .     D
C3     C8      1.311   .     S
C3     N76     1.364   1_565 S
C4     C5      1.306   .     S
C4     H17     0.997   1_455 S
C5     C6      1.299   .     D
C5     H18     1.008   .     S
C6     C7      1.309   .     S
C7     C8      1.306   .     D
C7     H19     1.004   .     S
C8     H20     0.998   1_565 S
C9     C10     1.378   .     S
C9     H21     1.005   .     S
C10    C11     1.309   .     D
C10    C15     1.308   .     S
C11    C12     1.305   .     S
C11    H22     1.009   .     S
C12    C13     1.310   .     D
C12    H23     1.010   .     S
C13    C14     1.309   .     S
C13    C16     1.380   .     S
C14    C15     1.305   .     D
C14    H24     1.010   .     S
C15    H25     1.009   .     S
C16    N52     1.265   .     S
H17    C4      0.997   1_655 S
H20    C8      0.998   1_545 S
N26    C31     1.342   .     S
N26    C34     1.211   .     D
N27    C41     1.265   .     D
N27    C66     1.265   .     S
C28    C29     1.311   .     S
C28    C33     1.311   .     D
C28    N76     1.364   .     S
C29    C30     1.306   .     D
C29    H42     0.997   .     S
C30    C31     1.299   .     S
C30    H43     1.008   .     S
C31    C32     1.309   .     D
C32    C33     1.306   .     S
C32    H44     1.004   .     S
C33    H45     0.998   1_455 S
C34    C35     1.378   .     S
C34    H46     1.005   .     S
C35    C36     1.309   .     S
C35    C40     1.308   .     D
C36    C37     1.305   .     D
C36    H47     1.009   .     S
C37    C38     1.310   .     S
C37    H48     1.010   .     S
C38    C39     1.309   .     D
C38    C41     1.380   .     S
C39    C40     1.305   .     S
C39    H49     1.010   .     S
C40    H50     1.009   .     S
H45    C33     0.998   1_655 S
N51    C56     1.342   .     S
N51    C59     1.211   .     D
N52    C66     1.265   .     D
C53    C54     1.311   .     D
C53    C58     1.311   .     S
C53    N76     1.364   1_665 S
C54    C55     1.306   .     S
C54    H67     0.997   1_565 S
C55    C56     1.299   .     D
C55    H68     1.008   .     S
C56    C57     1.309   .     S
C57    C58     1.306   .     D
C57    H69     1.004   .     S
C58    H70     0.998   .     S
C59    C60     1.378   .     S
C59    H71     1.005   .     S
C60    C61     1.309   .     D
C60    C65     1.308   .     S
C61    C62     1.305   .     S
C61    H72     1.009   .     S
C62    C63     1.310   .     D
C62    H73     1.010   .     S
C63    C64     1.309   .     S
C63    C66     1.380   .     S
C64    C65     1.305   .     D
C64    H74     1.010   .     S
C65    H75     1.009   .     S
H67    C54     0.997   1_545 S
N76    C3      1.364   1_545 S
N76    C53     1.364   1_445 S
