data_511
_audit_creation_date              2023-09-08
_audit_creation_method            'Materials Studio'
_symmetry_space_group_name_H-M    'P1'
_symmetry_Int_Tables_number       1
_symmetry_cell_setting            triclinic
loop_
_symmetry_equiv_pos_as_xyz
  x,y,z
_cell_length_a                    52.2892
_cell_length_b                    40.7693
_cell_length_c                    8.8687
_cell_angle_alpha                 95.6040
_cell_angle_beta                  104.5230
_cell_angle_gamma                 129.0980
loop_
_atom_site_label
_atom_site_type_symbol
_atom_site_fract_x
_atom_site_fract_y
_atom_site_fract_z
_atom_site_U_iso_or_equiv
_atom_site_adp_type
_atom_site_occupancy
C1     C     0.41650   0.84250   0.23250   0.00000  Uiso   1.00
C2     C     0.40970   0.80670   0.13000   0.00000  Uiso   1.00
C3     C     0.38570   0.76290   0.13130   0.00000  Uiso   1.00
C4     C     0.36740   0.75140   0.23810   0.00000  Uiso   1.00
C5     C     0.37440   0.78740   0.34060   0.00000  Uiso   1.00
C6     C     0.39800   0.83140   0.33780   0.00000  Uiso   1.00
C7     C     0.39490   0.70620   0.29130   0.00000  Uiso   1.00
C8     C     0.35770   0.68340   0.24920   0.00000  Uiso   1.00
N9     N     0.34040   0.63860   0.22690   0.00000  Uiso   1.00
C10    C     0.36420   0.63170   0.25150   0.00000  Uiso   1.00
C11    C     0.26430   0.48610   0.19420   0.00000  Uiso   1.00
C12    C     0.29740   0.50610   0.18650   0.00000  Uiso   1.00
C13    C     0.32020   0.55350   0.24620   0.00000  Uiso   1.00
N14    N     0.30010   0.56070   0.29080   0.00000  Uiso   1.00
C15    C     0.26590   0.52080   0.25900   0.00000  Uiso   1.00
C16    C     0.35530   0.59020   0.24940   0.00000  Uiso   1.00
C17    C     0.19190   0.51390   0.26650   0.00000  Uiso   1.00
C18    C     0.20420   0.49190   0.26500   0.00000  Uiso   1.00
C19    C     0.23930   0.52230   0.26700   0.00000  Uiso   1.00
N20    N     0.24690   0.56130   0.27040   0.00000  Uiso   1.00
C21    C     0.21890   0.55820   0.26570   0.00000  Uiso   1.00
C22    C     0.29190   0.70290   0.21730   0.00000  Uiso   1.00
C23    C     0.25900   0.67390   0.22490   0.00000  Uiso   1.00
C24    C     0.25290   0.63510   0.25030   0.00000  Uiso   1.00
N25    N     0.28340   0.64250   0.25710   0.00000  Uiso   1.00
C26    C     0.30760   0.68320   0.23890   0.00000  Uiso   1.00
C27    C     0.34270   0.70350   0.24160   0.00000  Uiso   1.00
C28    C     0.22100   0.59520   0.25750   0.00000  Uiso   1.00
C29    C     0.39870   0.67550   0.29200   0.00000  Uiso   1.00
C30    C     0.37970   0.58130   0.24950   0.00000  Uiso   1.00
C31    C     0.18820   0.58810   0.25460   0.00000  Uiso   1.00
C32    C     0.40400   0.59900   0.17060   0.00000  Uiso   1.00
C33    C     0.42350   0.58660   0.16290   0.00000  Uiso   1.00
C34    C     0.42120   0.55600   0.23720   0.00000  Uiso   1.00
C35    C     0.39760   0.53890   0.31960   0.00000  Uiso   1.00
C36    C     0.37800   0.55120   0.32530   0.00000  Uiso   1.00
C37    C     0.15220   0.54690   0.15760   0.00000  Uiso   1.00
C38    C     0.12170   0.53770   0.16240   0.00000  Uiso   1.00
C39    C     0.12440   0.56960   0.26520   0.00000  Uiso   1.00
C40    C     0.16020   0.61130   0.35850   0.00000  Uiso   1.00
C41    C     0.19060   0.62000   0.35440   0.00000  Uiso   1.00
H42    H     0.44090   0.60110   0.09630   0.00000  Uiso   1.00
H43    H     0.40720   0.62230   0.10790   0.00000  Uiso   1.00
H44    H     0.36070   0.53660   0.39260   0.00000  Uiso   1.00
H45    H     0.39420   0.51520   0.38000   0.00000  Uiso   1.00
H46    H     0.30390   0.48830   0.13530   0.00000  Uiso   1.00
H47    H     0.24100   0.45050   0.15230   0.00000  Uiso   1.00
H48    H     0.42380   0.68330   0.32440   0.00000  Uiso   1.00
H49    H     0.41670   0.74200   0.32380   0.00000  Uiso   1.00
H50    H     0.38100   0.73670   0.04690   0.00000  Uiso   1.00
H51    H     0.42300   0.81330   0.04520   0.00000  Uiso   1.00
H52    H     0.40280   0.85760   0.42300   0.00000  Uiso   1.00
H53    H     0.36180   0.78120   0.42820   0.00000  Uiso   1.00
H54    H     0.30370   0.73430   0.19500   0.00000  Uiso   1.00
H55    H     0.24030   0.67840   0.21090   0.00000  Uiso   1.00
H56    H     0.21710   0.65270   0.43340   0.00000  Uiso   1.00
H57    H     0.16460   0.63770   0.44010   0.00000  Uiso   1.00
H58    H     0.14760   0.52090   0.07170   0.00000  Uiso   1.00
H59    H     0.09530   0.50540   0.08070   0.00000  Uiso   1.00
H60    H     0.16610   0.49960   0.26800   0.00000  Uiso   1.00
H61    H     0.18970   0.45780   0.26400   0.00000  Uiso   1.00
H62    H     0.31310   0.61370   0.17120   0.00000  Uiso   1.00
C63    C     0.57720   0.17340   0.22110   0.00000  Uiso   1.00
C64    C     0.56860   0.18750   0.09410   0.00000  Uiso   1.00
C65    C     0.59290   0.23200   0.09840   0.00000  Uiso   1.00
C66    C     0.62690   0.26590   0.23170   0.00000  Uiso   1.00
C67    C     0.63540   0.25150   0.35720   0.00000  Uiso   1.00
C68    C     0.61160   0.20670   0.35250   0.00000  Uiso   1.00
C69    C     0.60020   0.31260   0.21120   0.00000  Uiso   1.00
C70    C     0.63670   0.33480   0.23600   0.00000  Uiso   1.00
N71    N     0.65330   0.37900   0.24910   0.00000  Uiso   1.00
C72    C     0.62950   0.38580   0.23080   0.00000  Uiso   1.00
C73    C     0.72930   0.53060   0.29320   0.00000  Uiso   1.00
C74    C     0.69590   0.51070   0.29720   0.00000  Uiso   1.00
C75    C     0.67260   0.46330   0.22920   0.00000  Uiso   1.00
N76    N     0.69240   0.45610   0.18080   0.00000  Uiso   1.00
C77    C     0.72720   0.49590   0.22120   0.00000  Uiso   1.00
C78    C     0.63760   0.42660   0.22850   0.00000  Uiso   1.00
C79    C     0.80540   0.50800   0.26840   0.00000  Uiso   1.00
C80    C     0.79210   0.52890   0.26640   0.00000  Uiso   1.00
C81    C     0.75430   0.49510   0.21830   0.00000  Uiso   1.00
N82    N     0.74590   0.45500   0.18890   0.00000  Uiso   1.00
C83    C     0.77600   0.46080   0.22370   0.00000  Uiso   1.00
C84    C     0.69980   0.31280   0.23470   0.00000  Uiso   1.00
C85    C     0.73320   0.34200   0.23170   0.00000  Uiso   1.00
C86    C     0.74240   0.38420   0.23840   0.00000  Uiso   1.00
N87    N     0.71360   0.37900   0.24750   0.00000  Uiso   1.00
C88    C     0.68730   0.33610   0.24470   0.00000  Uiso   1.00
C89    C     0.65200   0.31530   0.24060   0.00000  Uiso   1.00
C90    C     0.77430   0.42410   0.23110   0.00000  Uiso   1.00
C91    C     0.59590   0.34270   0.20690   0.00000  Uiso   1.00
C92    C     0.61330   0.43550   0.22970   0.00000  Uiso   1.00
C93    C     0.80730   0.43220   0.23410   0.00000  Uiso   1.00
C94    C     0.61490   0.46560   0.15390   0.00000  Uiso   1.00
C95    C     0.59520   0.47760   0.15910   0.00000  Uiso   1.00
C96    C     0.57130   0.46020   0.24050   0.00000  Uiso   1.00
C97    C     0.56910   0.42970   0.31510   0.00000  Uiso   1.00
C98    C     0.58890   0.41770   0.30840   0.00000  Uiso   1.00
C99    C     0.82730   0.45810   0.14460   0.00000  Uiso   1.00
C100   C     0.85890   0.46870   0.14850   0.00000  Uiso   1.00
C101   C     0.87340   0.45380   0.24300   0.00000  Uiso   1.00
C102   C     0.85310   0.42700   0.32960   0.00000  Uiso   1.00
C103   C     0.82200   0.41720   0.32710   0.00000  Uiso   1.00
H104   H     0.59860   0.50140   0.09920   0.00000  Uiso   1.00
H105   H     0.63230   0.48030   0.08750   0.00000  Uiso   1.00
H106   H     0.58590   0.39460   0.37180   0.00000  Uiso   1.00
H107   H     0.55160   0.41500   0.38120   0.00000  Uiso   1.00
H108   H     0.68960   0.52820   0.35160   0.00000  Uiso   1.00
H109   H     0.75310   0.56610   0.34120   0.00000  Uiso   1.00
H110   H     0.57110   0.33490   0.18520   0.00000  Uiso   1.00
H111   H     0.57920   0.27760   0.19630   0.00000  Uiso   1.00
H112   H     0.58490   0.24050  -0.00470   0.00000  Uiso   1.00
H113   H     0.54270   0.16310  -0.01140   0.00000  Uiso   1.00
H114   H     0.61950   0.19810   0.45550   0.00000  Uiso   1.00
H115   H     0.66120   0.27590   0.46360   0.00000  Uiso   1.00
H116   H     0.68510   0.27820   0.22880   0.00000  Uiso   1.00
H117   H     0.74940   0.33460   0.22140   0.00000  Uiso   1.00
H118   H     0.80890   0.39750   0.40170   0.00000  Uiso   1.00
H119   H     0.86260   0.41430   0.40560   0.00000  Uiso   1.00
H120   H     0.81770   0.47010   0.06560   0.00000  Uiso   1.00
H121   H     0.87190   0.48810   0.07310   0.00000  Uiso   1.00
H122   H     0.83340   0.52500   0.30650   0.00000  Uiso   1.00
H123   H     0.80780   0.56460   0.29830   0.00000  Uiso   1.00
H124   H     0.68060   0.40390   0.29530   0.00000  Uiso   1.00
C125   C     0.48010   0.52640   0.26180   0.00000  Uiso   1.00
C126   C     0.46130   0.48620   0.13290   0.00000  Uiso   1.00
C127   C     0.47690   0.46880   0.11290   0.00000  Uiso   1.00
C128   C     0.51220   0.48940   0.21880   0.00000  Uiso   1.00
C129   C     0.53090   0.52950   0.34820   0.00000  Uiso   1.00
C130   C     0.51530   0.54690   0.36800   0.00000  Uiso   1.00
N131   N     0.55610   0.47860   0.27080   0.00000  Uiso   1.00
C132   C     0.52640   0.46770   0.18210   0.00000  Uiso   1.00
C133   C     0.46580   0.54810   0.29740   0.00000  Uiso   1.00
N134   N     0.43630   0.53750   0.20730   0.00000  Uiso   1.00
H135   H     0.43410   0.46800   0.04580   0.00000  Uiso   1.00
H136   H     0.46090   0.43770   0.01020   0.00000  Uiso   1.00
H137   H     0.55810   0.54750   0.43560   0.00000  Uiso   1.00
H138   H     0.53140   0.57790   0.47070   0.00000  Uiso   1.00
H139   H     0.50740   0.43910   0.06220   0.00000  Uiso   1.00
H140   H     0.48480   0.57660   0.41780   0.00000  Uiso   1.00
C141   C     0.47110   0.96420   0.24240   0.00000  Uiso   1.00
C142   C     0.50570   0.98260   0.25910   0.00000  Uiso   1.00
C143   C     0.53170   0.02650   0.26140   0.00000  Uiso   1.00
C144   C     0.52500   0.05490   0.24590   0.00000  Uiso   1.00
C145   C     0.49030   0.03640   0.22920   0.00000  Uiso   1.00
C146   C     0.46440   0.99270   0.22830   0.00000  Uiso   1.00
N147   N     0.54980   0.12870   0.21850   0.00000  Uiso   1.00
C148   C     0.55390   0.10140   0.24750   0.00000  Uiso   1.00
C149   C     0.44190   0.91740   0.23800   0.00000  Uiso   1.00
N150   N     0.44390   0.88720   0.23580   0.00000  Uiso   1.00
H151   H     0.51240   0.96230   0.27060   0.00000  Uiso   1.00
H152   H     0.55800   0.03920   0.27480   0.00000  Uiso   1.00
H153   H     0.48360   0.05670   0.21710   0.00000  Uiso   1.00
H154   H     0.43810   0.98010   0.21540   0.00000  Uiso   1.00
H155   H     0.58010   0.11070   0.27150   0.00000  Uiso   1.00
H156   H     0.41700   0.90970   0.23140   0.00000  Uiso   1.00
C157   C     0.03060   0.52070   0.24570   0.00000  Uiso   1.00
C158   C     0.03040   0.55510   0.28430   0.00000  Uiso   1.00
C159   C     0.99960   0.54580   0.28440   0.00000  Uiso   1.00
C160   C     0.96620   0.50190   0.24750   0.00000  Uiso   1.00
C161   C     0.96640   0.46750   0.20870   0.00000  Uiso   1.00
C162   C    -0.00280   0.47680   0.20810   0.00000  Uiso   1.00
N163   N     0.90350   0.45940   0.24020   0.00000  Uiso   1.00
C164   C     0.93460   0.49590   0.25210   0.00000  Uiso   1.00
C165   C     0.06240   0.52690   0.24270   0.00000  Uiso   1.00
N166   N     0.09470   0.56450   0.27150   0.00000  Uiso   1.00
H167   H     0.05490   0.58990   0.31550   0.00000  Uiso   1.00
H168   H     1.00160   0.57420   0.31570   0.00000  Uiso   1.00
H169   H     0.94190   0.43270   0.17770   0.00000  Uiso   1.00
H170   H    -0.00490   0.44840   0.17660   0.00000  Uiso   1.00
H171   H     0.94110   0.52830   0.27380   0.00000  Uiso   1.00
H172   H     0.05540   0.49420   0.21350   0.00000  Uiso   1.00
C173   C     0.91990   0.84230   0.73660   0.00000  Uiso   1.00
C174   C     0.91310   0.80660   0.63420   0.00000  Uiso   1.00
C175   C     0.88900   0.76270   0.63530   0.00000  Uiso   1.00
C176   C     0.87070   0.75120   0.74170   0.00000  Uiso   1.00
C177   C     0.87760   0.78710   0.84410   0.00000  Uiso   1.00
C178   C     0.90120   0.83110   0.84160   0.00000  Uiso   1.00
C179   C     0.89810   0.70590   0.79480   0.00000  Uiso   1.00
C180   C     0.86100   0.68310   0.75230   0.00000  Uiso   1.00
N181   N     0.84360   0.63830   0.72950   0.00000  Uiso   1.00
C182   C     0.86740   0.63140   0.75400   0.00000  Uiso   1.00
C183   C     0.76730   0.48570   0.69420   0.00000  Uiso   1.00
C184   C     0.80050   0.50570   0.68710   0.00000  Uiso   1.00
C185   C     0.82330   0.55310   0.74760   0.00000  Uiso   1.00
N186   N     0.80320   0.56020   0.79220   0.00000  Uiso   1.00
C187   C     0.76890   0.52030   0.75960   0.00000  Uiso   1.00
C188   C     0.85850   0.58980   0.75130   0.00000  Uiso   1.00
C189   C     0.69480   0.51330   0.76640   0.00000  Uiso   1.00
C190   C     0.70710   0.49130   0.76460   0.00000  Uiso   1.00
C191   C     0.74230   0.52180   0.76740   0.00000  Uiso   1.00
N192   N     0.74990   0.56080   0.77160   0.00000  Uiso   1.00
C193   C     0.72190   0.55770   0.76660   0.00000  Uiso   1.00
C194   C     0.79510   0.70260   0.72060   0.00000  Uiso   1.00
C195   C     0.76220   0.67350   0.72770   0.00000  Uiso   1.00
C196   C     0.75610   0.63470   0.75240   0.00000  Uiso   1.00
N197   N     0.78660   0.64210   0.75930   0.00000  Uiso   1.00
C198   C     0.81080   0.68290   0.74180   0.00000  Uiso   1.00
C199   C     0.84600   0.70330   0.74480   0.00000  Uiso   1.00
C200   C     0.72410   0.59470   0.75900   0.00000  Uiso   1.00
C201   C     0.90190   0.67520   0.79500   0.00000  Uiso   1.00
C202   C     0.88280   0.58090   0.75090   0.00000  Uiso   1.00
C203   C     0.69130   0.58760   0.75580   0.00000  Uiso   1.00
C204   C     0.90710   0.59870   0.67210   0.00000  Uiso   1.00
C205   C     0.92660   0.58630   0.66370   0.00000  Uiso   1.00
C206   C     0.92420   0.55550   0.73720   0.00000  Uiso   1.00
C207   C     0.90060   0.53840   0.81960   0.00000  Uiso   1.00
C208   C     0.88110   0.55070   0.82600   0.00000  Uiso   1.00
C209   C     0.65530   0.54650   0.65820   0.00000  Uiso   1.00
C210   C     0.62480   0.53730   0.66260   0.00000  Uiso   1.00
C211   C     0.62740   0.56910   0.76590   0.00000  Uiso   1.00
C212   C     0.66330   0.61080   0.85990   0.00000  Uiso   1.00
C213   C     0.69370   0.61950   0.85600   0.00000  Uiso   1.00
H214   H     0.94400   0.60090   0.59720   0.00000  Uiso   1.00
H215   H     0.91040   0.62210   0.61000   0.00000  Uiso   1.00
H216   H     0.86380   0.53600   0.89320   0.00000  Uiso   1.00
H217   H     0.89710   0.51450   0.87940   0.00000  Uiso   1.00
H218   H     0.80700   0.48800   0.63560   0.00000  Uiso   1.00
H219   H     0.74400   0.45000   0.65150   0.00000  Uiso   1.00
H220   H     0.92700   0.68300   0.82750   0.00000  Uiso   1.00
H221   H     0.92000   0.74180   0.82760   0.00000  Uiso   1.00
H222   H     0.88450   0.73660   0.55090   0.00000  Uiso   1.00
H223   H     0.92640   0.81320   0.54970   0.00000  Uiso   1.00
H224   H     0.90600   0.85740   0.92670   0.00000  Uiso   1.00
H225   H     0.86500   0.78090   0.93150   0.00000  Uiso   1.00
H226   H     0.80700   0.73410   0.69880   0.00000  Uiso   1.00
H227   H     0.74350   0.67810   0.71390   0.00000  Uiso   1.00
H228   H     0.72010   0.65210   0.93570   0.00000  Uiso   1.00
H229   H     0.66760   0.63710   0.94190   0.00000  Uiso   1.00
H230   H     0.65060   0.52050   0.57190   0.00000  Uiso   1.00
H231   H     0.59830   0.50510   0.58060   0.00000  Uiso   1.00
H232   H     0.66900   0.49890   0.76740   0.00000  Uiso   1.00
H233   H     0.69260   0.45710   0.76290   0.00000  Uiso   1.00
H234   H     0.81630   0.61340   0.67360   0.00000  Uiso   1.00
C235   C     0.08040   0.17310   0.72480   0.00000  Uiso   1.00
C236   C     0.07180   0.18730   0.59800   0.00000  Uiso   1.00
C237   C     0.09590   0.23170   0.60190   0.00000  Uiso   1.00
C238   C     0.13010   0.26560   0.73460   0.00000  Uiso   1.00
C239   C     0.13880   0.25120   0.85980   0.00000  Uiso   1.00
C240   C     0.11500   0.20650   0.85560   0.00000  Uiso   1.00
C241   C     0.10340   0.31230   0.71420   0.00000  Uiso   1.00
C242   C     0.13980   0.33450   0.73840   0.00000  Uiso   1.00
N243   N     0.15640   0.37860   0.75070   0.00000  Uiso   1.00
C244   C     0.13260   0.38540   0.73240   0.00000  Uiso   1.00
C245   C     0.23210   0.53000   0.79100   0.00000  Uiso   1.00
C246   C     0.19870   0.51010   0.79510   0.00000  Uiso   1.00
C247   C     0.17550   0.46270   0.72860   0.00000  Uiso   1.00
N248   N     0.19530   0.45550   0.68110   0.00000  Uiso   1.00
C249   C     0.23010   0.49530   0.72050   0.00000  Uiso   1.00
C250   C     0.14060   0.42620   0.72890   0.00000  Uiso   1.00
C251   C     0.30830   0.50740   0.76840   0.00000  Uiso   1.00
C252   C     0.29500   0.52830   0.76590   0.00000  Uiso   1.00
C253   C     0.25720   0.49450   0.71800   0.00000  Uiso   1.00
N254   N     0.24890   0.45450   0.68940   0.00000  Uiso   1.00
C255   C     0.27890   0.46030   0.72430   0.00000  Uiso   1.00
C256   C     0.20290   0.31230   0.73610   0.00000  Uiso   1.00
C257   C     0.23620   0.34150   0.73270   0.00000  Uiso   1.00
C258   C     0.24540   0.38380   0.73960   0.00000  Uiso   1.00
N259   N     0.21670   0.37860   0.74920   0.00000  Uiso   1.00
C260   C     0.19040   0.33580   0.74660   0.00000  Uiso   1.00
C261   C     0.15510   0.31490   0.74300   0.00000  Uiso   1.00
C262   C     0.27730   0.42360   0.73200   0.00000  Uiso   1.00
C263   C     0.09910   0.34240   0.70950   0.00000  Uiso   1.00
C264   C     0.11630   0.43490   0.72970   0.00000  Uiso   1.00
C265   C     0.31030   0.43170   0.73450   0.00000  Uiso   1.00
C266   C     0.11740   0.46450   0.65160   0.00000  Uiso   1.00
C267   C     0.09760   0.47640   0.65610   0.00000  Uiso   1.00
C268   C     0.07420   0.45950   0.73940   0.00000  Uiso   1.00
C269   C     0.07240   0.42960   0.81660   0.00000  Uiso   1.00
C270   C     0.09220   0.41760   0.81030   0.00000  Uiso   1.00
C271   C     0.33030   0.45760   0.64510   0.00000  Uiso   1.00
C272   C     0.36180   0.46810   0.64870   0.00000  Uiso   1.00
C273   C     0.37630   0.45320   0.74270   0.00000  Uiso   1.00
C274   C     0.35600   0.42630   0.82930   0.00000  Uiso   1.00
C275   C     0.32490   0.41660   0.82710   0.00000  Uiso   1.00
H276   H     0.10070   0.49970   0.59430   0.00000  Uiso   1.00
H277   H     0.13460   0.47890   0.58370   0.00000  Uiso   1.00
H278   H     0.08950   0.39500   0.87550   0.00000  Uiso   1.00
H279   H     0.05520   0.41540   0.88440   0.00000  Uiso   1.00
H280   H     0.19230   0.52770   0.84830   0.00000  Uiso   1.00
H281   H     0.25580   0.56560   0.83780   0.00000  Uiso   1.00
H282   H     0.07430   0.33470   0.68820   0.00000  Uiso   1.00
H283   H     0.08250   0.27740   0.70010   0.00000  Uiso   1.00
H284   H     0.08790   0.24010   0.49900   0.00000  Uiso   1.00
H285   H     0.04580   0.16280   0.49300   0.00000  Uiso   1.00
H286   H     0.12300   0.19790   0.95840   0.00000  Uiso   1.00
H287   H     0.16460   0.27570   0.96580   0.00000  Uiso   1.00
H288   H     0.18810   0.27780   0.73010   0.00000  Uiso   1.00
H289   H     0.25230   0.33410   0.72190   0.00000  Uiso   1.00
H290   H     0.31190   0.39690   0.90170   0.00000  Uiso   1.00
H291   H     0.36540   0.41360   0.90490   0.00000  Uiso   1.00
H292   H     0.32060   0.46960   0.56640   0.00000  Uiso   1.00
H293   H     0.37480   0.48760   0.57330   0.00000  Uiso   1.00
H294   H     0.33640   0.52450   0.80660   0.00000  Uiso   1.00
H295   H     0.31070   0.56400   0.79730   0.00000  Uiso   1.00
H296   H     0.18370   0.40350   0.79640   0.00000  Uiso   1.00
C297   C     0.98290   0.52570   0.76000   0.00000  Uiso   1.00
C298   C     0.96430   0.48570   0.62990   0.00000  Uiso   1.00
C299   C     0.97980   0.46830   0.60980   0.00000  Uiso   1.00
C300   C     0.01500   0.48870   0.71630   0.00000  Uiso   1.00
C301   C     0.03360   0.52860   0.84650   0.00000  Uiso   1.00
C302   C     0.01810   0.54600   0.86670   0.00000  Uiso   1.00
N303   N     0.05890   0.47780   0.76910   0.00000  Uiso   1.00
C304   C     0.02920   0.46700   0.67980   0.00000  Uiso   1.00
C305   C     0.96870   0.54740   0.79640   0.00000  Uiso   1.00
N306   N     0.93930   0.53700   0.70630   0.00000  Uiso   1.00
H307   H     0.93710   0.46780   0.54210   0.00000  Uiso   1.00
H308   H     0.96390   0.43740   0.50640   0.00000  Uiso   1.00
H309   H     0.06080   0.54660   0.93420   0.00000  Uiso   1.00
H310   H     0.03400   0.57680   0.97020   0.00000  Uiso   1.00
H311   H     0.01020   0.43840   0.55960   0.00000  Uiso   1.00
H312   H     0.98750   0.57560   0.91750   0.00000  Uiso   1.00
C313   C     0.97440   0.96400   0.74670   0.00000  Uiso   1.00
C314   C     0.00910  -0.01750   0.76400   0.00000  Uiso   1.00
C315   C     0.03510   0.02640   0.76640   0.00000  Uiso   1.00
C316   C     0.02830   0.05470   0.75030   0.00000  Uiso   1.00
C317   C     0.99360   1.03620   0.73310   0.00000  Uiso   1.00
C318   C     0.96780   0.99250   0.73220   0.00000  Uiso   1.00
N319   N     0.05320   0.12850   0.72260   0.00000  Uiso   1.00
C320   C     0.05730   0.10120   0.75170   0.00000  Uiso   1.00
C321   C     0.94530   0.91730   0.74220   0.00000  Uiso   1.00
N322   N     0.94720   0.88700   0.74020   0.00000  Uiso   1.00
H323   H     0.01580  -0.03780   0.77590   0.00000  Uiso   1.00
H324   H     0.06150   0.03910   0.78020   0.00000  Uiso   1.00
H325   H     0.98690   1.05650   0.72060   0.00000  Uiso   1.00
H326   H     0.94140   0.97980   0.71880   0.00000  Uiso   1.00
H327   H     0.08350   0.11050   0.77590   0.00000  Uiso   1.00
H328   H     0.92030   0.90950   0.73510   0.00000  Uiso   1.00
C329   C     0.53360   0.52020   0.74590   0.00000  Uiso   1.00
C330   C     0.53330   0.55450   0.78390   0.00000  Uiso   1.00
C331   C     0.50250   0.54520   0.78380   0.00000  Uiso   1.00
C332   C     0.46910   0.50130   0.74720   0.00000  Uiso   1.00
C333   C     0.46940   0.46700   0.70920   0.00000  Uiso   1.00
C334   C     0.50020   0.47630   0.70870   0.00000  Uiso   1.00
N335   N     0.40640   0.45870   0.73970   0.00000  Uiso   1.00
C336   C     0.43740   0.49530   0.75140   0.00000  Uiso   1.00
C337   C     0.56540   0.52640   0.74270   0.00000  Uiso   1.00
N338   N     0.59770   0.56400   0.77190   0.00000  Uiso   1.00
H339   H     0.55780   0.58940   0.81470   0.00000  Uiso   1.00
H340   H     0.50450   0.57350   0.81460   0.00000  Uiso   1.00
H341   H     0.44500   0.43210   0.67860   0.00000  Uiso   1.00
H342   H     0.49820   0.44790   0.67780   0.00000  Uiso   1.00
H343   H     0.44390   0.52760   0.77260   0.00000  Uiso   1.00
H344   H     0.55840   0.49370   0.71330   0.00000  Uiso   1.00
H345   H     0.18440   0.42540   0.60840   0.00000  Uiso   1.00
H346   H     0.22410   0.42380   0.66130   0.00000  Uiso   1.00
H347   H     0.31080   0.59090   0.36140   0.00000  Uiso   1.00
H348   H     0.26960   0.58940   0.26510   0.00000  Uiso   1.00
H349   H     0.81390   0.59040   0.86330   0.00000  Uiso   1.00
H350   H     0.77270   0.58900   0.76700   0.00000  Uiso   1.00
H351   H     0.68140   0.42610   0.10720   0.00000  Uiso   1.00
H352   H     0.72110   0.42430   0.16050   0.00000  Uiso   1.00
loop_
_geom_bond_atom_site_label_1
_geom_bond_atom_site_label_2
_geom_bond_distance
_geom_bond_site_symmetry_2
_ccdc_geom_bond_type
C1     C2      1.417   .     D
C1     C6      1.413   .     S
C1     N150    1.432   .     S
C2     C3      1.396   .     S
C2     H51     1.090   .     S
C3     C4      1.417   .     D
C3     H50     1.087   .     S
C4     C5      1.418   .     S
C4     C27     1.528   .     S
C5     C6      1.405   .     D
C5     H53     1.089   .     S
C6     H52     1.088   .     S
C7     C8      1.440   .     S
C7     C29     1.386   .     D
C7     H49     1.080   .     S
C8     N9      1.396   .     S
C8     C27     1.444   .     D
N9     C10     1.412   .     S
N9     H62     1.016   .     S
C10    C16     1.441   .     D
C10    C29     1.435   .     S
C11    C12     1.398   .     S
C11    C15     1.416   .     D
C11    H47     1.080   .     S
C12    C13     1.419   .     D
C12    H46     1.083   .     S
C13    N14     1.386   .     S
C13    C16     1.453   .     S
N14    C15     1.383   .     S
N14    H347    1.013   .     S
C15    C19     1.449   .     S
C16    C30     1.531   .     S
C17    C18     1.396   .     S
C17    C21     1.431   .     D
C17    H60     1.086   .     S
C18    C19     1.420   .     D
C18    H61     1.083   .     S
C19    N20     1.369   .     S
N20    C21     1.377   .     S
N20    H348    1.023   .     S
C21    C28     1.452   .     S
C22    C23     1.368   .     D
C22    C26     1.462   .     S
C22    H54     1.083   .     S
C23    C24     1.457   .     S
C23    H55     1.084   .     S
C24    N25     1.407   .     S
C24    C28     1.444   .     D
N25    C26     1.374   .     D
C26    C27     1.453   .     S
C28    C31     1.541   .     S
C29    H48     1.083   .     S
C30    C32     1.419   .     D
C30    C36     1.421   .     S
C31    C37     1.422   .     D
C31    C41     1.416   .     S
C32    C33     1.406   .     S
C32    H43     1.090   .     S
C33    C34     1.420   .     D
C33    H42     1.089   .     S
C34    C35     1.418   .     S
C34    N134    1.442   .     S
C35    C36     1.405   .     D
C35    H45     1.088   .     S
C36    H44     1.091   .     S
C37    C38     1.403   .     S
C37    H58     1.091   .     S
C38    C39     1.419   .     D
C38    H59     1.088   .     S
C39    C40     1.419   .     S
C39    N166    1.448   .     S
C40    C41     1.405   .     D
C40    H57     1.090   .     S
C41    H56     1.090   .     S
C63    C64     1.414   .     D
C63    C68     1.413   .     S
C63    N147    1.434   .     S
C64    C65     1.401   .     S
C64    H113    1.087   .     S
C65    C66     1.413   .     D
C65    H112    1.088   .     S
C66    C67     1.411   .     S
C66    C89     1.539   .     S
C67    C68     1.407   .     D
C67    H115    1.089   .     S
C68    H114    1.088   .     S
C69    C70     1.443   .     S
C69    C91     1.382   .     D
C69    H111    1.083   .     S
C70    N71     1.396   .     S
C70    C89     1.437   .     D
N71    C72     1.412   .     S
N71    H124    1.017   .     S
C72    C78     1.438   .     D
C72    C91     1.437   .     S
C73    C74     1.400   .     S
C73    C77     1.419   .     D
C73    H109    1.080   .     S
C74    C75     1.420   .     D
C74    H108    1.077   .     S
C75    N76     1.387   .     S
C75    C78     1.458   .     S
N76    C77     1.381   .     S
N76    H351    1.011   .     S
C77    C81     1.444   .     S
C78    C92     1.528   .     S
C79    C80     1.398   .     S
C79    C83     1.427   .     D
C79    H122    1.079   .     S
C80    C81     1.419   .     D
C80    H123    1.081   .     S
C81    N82     1.374   .     S
N82    C83     1.379   .     S
N82    H352    1.019   .     S
C83    C90     1.451   .     S
C84    C85     1.369   .     D
C84    C88     1.461   .     S
C84    H116    1.087   .     S
C85    C86     1.455   .     S
C85    H117    1.083   .     S
C86    N87     1.407   .     S
C86    C90     1.444   .     D
N87    C88     1.375   .     D
C88    C89     1.454   .     S
C90    C93     1.531   .     S
C91    H110    1.078   .     S
C92    C94     1.423   .     D
C92    C98     1.421   .     S
C93    C99     1.423   .     D
C93    C103    1.421   .     S
C94    C95     1.399   .     S
C94    H105    1.088   .     S
C95    C96     1.421   .     D
C95    H104    1.089   .     S
C96    C97     1.420   .     S
C96    N131    1.444   .     S
C97    C98     1.407   .     D
C97    H107    1.089   .     S
C98    H106    1.090   .     S
C99    C100    1.409   .     S
C99    H120    1.087   .     S
C100   C101    1.417   .     D
C100   H121    1.090   .     S
C101   C102    1.421   .     S
C101   N163    1.448   .     S
C102   C103    1.402   .     D
C102   H119    1.093   .     S
C103   H118    1.090   .     S
C125   C126    1.413   .     D
C125   C130    1.418   .     S
C125   C133    1.530   .     S
C126   C127    1.406   .     S
C126   H135    1.084   .     S
C127   C128    1.420   .     D
C127   H136    1.092   .     S
C128   C129    1.414   .     S
C128   C132    1.528   .     S
C129   C130    1.406   .     D
C129   H137    1.087   .     S
C130   H138    1.088   .     S
N131   C132    1.295   .     D
C132   H139    1.115   .     S
C133   N134    1.295   .     D
C133   H140    1.117   .     S
C141   C142    1.411   .     D
C141   C146    1.417   .     S
C141   C149    1.501   .     S
C142   C143    1.401   1_565 S
C142   H151    1.087   .     S
C143   C142    1.401   1_545 S
C143   C144    1.414   .     D
C143   H152    1.087   .     S
C144   C145    1.414   .     S
C144   C148    1.499   .     S
C145   C146    1.399   1_545 D
C145   H153    1.088   .     S
C146   C145    1.399   1_565 D
C146   H154    1.089   .     S
N147   C148    1.296   .     D
C148   H155    1.117   .     S
C149   N150    1.298   .     D
C149   H156    1.113   .     S
C157   C158    1.418   .     D
C157   C162    1.419   .     S
C157   C165    1.524   .     S
C158   C159    1.403   1_455 S
C158   H167    1.088   .     S
C159   C158    1.403   1_655 S
C159   C160    1.420   .     D
C159   H168    1.095   .     S
C160   C161    1.418   .     S
C160   C164    1.522   .     S
C161   C162    1.404   1_655 D
C161   H169    1.088   .     S
C162   C161    1.404   1_455 D
C162   H170    1.092   .     S
N163   C164    1.304   .     D
C164   H171    1.117   .     S
C165   N166    1.307   .     D
C165   H172    1.117   .     S
C173   C174    1.413   .     D
C173   C178    1.417   .     S
C173   N322    1.430   .     S
C174   C175    1.399   .     S
C174   H223    1.087   .     S
C175   C176    1.414   .     D
C175   H222    1.090   .     S
C176   C177    1.417   .     S
C176   C199    1.526   .     S
C177   C178    1.404   .     D
C177   H225    1.088   .     S
C178   H224    1.091   .     S
C179   C180    1.435   .     D
C179   C201    1.386   .     S
C179   H221    1.083   .     S
C180   N181    1.394   .     S
C180   C199    1.448   .     S
N181   C182    1.412   .     S
N181   H234    1.016   .     S
C182   C188    1.444   .     S
C182   C201    1.434   .     D
C183   C184    1.401   .     S
C183   C187    1.414   .     D
C183   H219    1.082   .     S
C184   C185    1.419   .     D
C184   H218    1.081   .     S
C185   N186    1.384   .     S
C185   C188    1.454   .     S
N186   C187    1.384   .     S
N186   H349    1.014   .     S
C187   C191    1.448   .     S
C188   C202    1.526   .     D
C189   C190    1.396   .     S
C189   C193    1.431   .     D
C189   H232    1.083   .     S
C190   C191    1.421   .     D
C190   H233    1.084   .     S
C191   N192    1.368   .     S
N192   C193    1.376   .     S
N192   H350    1.024   .     S
C193   C200    1.448   .     S
C194   C195    1.366   .     D
C194   C198    1.462   .     S
C194   H226    1.084   .     S
C195   C196    1.455   .     S
C195   H227    1.087   .     S
C196   N197    1.407   .     D
C196   C200    1.445   .     S
N197   C198    1.373   .     S
C198   C199    1.456   .     D
C200   C203    1.541   .     D
C201   H220    1.083   .     S
C202   C204    1.418   .     S
C202   C208    1.421   .     S
C203   C209    1.422   .     S
C203   C213    1.418   .     S
C204   C205    1.408   .     D
C204   H215    1.089   .     S
C205   C206    1.421   .     S
C205   H214    1.088   .     S
C206   C207    1.418   .     S
C206   N306    1.445   .     D
C207   C208    1.401   .     D
C207   H217    1.090   .     S
C208   H216    1.090   .     S
C209   C210    1.402   .     D
C209   H230    1.090   .     S
C210   C211    1.422   .     S
C210   H231    1.089   .     S
C211   C212    1.422   .     S
C211   N338    1.447   .     D
C212   C213    1.405   .     D
C212   H229    1.091   .     S
C213   H228    1.088   .     S
C235   C236    1.416   .     D
C235   C240    1.416   .     S
C235   N319    1.431   .     S
C236   C237    1.398   .     S
C236   H285    1.088   .     S
C237   C238    1.415   .     D
C237   H284    1.084   .     S
C238   C239    1.413   .     S
C238   C261    1.537   .     S
C239   C240    1.405   .     D
C239   H287    1.087   .     S
C240   H286    1.089   .     S
C241   C242    1.440   .     D
C241   C263    1.383   .     S
C241   H283    1.082   .     S
C242   N243    1.394   .     S
C242   C261    1.441   .     S
N243   C244    1.412   .     S
N243   H296    1.017   .     S
C244   C250    1.443   .     S
C244   C263    1.436   .     D
C245   C246    1.400   .     S
C245   C249    1.418   .     D
C245   H281    1.082   .     S
C246   C247    1.420   .     D
C246   H280    1.080   .     S
C247   N248    1.383   .     S
C247   C250    1.457   .     S
N248   C249    1.383   .     S
N248   H345    1.013   .     S
C249   C253    1.443   .     S
C250   C264    1.521   .     D
C251   C252    1.398   .     S
C251   C255    1.425   .     D
C251   H294    1.083   .     S
C252   C253    1.420   .     D
C252   H295    1.081   .     S
C253   N254    1.372   .     S
N254   C255    1.374   .     S
N254   H346    1.020   .     S
C255   C262    1.454   .     S
C256   C257    1.367   .     D
C256   C260    1.469   .     S
C256   H288    1.083   .     S
C257   C258    1.459   .     S
C257   H289    1.079   .     S
C258   N259    1.404   .     D
C258   C262    1.444   .     S
N259   C260    1.373   .     S
C260   C261    1.454   .     D
C262   C265    1.532   .     D
C263   H282    1.081   .     S
C264   C266    1.427   .     S
C264   C270    1.423   .     S
C265   C271    1.423   .     S
C265   C275    1.419   .     S
C266   C267    1.400   .     D
C266   H277    1.091   .     S
C267   C268    1.417   .     S
C267   H276    1.087   .     S
C268   C269    1.419   .     S
C268   N303    1.444   .     D
C269   C270    1.406   .     D
C269   H279    1.090   .     S
C270   H278    1.088   .     S
C271   C272    1.407   .     D
C271   H292    1.089   .     S
C272   C273    1.415   .     S
C272   H293    1.092   .     S
C273   C274    1.423   .     S
C273   N335    1.451   .     D
C274   C275    1.405   .     D
C274   H291    1.088   .     S
C275   H290    1.089   .     S
C297   C298    1.416   .     S
C297   C302    1.421   1_655 S
C297   C305    1.527   .     D
C298   C299    1.402   .     D
C298   H307    1.089   .     S
C299   C300    1.420   1_655 S
C299   H308    1.091   .     S
C300   C299    1.420   1_455 S
C300   C301    1.414   .     S
C300   C304    1.527   .     D
C301   C302    1.402   .     D
C301   H309    1.088   .     S
C302   C297    1.421   1_455 S
C302   H310    1.089   .     S
N303   C304    1.298   .     S
C304   H311    1.117   .     S
C305   N306    1.295   .     S
C305   H312    1.116   .     S
C313   C314    1.413   1_665 D
C313   C318    1.414   .     S
C313   C321    1.498   .     S
C314   C313    1.413   1_445 D
C314   C315    1.400   .     S
C314   H323    1.088   .     S
C315   C316    1.415   .     D
C315   H324    1.091   .     S
C316   C317    1.413   1_445 S
C316   C320    1.501   .     S
C317   C316    1.413   1_665 S
C317   C318    1.398   .     D
C317   H325    1.088   .     S
C318   H326    1.092   .     S
N319   C320    1.296   .     D
C320   H327    1.117   .     S
C321   N322    1.299   .     D
C321   H328    1.116   .     S
C329   C330    1.417   .     S
C329   C334    1.420   .     S
C329   C337    1.525   .     D
C330   C331    1.402   .     D
C330   H339    1.091   .     S
C331   C332    1.421   .     S
C331   H340    1.090   .     S
C332   C333    1.417   .     S
C332   C336    1.526   .     D
C333   C334    1.404   .     D
C333   H341    1.090   .     S
C334   H342    1.094   .     S
N335   C336    1.304   .     S
C336   H343    1.114   .     S
C337   N338    1.307   .     S
C337   H344    1.117   .     S
