data_512
_audit_creation_date              2023-09-08
_audit_creation_method            'Materials Studio'
_symmetry_space_group_name_H-M    'P1'
_symmetry_Int_Tables_number       1
_symmetry_cell_setting            triclinic
loop_
_symmetry_equiv_pos_as_xyz
  x,y,z
_cell_length_a                    20.2297
_cell_length_b                    20.2297
_cell_length_c                    4.6810
_cell_angle_alpha                 90.0000
_cell_angle_beta                  90.0000
_cell_angle_gamma                 120.0000
loop_
_atom_site_label
_atom_site_type_symbol
_atom_site_fract_x
_atom_site_fract_y
_atom_site_fract_z
_atom_site_U_iso_or_equiv
_atom_site_adp_type
_atom_site_occupancy
N1     N     0.15606   0.84400   0.46788   0.00000  Uiso   1.00
C2     C     0.04176   0.96258   0.41828   0.00000  Uiso   1.00
C3     C     0.01829   0.89725   0.26175   0.00000  Uiso   1.00
C4     C     0.05726   0.85980   0.27772   0.00000  Uiso   1.00
C5     C     0.11977   0.88613   0.45335   0.00000  Uiso   1.00
C6     C     0.14448   0.95236   0.60635   0.00000  Uiso   1.00
C7     C     0.10574   0.98999   0.58799   0.00000  Uiso   1.00
C8     C     0.20791   0.85370   0.64918   0.00000  Uiso   1.00
C9     C     0.23999   0.80564   0.63848   0.00000  Uiso   1.00
C10    C     0.20840   0.74164   0.46747   0.00000  Uiso   1.00
C11    C     0.23876   0.69603   0.46579   0.00000  Uiso   1.00
C12    C     0.30196   0.71399   0.62933   0.00000  Uiso   1.00
C13    C     0.33380   0.77853   0.79678   0.00000  Uiso   1.00
C14    C     0.30280   0.82355   0.80415   0.00000  Uiso   1.00
H15    H     0.96937   0.87501   0.13003   0.00000  Uiso   1.00
H16    H     0.03854   0.80949   0.15564   0.00000  Uiso   1.00
H17    H     0.19331   0.97562   0.73955   0.00000  Uiso   1.00
H18    H     0.12531   0.04035   0.70812   0.00000  Uiso   1.00
H19    H     0.22813   0.89626   0.81446   0.00000  Uiso   1.00
H20    H     0.15994   0.72683   0.33726   0.00000  Uiso   1.00
H21    H     0.21297   0.64655   0.33757   0.00000  Uiso   1.00
H22    H     0.38252   0.79372   0.92266   0.00000  Uiso   1.00
H23    H     0.32791   0.87243   0.93906   0.00000  Uiso   1.00
N24    N     0.15600   0.31206   0.46788   0.00000  Uiso   1.00
C25    C     0.03742   0.07918   0.41828   0.00000  Uiso   1.00
C26    C     0.10275   0.12104   0.26175   0.00000  Uiso   1.00
C27    C     0.14020   0.19746   0.27772   0.00000  Uiso   1.00
C28    C     0.11387   0.23364   0.45335   0.00000  Uiso   1.00
C29    C     0.04764   0.19212   0.60635   0.00000  Uiso   1.00
C30    C     0.01001   0.11575   0.58799   0.00000  Uiso   1.00
C31    C     0.14630   0.35421   0.64918   0.00000  Uiso   1.00
C32    C     0.19436   0.43435   0.63848   0.00000  Uiso   1.00
C33    C     0.25836   0.46676   0.46747   0.00000  Uiso   1.00
C34    C     0.30397   0.54273   0.46579   0.00000  Uiso   1.00
C35    C     0.28601   0.58797   0.62933   0.00000  Uiso   1.00
C36    C     0.22147   0.55527   0.79678   0.00000  Uiso   1.00
C37    C     0.17645   0.47925   0.80415   0.00000  Uiso   1.00
H38    H     0.12499   0.09436   0.13003   0.00000  Uiso   1.00
H39    H     0.19051   0.22905   0.15564   0.00000  Uiso   1.00
H40    H     0.02438   0.21769   0.73955   0.00000  Uiso   1.00
H41    H     0.95965   0.08496   0.70812   0.00000  Uiso   1.00
H42    H     0.10374   0.33187   0.81446   0.00000  Uiso   1.00
H43    H     0.27317   0.43311   0.33726   0.00000  Uiso   1.00
H44    H     0.35345   0.56642   0.33757   0.00000  Uiso   1.00
H45    H     0.20628   0.58880   0.92266   0.00000  Uiso   1.00
H46    H     0.12757   0.45548   0.93906   0.00000  Uiso   1.00
N47    N     0.68794   0.84394   0.46788   0.00000  Uiso   1.00
C48    C     0.92082   0.95824   0.41828   0.00000  Uiso   1.00
C49    C     0.87896   0.98171   0.26175   0.00000  Uiso   1.00
C50    C     0.80254   0.94274   0.27772   0.00000  Uiso   1.00
C51    C     0.76636   0.88023   0.45335   0.00000  Uiso   1.00
C52    C     0.80788   0.85552   0.60635   0.00000  Uiso   1.00
C53    C     0.88425   0.89426   0.58799   0.00000  Uiso   1.00
C54    C     0.64579   0.79209   0.64918   0.00000  Uiso   1.00
C55    C     0.56565   0.76001   0.63848   0.00000  Uiso   1.00
C56    C     0.53324   0.79160   0.46747   0.00000  Uiso   1.00
C57    C     0.45727   0.76124   0.46579   0.00000  Uiso   1.00
C58    C     0.41203   0.69804   0.62933   0.00000  Uiso   1.00
C59    C     0.44473   0.66620   0.79678   0.00000  Uiso   1.00
C60    C     0.52075   0.69720   0.80415   0.00000  Uiso   1.00
H61    H     0.90564   0.03063   0.13003   0.00000  Uiso   1.00
H62    H     0.77095   0.96146   0.15564   0.00000  Uiso   1.00
H63    H     0.78231   0.80669   0.73955   0.00000  Uiso   1.00
H64    H     0.91504   0.87469   0.70812   0.00000  Uiso   1.00
H65    H     0.66813   0.77187   0.81446   0.00000  Uiso   1.00
H66    H     0.56689   0.84006   0.33726   0.00000  Uiso   1.00
H67    H     0.43358   0.78703   0.33757   0.00000  Uiso   1.00
H68    H     0.41120   0.61748   0.92266   0.00000  Uiso   1.00
H69    H     0.54452   0.67209   0.93906   0.00000  Uiso   1.00
N70    N     0.33333   0.66667   0.62719   0.00000  Uiso   1.00
N71    N     0.00000   0.00000   0.41036   0.00000  Uiso   1.00
loop_
_geom_bond_atom_site_label_1
_geom_bond_atom_site_label_2
_geom_bond_distance
_geom_bond_site_symmetry_2
_ccdc_geom_bond_type
N1     C5      1.377   .     S
N1     C8      1.286   .     D
C2     C3      1.372   .     D
C2     C7      1.377   .     S
C2     N71     1.388   1_565 S
C3     C4      1.341   .     S
C3     H15     1.057   1_455 S
C4     C5      1.373   .     D
C4     H16     1.058   .     S
C5     C6      1.374   .     S
C6     C7      1.341   .     D
C6     H17     1.059   .     S
C7     H18     1.052   1_565 S
C8     C9      1.414   .     S
C8     H19     1.075   .     S
C9     C10     1.378   .     D
C9     C14     1.374   .     S
C10    C11     1.340   .     S
C10    H20     1.062   .     S
C11    C12     1.374   .     D
C11    H21     1.055   .     S
C12    C13     1.376   .     S
C12    N70     1.388   .     S
C13    C14     1.340   .     D
C13    H22     1.054   .     S
C14    H23     1.064   .     S
H15    C3      1.057   1_655 S
H18    C7      1.052   1_545 S
N24    C28     1.377   .     S
N24    C31     1.286   .     D
C25    C26     1.372   .     D
C25    C30     1.377   .     S
C25    N71     1.388   .     S
C26    C27     1.341   .     S
C26    H38     1.057   .     S
C27    C28     1.373   .     D
C27    H39     1.058   .     S
C28    C29     1.374   .     S
C29    C30     1.341   .     D
C29    H40     1.059   .     S
C30    H41     1.052   1_455 S
C31    C32     1.414   .     S
C31    H42     1.075   .     S
C32    C33     1.378   .     D
C32    C37     1.374   .     S
C33    C34     1.340   .     S
C33    H43     1.062   .     S
C34    C35     1.374   .     D
C34    H44     1.055   .     S
C35    C36     1.376   .     S
C35    N70     1.388   .     S
C36    C37     1.340   .     D
C36    H45     1.054   .     S
C37    H46     1.064   .     S
H41    C30     1.052   1_655 S
N47    C51     1.377   .     S
N47    C54     1.286   .     D
C48    C49     1.372   .     D
C48    C53     1.377   .     S
C48    N71     1.388   1_665 S
C49    C50     1.341   .     S
C49    H61     1.057   1_565 S
C50    C51     1.373   .     D
C50    H62     1.058   .     S
C51    C52     1.374   .     S
C52    C53     1.341   .     D
C52    H63     1.059   .     S
C53    H64     1.052   .     S
C54    C55     1.414   .     S
C54    H65     1.075   .     S
C55    C56     1.378   .     D
C55    C60     1.374   .     S
C56    C57     1.340   .     S
C56    H66     1.062   .     S
C57    C58     1.374   .     D
C57    H67     1.055   .     S
C58    C59     1.376   .     S
C58    N70     1.388   .     S
C59    C60     1.340   .     D
C59    H68     1.054   .     S
C60    H69     1.064   .     S
H61    C49     1.057   1_545 S
N71    C2      1.388   1_545 S
N71    C48     1.388   1_445 S
