data_513
_audit_creation_date              2023-09-08
_audit_creation_method            'Materials Studio'
_symmetry_space_group_name_H-M    'P1'
_symmetry_Int_Tables_number       1
_symmetry_cell_setting            triclinic
loop_
_symmetry_equiv_pos_as_xyz
  x,y,z
_cell_length_a                    21.3710
_cell_length_b                    22.9612
_cell_length_c                    3.7605
_cell_angle_alpha                 90.0000
_cell_angle_beta                  90.0000
_cell_angle_gamma                 120.0000
loop_
_atom_site_label
_atom_site_type_symbol
_atom_site_fract_x
_atom_site_fract_y
_atom_site_fract_z
_atom_site_U_iso_or_equiv
_atom_site_adp_type
_atom_site_occupancy
N1     N     0.14587   0.86438   0.57899   0.00000  Uiso   1.00
N2     N     0.37085   0.72916   0.39912   0.00000  Uiso   1.00
N3     N     0.71974   0.85984   0.51792   0.00000  Uiso   1.00
N4     N     0.13777   0.27860   0.54499   0.00000  Uiso   1.00
N5     N    -0.99844   1.00040   0.59066   0.00000  Uiso   1.00
C6     C     0.03995   0.96750   0.59356   0.00000  Uiso   1.00
C7     C     0.01682   0.90768   0.75215   0.00000  Uiso   1.00
C8     C     0.05268   0.87518   0.74749   0.00000  Uiso   1.00
C9     C     0.11261   0.90132   0.58377   0.00000  Uiso   1.00
C10    C     0.13713   0.96176   0.42941   0.00000  Uiso   1.00
C11    C     0.10107   0.99410   0.43457   0.00000  Uiso   1.00
C12    C     0.19861   0.87745   0.41691   0.00000  Uiso   1.00
C13    C     0.22604   0.83352   0.43096   0.00000  Uiso   1.00
C14    C     0.19362   0.77431   0.59932   0.00000  Uiso   1.00
C15    C     0.21911   0.73227   0.60032   0.00000  Uiso   1.00
C16    C     0.27763   0.74868   0.43286   0.00000  Uiso   1.00
C17    C     0.31075   0.80866   0.27149   0.00000  Uiso   1.00
C18    C     0.28502   0.85049   0.26907   0.00000  Uiso   1.00
C19    C     0.30462   0.70403   0.42229   0.00000  Uiso   1.00
C20    C     0.26323   0.63637   0.42382   0.00000  Uiso   1.00
C21    C     0.29029   0.59557   0.40359   0.00000  Uiso   1.00
C22    C     0.35881   0.62359   0.38136   0.00000  Uiso   1.00
C23    C     0.39907   0.69132   0.37806   0.00000  Uiso   1.00
C24    C     0.47174   0.72243   0.35935   0.00000  Uiso   1.00
C25    C     0.24722   0.52388   0.40186   0.00000  Uiso   1.00
C26    C     0.50211   0.69373   0.18478   0.00000  Uiso   1.00
C27    C     0.57066   0.72307   0.17533   0.00000  Uiso   1.00
C28    C     0.61018   0.78145   0.34053   0.00000  Uiso   1.00
C29    C     0.58005   0.81074   0.51098   0.00000  Uiso   1.00
C30    C     0.51148   0.78170   0.51833   0.00000  Uiso   1.00
C31    C     0.18778   0.49459   0.22770   0.00000  Uiso   1.00
C32    C     0.14793   0.42705   0.22055   0.00000  Uiso   1.00
C33    C     0.16662   0.38746   0.38748   0.00000  Uiso   1.00
C34    C     0.22572   0.41657   0.56373   0.00000  Uiso   1.00
C35    C     0.26564   0.48411   0.57073   0.00000  Uiso   1.00
C36    C     0.68242   0.81085   0.33242   0.00000  Uiso   1.00
C37    C     0.12436   0.31622   0.37196   0.00000  Uiso   1.00
C38    C     0.79028   0.89248   0.53804   0.00000  Uiso   1.00
C39    C     0.10146   0.20884   0.55382   0.00000  Uiso   1.00
C40    C     0.04065   0.17149   0.39726   0.00000  Uiso   1.00
C41    C     0.00840   0.10371   0.41046   0.00000  Uiso   1.00
C42    C     0.03506   0.07114   0.58173   0.00000  Uiso   1.00
C43    C     0.09539   0.10917   0.74163   0.00000  Uiso   1.00
C44    C     0.12805   0.17702   0.72753   0.00000  Uiso   1.00
C45    C     0.82783   0.86731   0.40286   0.00000  Uiso   1.00
C46    C     0.89652   0.90214   0.42476   0.00000  Uiso   1.00
C47    C     0.92976   0.96273   0.58155   0.00000  Uiso   1.00
C48    C     0.89125   0.98625   0.72402   0.00000  Uiso   1.00
C49    C     0.82256   0.95149   0.70319   0.00000  Uiso   1.00
H50    H    -0.02983   0.88515   0.87316   0.00000  Uiso   1.00
H51    H     0.03358   0.82896   0.86968   0.00000  Uiso   1.00
H52    H     0.18359   0.98442   0.30319   0.00000  Uiso   1.00
H53    H     0.12126   1.04010   0.31407   0.00000  Uiso   1.00
H54    H     0.22277   0.91967   0.26261   0.00000  Uiso   1.00
H55    H     0.14856   0.76070   0.73036   0.00000  Uiso   1.00
H56    H     0.19358   0.68757   0.73703   0.00000  Uiso   1.00
H57    H     0.35575   0.82227   0.13963   0.00000  Uiso   1.00
H58    H     0.31073   0.89576   0.13659   0.00000  Uiso   1.00
H59    H     0.21044   0.61552   0.43789   0.00000  Uiso   1.00
H60    H     0.38049   0.59284   0.36713   0.00000  Uiso   1.00
H61    H     0.47305   0.64932   0.04975   0.00000  Uiso   1.00
H62    H     0.59291   0.70023   0.03790   0.00000  Uiso   1.00
H63    H     0.60965   0.85578   0.64073   0.00000  Uiso   1.00
H64    H     0.48919   0.80458   0.65528   0.00000  Uiso   1.00
H65    H     0.17303   0.52384   0.08909   0.00000  Uiso   1.00
H66    H     0.10289   0.40562   0.08034   0.00000  Uiso   1.00
H67    H     0.24076   0.38698   0.69740   0.00000  Uiso   1.00
H68    H     0.31033   0.50530   0.71341   0.00000  Uiso   1.00
H69    H     0.70322   0.79069   0.16710   0.00000  Uiso   1.00
H70    H     0.08268   0.29653   0.20972   0.00000  Uiso   1.00
H71    H     0.01751   0.19365   0.26380   0.00000  Uiso   1.00
H72    H    -0.03784   0.07674   0.28800   0.00000  Uiso   1.00
H73    H     0.11781   0.08648   0.87399   0.00000  Uiso   1.00
H74    H     0.17446   0.20528   0.85231   0.00000  Uiso   1.00
H75    H     0.80495   0.82090   0.28180   0.00000  Uiso   1.00
H76    H     0.92346   0.88115   0.32082   0.00000  Uiso   1.00
H77    H     0.91412   1.03239   0.84435   0.00000  Uiso   1.00
H78    H     0.79405   0.97080   0.81290   0.00000  Uiso   1.00
loop_
_geom_bond_atom_site_label_1
_geom_bond_atom_site_label_2
_geom_bond_distance
_geom_bond_site_symmetry_2
_ccdc_geom_bond_type
N1     C9      1.352   .     S
N1     C12     1.181   .     D
N2     C19     1.236   .     D
N2     C23     1.284   .     S
N3     C36     1.221   .     D
N3     C38     1.308   .     S
N4     C37     1.224   .     D
N4     C39     1.388   .     S
N5     C6      1.365   1_455 S
N5     C42     1.410   1_465 S
N5     C47     1.333   1_355 S
C6     N5      1.365   1_655 S
C6     C7      1.344   .     D
C6     C11     1.280   .     S
C7     C8      1.310   .     S
C7     H50     0.976   .     S
C8     C9      1.269   .     D
C8     H51     1.035   .     S
C9     C10     1.345   .     S
C10    C11     1.311   .     D
C10    H52     0.982   .     S
C11    H53     1.025   .     S
C12    C13     1.398   .     S
C12    H54     1.021   .     S
C13    C14     1.337   .     D
C13    C18     1.273   .     S
C14    C15     1.325   .     S
C14    H55     0.983   .     S
C15    C16     1.277   .     D
C15    H56     1.027   .     S
C16    C17     1.338   .     S
C16    C19     1.406   .     S
C17    C18     1.324   .     D
C17    H57     0.984   .     S
C18    H58     1.029   .     S
C19    C20     1.350   .     S
C20    C21     1.327   .     D
C20    H59     0.982   .     S
C21    C22     1.274   .     S
C21    C25     1.429   .     S
C22    C23     1.349   .     D
C22    H60     1.021   .     S
C23    C24     1.348   .     S
C24    C26     1.309   .     D
C24    C30     1.332   .     S
C25    C31     1.281   .     D
C25    C35     1.323   .     S
C26    C27     1.271   .     S
C26    H61     1.025   .     S
C27    C28     1.328   .     D
C27    H62     1.009   .     S
C28    C29     1.308   .     S
C28    C36     1.341   .     S
C29    C30     1.271   .     D
C29    H63     1.026   .     S
C30    H64     1.009   .     S
C31    C32     1.345   .     S
C31    H65     1.017   .     S
C32    C33     1.320   .     D
C32    H66     0.986   .     S
C33    C34     1.279   .     S
C33    C37     1.420   .     S
C34    C35     1.346   .     D
C34    H67     1.018   .     S
C35    H68     0.986   .     S
C36    H69     1.002   .     S
C37    H70     0.984   .     S
C38    C45     1.304   .     D
C38    C49     1.328   .     S
C39    C40     1.287   .     D
C39    C44     1.303   .     S
C40    C41     1.352   .     S
C40    H71     1.003   .     S
C41    C42     1.313   .     D
C41    H72     0.980   .     S
C42    N5      1.410   1_645 S
C42    C43     1.289   .     S
C43    C44     1.353   .     D
C43    H73     0.999   .     S
C44    H74     0.991   .     S
C45    C46     1.276   .     S
C45    H75     1.030   .     S
C46    C47     1.341   .     D
C46    H76     0.997   .     S
C47    N5      1.333   1_755 S
C47    C48     1.304   .     S
C48    C49     1.275   .     D
C48    H77     1.024   .     S
C49    H78     1.004   .     S
