data_514
_audit_creation_date              2023-09-08
_audit_creation_method            'Materials Studio'
_symmetry_space_group_name_H-M    'P1'
_symmetry_Int_Tables_number       1
_symmetry_cell_setting            triclinic
loop_
_symmetry_equiv_pos_as_xyz
  x,y,z
_cell_length_a                    31.5000
_cell_length_b                    31.5000
_cell_length_c                    3.3000
_cell_angle_alpha                 90.0000
_cell_angle_beta                  90.0000
_cell_angle_gamma                 120.0000
loop_
_atom_site_label
_atom_site_type_symbol
_atom_site_fract_x
_atom_site_fract_y
_atom_site_fract_z
_atom_site_U_iso_or_equiv
_atom_site_adp_type
_atom_site_occupancy
O1     O     0.29695   0.57697   0.00000   0.00000  Uiso   1.00
N2     N     0.38245   0.58505   0.00000   0.00000  Uiso   1.00
C3     C     0.31382   0.61757   0.00000   0.00000  Uiso   1.00
C4     C     0.39342   0.63145   0.00000   0.00000  Uiso   1.00
C5     C     0.41468   0.56990   0.00000   0.00000  Uiso   1.00
C6     C     0.46145   0.59947   0.00000   0.00000  Uiso   1.00
C7     C     0.49111   0.58277   0.00000   0.00000  Uiso   1.00
C8     C     0.47494   0.53664   0.00000   0.00000  Uiso   1.00
C9     C     0.42853   0.50701   0.00000   0.00000  Uiso   1.00
C10    C     0.39878   0.52354   0.00000   0.00000  Uiso   1.00
C11    C     0.36359   0.64675   0.00000   0.00000  Uiso   1.00
H12    H     0.42849   0.65656   0.00000   0.00000  Uiso   1.00
H13    H     0.47589   0.63531   0.00000   0.00000  Uiso   1.00
H14    H     0.34922   0.55946   0.00000   0.00000  Uiso   1.00
H15    H     0.36308   0.50007   0.00000   0.00000  Uiso   1.00
H16    H     0.52692   0.60571   0.00000   0.00000  Uiso   1.00
H17    H     0.41558   0.47120   0.00000   0.00000  Uiso   1.00
O18    O     0.42303   0.71998   0.00000   0.00000  Uiso   1.00
N19    N     0.41495   0.79740   0.00000   0.00000  Uiso   1.00
C20    C     0.38243   0.69625   0.00000   0.00000  Uiso   1.00
C21    C     0.36855   0.76197   0.00000   0.00000  Uiso   1.00
C22    C     0.43010   0.84478   0.00000   0.00000  Uiso   1.00
C23    C     0.40053   0.86198   0.00000   0.00000  Uiso   1.00
C24    C     0.41723   0.90834   0.00000   0.00000  Uiso   1.00
C25    C     0.46336   0.93830   0.00000   0.00000  Uiso   1.00
C26    C     0.49299   0.92152   0.00000   0.00000  Uiso   1.00
C27    C     0.47646   0.87524   0.00000   0.00000  Uiso   1.00
C28    C     0.35325   0.71684   0.00000   0.00000  Uiso   1.00
H29    H     0.34344   0.77193   0.00000   0.00000  Uiso   1.00
H30    H     0.36469   0.84058   0.00000   0.00000  Uiso   1.00
H31    H     0.44054   0.78976   0.00000   0.00000  Uiso   1.00
H32    H     0.49993   0.86301   0.00000   0.00000  Uiso   1.00
H33    H     0.39429   0.92121   0.00000   0.00000  Uiso   1.00
H34    H     0.52880   0.94438   0.00000   0.00000  Uiso   1.00
O35    O     0.28002   0.70305   0.00000   0.00000  Uiso   1.00
N36    N     0.20260   0.61755   0.00000   0.00000  Uiso   1.00
C37    C     0.30375   0.68618   0.00000   0.00000  Uiso   1.00
C38    C     0.23803   0.60658   0.00000   0.00000  Uiso   1.00
C39    C     0.15522   0.58532   0.00000   0.00000  Uiso   1.00
C40    C     0.13802   0.53855   0.00000   0.00000  Uiso   1.00
C41    C     0.09166   0.50889   0.00000   0.00000  Uiso   1.00
C42    C     0.06170   0.52506   0.00000   0.00000  Uiso   1.00
C43    C     0.07848   0.57147   0.00000   0.00000  Uiso   1.00
C44    C     0.12476   0.60122   0.00000   0.00000  Uiso   1.00
C45    C     0.28316   0.63641   0.00000   0.00000  Uiso   1.00
H46    H     0.22807   0.57151   0.00000   0.00000  Uiso   1.00
H47    H     0.15942   0.52411   0.00000   0.00000  Uiso   1.00
H48    H     0.21024   0.65078   0.00000   0.00000  Uiso   1.00
H49    H     0.13699   0.63692   0.00000   0.00000  Uiso   1.00
H50    H     0.07879   0.47308   0.00000   0.00000  Uiso   1.00
H51    H     0.05562   0.58442   0.00000   0.00000  Uiso   1.00
O52    O     0.70305   0.42303   0.00000   0.00000  Uiso   1.00
N53    N     0.61755   0.41495   0.00000   0.00000  Uiso   1.00
C54    C     0.68618   0.38243   0.00000   0.00000  Uiso   1.00
C55    C     0.60658   0.36855   0.00000   0.00000  Uiso   1.00
C56    C     0.58532   0.43010   0.00000   0.00000  Uiso   1.00
C57    C     0.53855   0.40053   0.00000   0.00000  Uiso   1.00
C58    C     0.50889   0.41723   0.00000   0.00000  Uiso   1.00
C59    C     0.52506   0.46336   0.00000   0.00000  Uiso   1.00
C60    C     0.57147   0.49299   0.00000   0.00000  Uiso   1.00
C61    C     0.60122   0.47646   0.00000   0.00000  Uiso   1.00
C62    C     0.63641   0.35325   0.00000   0.00000  Uiso   1.00
H63    H     0.57151   0.34344   0.00000   0.00000  Uiso   1.00
H64    H     0.52411   0.36469   0.00000   0.00000  Uiso   1.00
H65    H     0.65078   0.44054   0.00000   0.00000  Uiso   1.00
H66    H     0.63692   0.49993   0.00000   0.00000  Uiso   1.00
H67    H     0.47308   0.39429   0.00000   0.00000  Uiso   1.00
H68    H     0.58442   0.52880   0.00000   0.00000  Uiso   1.00
O69    O     0.57697   0.28002   0.00000   0.00000  Uiso   1.00
N70    N     0.58505   0.20260   0.00000   0.00000  Uiso   1.00
C71    C     0.61757   0.30375   0.00000   0.00000  Uiso   1.00
C72    C     0.63145   0.23803   0.00000   0.00000  Uiso   1.00
C73    C     0.56990   0.15522   0.00000   0.00000  Uiso   1.00
C74    C     0.59947   0.13802   0.00000   0.00000  Uiso   1.00
C75    C     0.58277   0.09166   0.00000   0.00000  Uiso   1.00
C76    C     0.53664   0.06170   0.00000   0.00000  Uiso   1.00
C77    C     0.50701   0.07848   0.00000   0.00000  Uiso   1.00
C78    C     0.52354   0.12476   0.00000   0.00000  Uiso   1.00
C79    C     0.64675   0.28316   0.00000   0.00000  Uiso   1.00
H80    H     0.65656   0.22807   0.00000   0.00000  Uiso   1.00
H81    H     0.63531   0.15942   0.00000   0.00000  Uiso   1.00
H82    H     0.55946   0.21024   0.00000   0.00000  Uiso   1.00
H83    H     0.50007   0.13699   0.00000   0.00000  Uiso   1.00
H84    H     0.60571   0.07879   0.00000   0.00000  Uiso   1.00
H85    H     0.47120   0.05562   0.00000   0.00000  Uiso   1.00
O86    O     0.71998   0.29695   0.00000   0.00000  Uiso   1.00
N87    N     0.79740   0.38245   0.00000   0.00000  Uiso   1.00
C88    C     0.69625   0.31382   0.00000   0.00000  Uiso   1.00
C89    C     0.76197   0.39342   0.00000   0.00000  Uiso   1.00
C90    C     0.84478   0.41468   0.00000   0.00000  Uiso   1.00
C91    C     0.86198   0.46145   0.00000   0.00000  Uiso   1.00
C92    C     0.90834   0.49111   0.00000   0.00000  Uiso   1.00
C93    C     0.93830   0.47494   0.00000   0.00000  Uiso   1.00
C94    C     0.92152   0.42853   0.00000   0.00000  Uiso   1.00
C95    C     0.87524   0.39878   0.00000   0.00000  Uiso   1.00
C96    C     0.71684   0.36359   0.00000   0.00000  Uiso   1.00
H97    H     0.77193   0.42849   0.00000   0.00000  Uiso   1.00
H98    H     0.84058   0.47589   0.00000   0.00000  Uiso   1.00
H99    H     0.78976   0.34922   0.00000   0.00000  Uiso   1.00
H100   H     0.86301   0.36308   0.00000   0.00000  Uiso   1.00
H101   H     0.92121   0.52692   0.00000   0.00000  Uiso   1.00
H102   H     0.94438   0.41558   0.00000   0.00000  Uiso   1.00
N103   N     0.50627   0.52081   0.00000   0.00000  Uiso   1.00
N104   N     0.47919   0.98546   0.00000   0.00000  Uiso   1.00
N105   N     0.01454   0.49373   0.00000   0.00000  Uiso   1.00
N106   N     0.49373   0.47919   0.00000   0.00000  Uiso   1.00
N107   N     0.52081   0.01454   0.00000   0.00000  Uiso   1.00
N108   N     0.98546   0.50627   0.00000   0.00000  Uiso   1.00
loop_
_geom_bond_atom_site_label_1
_geom_bond_atom_site_label_2
_geom_bond_distance
_geom_bond_site_symmetry_2
_ccdc_geom_bond_type
O1     C3      1.113   .     D
N2     C4      1.323   .     S
N2     C5      1.320   .     S
N2     H14     0.950   .     S
C3     C11     1.364   .     S
C3     C45     1.363   .     S
C4     C11     1.252   .     D
C4     H12     0.986   .     S
C5     C6      1.291   .     D
C5     C10     1.285   .     S
C6     C7      1.281   .     S
C6     H13     0.984   .     S
C7     C8      1.277   .     D
C7     H16     0.990   .     S
C8     C9      1.282   .     S
C8     N103    1.309   .     S
C9     C10     1.280   .     D
C9     H17     0.989   .     S
C10    H15     0.990   .     S
C11    C20     1.363   .     S
O18    C20     1.113   .     D
N19    C21     1.323   .     S
N19    C22     1.320   .     S
N19    H31     0.950   .     S
C20    C28     1.364   .     S
C21    C28     1.252   .     D
C21    H29     0.986   .     S
C22    C23     1.291   .     D
C22    C27     1.285   .     S
C23    C24     1.281   .     S
C23    H30     0.984   .     S
C24    C25     1.277   .     D
C24    H33     0.990   .     S
C25    C26     1.282   .     S
C25    N104    1.309   .     S
C26    C27     1.280   .     D
C26    H34     0.989   .     S
C27    H32     0.990   .     S
C28    C37     1.363   .     S
O35    C37     1.113   .     D
N36    C38     1.323   .     S
N36    C39     1.320   .     S
N36    H48     0.950   .     S
C37    C45     1.364   .     S
C38    C45     1.252   .     D
C38    H46     0.986   .     S
C39    C40     1.291   .     S
C39    C44     1.285   .     D
C40    C41     1.281   .     D
C40    H47     0.984   .     S
C41    C42     1.277   .     S
C41    H50     0.990   .     S
C42    C43     1.282   .     D
C42    N105    1.309   .     S
C43    C44     1.280   .     S
C43    H51     0.989   .     S
C44    H49     0.990   .     S
O52    C54     1.113   .     D
N53    C55     1.323   .     S
N53    C56     1.320   .     S
N53    H65     0.950   .     S
C54    C62     1.364   .     S
C54    C96     1.363   .     S
C55    C62     1.252   .     D
C55    H63     0.986   .     S
C56    C57     1.291   .     D
C56    C61     1.285   .     S
C57    C58     1.281   .     S
C57    H64     0.984   .     S
C58    C59     1.277   .     D
C58    H67     0.990   .     S
C59    C60     1.282   .     S
C59    N106    1.309   .     S
C60    C61     1.280   .     D
C60    H68     0.989   .     S
C61    H66     0.990   .     S
C62    C71     1.363   .     S
O69    C71     1.113   .     D
N70    C72     1.323   .     S
N70    C73     1.320   .     S
N70    H82     0.950   .     S
C71    C79     1.364   .     S
C72    C79     1.252   .     D
C72    H80     0.986   .     S
C73    C74     1.291   .     D
C73    C78     1.285   .     S
C74    C75     1.281   .     S
C74    H81     0.984   .     S
C75    C76     1.277   .     D
C75    H84     0.990   .     S
C76    C77     1.282   .     S
C76    N107    1.309   .     S
C77    C78     1.280   .     D
C77    H85     0.989   .     S
C78    H83     0.990   .     S
C79    C88     1.363   .     S
O86    C88     1.113   .     D
N87    C89     1.323   .     S
N87    C90     1.320   .     S
N87    H99     0.950   .     S
C88    C96     1.364   .     S
C89    C96     1.252   .     D
C89    H97     0.986   .     S
C90    C91     1.291   .     S
C90    C95     1.285   .     D
C91    C92     1.281   .     D
C91    H98     0.984   .     S
C92    C93     1.277   .     S
C92    H101    0.990   .     S
C93    C94     1.282   .     D
C93    N108    1.309   .     S
C94    C95     1.280   .     S
C94    H102    0.989   .     S
C95    H100    0.990   .     S
N103   N106    1.165   .     D
N104   N107    1.165   1_565 D
N105   N108    1.165   1_455 D
N107   N104    1.165   1_545 D
N108   N105    1.165   1_655 D
