data_515
_audit_creation_date              2023-09-08
_audit_creation_method            'Materials Studio'
_symmetry_space_group_name_H-M    'P1'
_symmetry_Int_Tables_number       1
_symmetry_cell_setting            triclinic
loop_
_symmetry_equiv_pos_as_xyz
  x,y,z
_cell_length_a                    35.5832
_cell_length_b                    35.5832
_cell_length_c                    4.2857
_cell_angle_alpha                 90.0000
_cell_angle_beta                  90.0000
_cell_angle_gamma                 120.0000
loop_
_atom_site_label
_atom_site_type_symbol
_atom_site_fract_x
_atom_site_fract_y
_atom_site_fract_z
_atom_site_U_iso_or_equiv
_atom_site_adp_type
_atom_site_occupancy
C1     C     0.64593   0.28777   0.56889   0.00000  Uiso   1.00
C2     C     0.69136   0.31269   0.57276   0.00000  Uiso   1.00
C3     C     0.62522   0.24118   0.49613   0.00000  Uiso   1.00
C4     C     0.59080   0.22365   0.27702   0.00000  Uiso   1.00
C5     C     0.57416   0.18163   0.16445   0.00000  Uiso   1.00
C6     C     0.59166   0.15609   0.27253   0.00000  Uiso   1.00
C7     C     0.62585   0.17333   0.49430   0.00000  Uiso   1.00
C8     C     0.64242   0.21551   0.60468   0.00000  Uiso   1.00
N9     N     0.57678   0.11401   0.16198   0.00000  Uiso   1.00
C10    C     0.53731   0.09094   0.06492   0.00000  Uiso   1.00
C11    C     0.51935   0.04553  -0.01890   0.00000  Uiso   1.00
C12    C     0.47386   0.01926  -0.03710   0.00000  Uiso   1.00
C13    C     0.45441   0.97403  -0.04048   0.00000  Uiso   1.00
H14    H     0.57815   0.24400   0.18390   0.00000  Uiso   1.00
H15    H     0.54863   0.16916  -0.01709   0.00000  Uiso   1.00
H16    H     0.63883   0.15302   0.58128   0.00000  Uiso   1.00
H17    H     0.66912   0.22894   0.77729   0.00000  Uiso   1.00
H18    H     0.58942   0.48656   0.07201   0.00000  Uiso   1.00
O19    O     0.53682   0.59009  -0.05043   0.00000  Uiso   1.00
C20    C     0.58249   0.61545  -0.10400   0.00000  Uiso   1.00
O21    O     0.59069   0.65854  -0.15735   0.00000  Uiso   1.00
C22    C     0.63556   0.68737  -0.24369   0.00000  Uiso   1.00
C23    C     0.64057   0.73084  -0.32508   0.00000  Uiso   1.00
O24    O     0.68528   0.75923  -0.41981   0.00000  Uiso   1.00
C25    C     0.69211   0.80113  -0.51204   0.00000  Uiso   1.00
H26    H     0.45428   0.03521  -0.02428   0.00000  Uiso   1.00
H27    H     0.59253   0.60320  -0.31719   0.00000  Uiso   1.00
H28    H     0.60149   0.61437   0.10865   0.00000  Uiso   1.00
H29    H     0.64436   0.67363  -0.45057   0.00000  Uiso   1.00
H30    H     0.65729   0.69003  -0.04306   0.00000  Uiso   1.00
H31    H     0.63257   0.74504  -0.11724   0.00000  Uiso   1.00
H32    H     0.61832   0.72781  -0.52235   0.00000  Uiso   1.00
H33    H     0.67132   0.79831  -0.71737   0.00000  Uiso   1.00
H34    H     0.72643   0.82147  -0.57882   0.00000  Uiso   1.00
H35    H     0.68457   0.81678  -0.31345   0.00000  Uiso   1.00
H36    H     0.28940   0.70362   0.55719   0.00000  Uiso   1.00
C37    C     0.71223   0.35816   0.56889   0.00000  Uiso   1.00
C38    C     0.68731   0.37867   0.57276   0.00000  Uiso   1.00
C39    C     0.75882   0.38404   0.49613   0.00000  Uiso   1.00
C40    C     0.77635   0.36715   0.27702   0.00000  Uiso   1.00
C41    C     0.81837   0.39253   0.16445   0.00000  Uiso   1.00
C42    C     0.84391   0.43557   0.27253   0.00000  Uiso   1.00
C43    C     0.82667   0.45252   0.49430   0.00000  Uiso   1.00
C44    C     0.78449   0.42691   0.60468   0.00000  Uiso   1.00
N45    N     0.88599   0.46277   0.16198   0.00000  Uiso   1.00
C46    C     0.90906   0.44637   0.06492   0.00000  Uiso   1.00
C47    C     0.95447   0.47382  -0.01890   0.00000  Uiso   1.00
C48    C     0.98074   0.45460  -0.03710   0.00000  Uiso   1.00
C49    C     0.02597   0.48038  -0.04048   0.00000  Uiso   1.00
H50    H     0.75600   0.33415   0.18390   0.00000  Uiso   1.00
H51    H     0.83084   0.37947  -0.01709   0.00000  Uiso   1.00
H52    H     0.84698   0.48581   0.58128   0.00000  Uiso   1.00
H53    H     0.77106   0.44018   0.77729   0.00000  Uiso   1.00
H54    H     0.51344   0.10286   0.07201   0.00000  Uiso   1.00
O55    O     0.40991   0.94673  -0.05043   0.00000  Uiso   1.00
C56    C     0.38455   0.96704  -0.10400   0.00000  Uiso   1.00
O57    O     0.34146   0.93215  -0.15735   0.00000  Uiso   1.00
C58    C     0.31263   0.94819  -0.24369   0.00000  Uiso   1.00
C59    C     0.26916   0.90973  -0.32508   0.00000  Uiso   1.00
O60    O     0.24077   0.92605  -0.41981   0.00000  Uiso   1.00
C61    C     0.19887   0.89098  -0.51204   0.00000  Uiso   1.00
H62    H     0.96479   0.41907  -0.02428   0.00000  Uiso   1.00
H63    H     0.39680   0.98933  -0.31719   0.00000  Uiso   1.00
H64    H     0.38563   0.98712   0.10865   0.00000  Uiso   1.00
H65    H     0.32637   0.97073  -0.45057   0.00000  Uiso   1.00
H66    H     0.30997   0.96726  -0.04306   0.00000  Uiso   1.00
H67    H     0.25496   0.88753  -0.11724   0.00000  Uiso   1.00
H68    H     0.27219   0.89051  -0.52235   0.00000  Uiso   1.00
H69    H     0.20169   0.87301  -0.71737   0.00000  Uiso   1.00
H70    H     0.17853   0.90496  -0.57882   0.00000  Uiso   1.00
H71    H     0.18322   0.86779  -0.31345   0.00000  Uiso   1.00
H72    H     0.29638   0.58578   0.55719   0.00000  Uiso   1.00
C73    C     0.64184   0.35407   0.56889   0.00000  Uiso   1.00
C74    C     0.62133   0.30864   0.57276   0.00000  Uiso   1.00
C75    C     0.61596   0.37478   0.49613   0.00000  Uiso   1.00
C76    C     0.63285   0.40920   0.27702   0.00000  Uiso   1.00
C77    C     0.60747   0.42584   0.16445   0.00000  Uiso   1.00
C78    C     0.56443   0.40834   0.27253   0.00000  Uiso   1.00
C79    C     0.54748   0.37415   0.49430   0.00000  Uiso   1.00
C80    C     0.57309   0.35758   0.60468   0.00000  Uiso   1.00
N81    N     0.53723   0.42322   0.16198   0.00000  Uiso   1.00
C82    C     0.55363   0.46269   0.06492   0.00000  Uiso   1.00
C83    C     0.52618   0.48065  -0.01890   0.00000  Uiso   1.00
C84    C     0.54540   0.52614  -0.03710   0.00000  Uiso   1.00
C85    C     0.51962   0.54559  -0.04048   0.00000  Uiso   1.00
H86    H     0.66585   0.42185   0.18390   0.00000  Uiso   1.00
H87    H     0.62053   0.45137  -0.01709   0.00000  Uiso   1.00
H88    H     0.51419   0.36117   0.58128   0.00000  Uiso   1.00
H89    H     0.55982   0.33088   0.77729   0.00000  Uiso   1.00
H90    H     0.89714   0.41058   0.07201   0.00000  Uiso   1.00
O91    O     0.05327   0.46318  -0.05043   0.00000  Uiso   1.00
C92    C     0.03296   0.41751  -0.10400   0.00000  Uiso   1.00
O93    O     0.06785   0.40931  -0.15735   0.00000  Uiso   1.00
C94    C     0.05181   0.36444  -0.24369   0.00000  Uiso   1.00
C95    C     0.09027   0.35943  -0.32508   0.00000  Uiso   1.00
O96    O     0.07395   0.31472  -0.41981   0.00000  Uiso   1.00
C97    C     0.10902   0.30789  -0.51204   0.00000  Uiso   1.00
H98    H     0.58093   0.54572  -0.02428   0.00000  Uiso   1.00
H99    H     0.01067   0.40747  -0.31719   0.00000  Uiso   1.00
H100   H     0.01288   0.39851   0.10865   0.00000  Uiso   1.00
H101   H     0.02927   0.35564  -0.45057   0.00000  Uiso   1.00
H102   H     0.03274   0.34271  -0.04306   0.00000  Uiso   1.00
H103   H     0.11247   0.36743  -0.11724   0.00000  Uiso   1.00
H104   H     0.10949   0.38168  -0.52235   0.00000  Uiso   1.00
H105   H     0.12699   0.32868  -0.71737   0.00000  Uiso   1.00
H106   H     0.09504   0.27357  -0.57882   0.00000  Uiso   1.00
H107   H     0.13221   0.31543  -0.31345   0.00000  Uiso   1.00
H108   H     0.41422   0.71060   0.55719   0.00000  Uiso   1.00
C109   C     0.35407   0.71223   0.56889   0.00000  Uiso   1.00
C110   C     0.30864   0.68731   0.57276   0.00000  Uiso   1.00
C111   C     0.37478   0.75882   0.49613   0.00000  Uiso   1.00
C112   C     0.40920   0.77635   0.27702   0.00000  Uiso   1.00
C113   C     0.42584   0.81837   0.16445   0.00000  Uiso   1.00
C114   C     0.40834   0.84391   0.27253   0.00000  Uiso   1.00
C115   C     0.37415   0.82667   0.49430   0.00000  Uiso   1.00
C116   C     0.35758   0.78449   0.60468   0.00000  Uiso   1.00
N117   N     0.42322   0.88599   0.16198   0.00000  Uiso   1.00
C118   C     0.46269   0.90906   0.06492   0.00000  Uiso   1.00
C119   C     0.48065   0.95447  -0.01890   0.00000  Uiso   1.00
C120   C     0.52614   0.98074  -0.03710   0.00000  Uiso   1.00
C121   C     0.54559   0.02597  -0.04048   0.00000  Uiso   1.00
H122   H     0.42185   0.75600   0.18390   0.00000  Uiso   1.00
H123   H     0.45137   0.83084  -0.01709   0.00000  Uiso   1.00
H124   H     0.36117   0.84698   0.58128   0.00000  Uiso   1.00
H125   H     0.33088   0.77106   0.77729   0.00000  Uiso   1.00
H126   H     0.41058   0.51344   0.07201   0.00000  Uiso   1.00
O127   O     0.46318   0.40991  -0.05043   0.00000  Uiso   1.00
C128   C     0.41751   0.38455  -0.10400   0.00000  Uiso   1.00
O129   O     0.40931   0.34146  -0.15735   0.00000  Uiso   1.00
C130   C     0.36444   0.31263  -0.24369   0.00000  Uiso   1.00
C131   C     0.35943   0.26916  -0.32508   0.00000  Uiso   1.00
O132   O     0.31472   0.24077  -0.41981   0.00000  Uiso   1.00
C133   C     0.30789   0.19887  -0.51204   0.00000  Uiso   1.00
H134   H     0.54572   0.96479  -0.02428   0.00000  Uiso   1.00
H135   H     0.40747   0.39680  -0.31719   0.00000  Uiso   1.00
H136   H     0.39851   0.38563   0.10865   0.00000  Uiso   1.00
H137   H     0.35564   0.32637  -0.45057   0.00000  Uiso   1.00
H138   H     0.34271   0.30997  -0.04306   0.00000  Uiso   1.00
H139   H     0.36743   0.25496  -0.11724   0.00000  Uiso   1.00
H140   H     0.38168   0.27219  -0.52235   0.00000  Uiso   1.00
H141   H     0.32868   0.20169  -0.71737   0.00000  Uiso   1.00
H142   H     0.27357   0.17853  -0.57882   0.00000  Uiso   1.00
H143   H     0.31543   0.18322  -0.31345   0.00000  Uiso   1.00
H144   H     0.71060   0.29638   0.55719   0.00000  Uiso   1.00
C145   C     0.28777   0.64184   0.56889   0.00000  Uiso   1.00
C146   C     0.31269   0.62133   0.57276   0.00000  Uiso   1.00
C147   C     0.24118   0.61596   0.49613   0.00000  Uiso   1.00
C148   C     0.22365   0.63285   0.27702   0.00000  Uiso   1.00
C149   C     0.18163   0.60747   0.16445   0.00000  Uiso   1.00
C150   C     0.15609   0.56443   0.27253   0.00000  Uiso   1.00
C151   C     0.17333   0.54748   0.49430   0.00000  Uiso   1.00
C152   C     0.21551   0.57309   0.60468   0.00000  Uiso   1.00
N153   N     0.11401   0.53723   0.16198   0.00000  Uiso   1.00
C154   C     0.09094   0.55363   0.06492   0.00000  Uiso   1.00
C155   C     0.04553   0.52618  -0.01890   0.00000  Uiso   1.00
C156   C     0.01926   0.54540  -0.03710   0.00000  Uiso   1.00
C157   C     0.97403   0.51962  -0.04048   0.00000  Uiso   1.00
H158   H     0.24400   0.66585   0.18390   0.00000  Uiso   1.00
H159   H     0.16916   0.62053  -0.01709   0.00000  Uiso   1.00
H160   H     0.15302   0.51419   0.58128   0.00000  Uiso   1.00
H161   H     0.22894   0.55982   0.77729   0.00000  Uiso   1.00
H162   H     0.48656   0.89714   0.07201   0.00000  Uiso   1.00
O163   O     0.59009   0.05327  -0.05043   0.00000  Uiso   1.00
C164   C     0.61545   0.03296  -0.10400   0.00000  Uiso   1.00
O165   O     0.65854   0.06785  -0.15735   0.00000  Uiso   1.00
C166   C     0.68737   0.05181  -0.24369   0.00000  Uiso   1.00
C167   C     0.73084   0.09027  -0.32508   0.00000  Uiso   1.00
O168   O     0.75923   0.07395  -0.41981   0.00000  Uiso   1.00
C169   C     0.80113   0.10902  -0.51204   0.00000  Uiso   1.00
H170   H     0.03521   0.58093  -0.02428   0.00000  Uiso   1.00
H171   H     0.60320   0.01067  -0.31719   0.00000  Uiso   1.00
H172   H     0.61437   0.01288   0.10865   0.00000  Uiso   1.00
H173   H     0.67363   0.02927  -0.45057   0.00000  Uiso   1.00
H174   H     0.69003   0.03274  -0.04306   0.00000  Uiso   1.00
H175   H     0.74504   0.11247  -0.11724   0.00000  Uiso   1.00
H176   H     0.72781   0.10949  -0.52235   0.00000  Uiso   1.00
H177   H     0.79831   0.12699  -0.71737   0.00000  Uiso   1.00
H178   H     0.82147   0.09504  -0.57882   0.00000  Uiso   1.00
H179   H     0.81678   0.13221  -0.31345   0.00000  Uiso   1.00
H180   H     0.70362   0.41422   0.55719   0.00000  Uiso   1.00
C181   C     0.35816   0.64593   0.56889   0.00000  Uiso   1.00
C182   C     0.37867   0.69136   0.57276   0.00000  Uiso   1.00
C183   C     0.38404   0.62522   0.49613   0.00000  Uiso   1.00
C184   C     0.36715   0.59080   0.27702   0.00000  Uiso   1.00
C185   C     0.39253   0.57416   0.16445   0.00000  Uiso   1.00
C186   C     0.43557   0.59166   0.27253   0.00000  Uiso   1.00
C187   C     0.45252   0.62585   0.49430   0.00000  Uiso   1.00
C188   C     0.42691   0.64242   0.60468   0.00000  Uiso   1.00
N189   N     0.46277   0.57678   0.16198   0.00000  Uiso   1.00
C190   C     0.44637   0.53731   0.06492   0.00000  Uiso   1.00
C191   C     0.47382   0.51935  -0.01890   0.00000  Uiso   1.00
C192   C     0.45460   0.47386  -0.03710   0.00000  Uiso   1.00
C193   C     0.48038   0.45441  -0.04048   0.00000  Uiso   1.00
H194   H     0.33415   0.57815   0.18390   0.00000  Uiso   1.00
H195   H     0.37947   0.54863  -0.01709   0.00000  Uiso   1.00
H196   H     0.48581   0.63883   0.58128   0.00000  Uiso   1.00
H197   H     0.44018   0.66912   0.77729   0.00000  Uiso   1.00
H198   H     0.10286   0.58942   0.07201   0.00000  Uiso   1.00
O199   O     0.94673   0.53682  -0.05043   0.00000  Uiso   1.00
C200   C     0.96704   0.58249  -0.10400   0.00000  Uiso   1.00
O201   O     0.93215   0.59069  -0.15735   0.00000  Uiso   1.00
C202   C     0.94819   0.63556  -0.24369   0.00000  Uiso   1.00
C203   C     0.90973   0.64057  -0.32508   0.00000  Uiso   1.00
O204   O     0.92605   0.68528  -0.41981   0.00000  Uiso   1.00
C205   C     0.89098   0.69211  -0.51204   0.00000  Uiso   1.00
H206   H     0.41907   0.45428  -0.02428   0.00000  Uiso   1.00
H207   H     0.98933   0.59253  -0.31719   0.00000  Uiso   1.00
H208   H     0.98712   0.60149   0.10865   0.00000  Uiso   1.00
H209   H     0.97073   0.64436  -0.45057   0.00000  Uiso   1.00
H210   H     0.96726   0.65729  -0.04306   0.00000  Uiso   1.00
H211   H     0.88753   0.63257  -0.11724   0.00000  Uiso   1.00
H212   H     0.89051   0.61832  -0.52235   0.00000  Uiso   1.00
H213   H     0.87301   0.67132  -0.71737   0.00000  Uiso   1.00
H214   H     0.90496   0.72643  -0.57882   0.00000  Uiso   1.00
H215   H     0.86779   0.68457  -0.31345   0.00000  Uiso   1.00
H216   H     0.58578   0.28940   0.55719   0.00000  Uiso   1.00
loop_
_geom_bond_atom_site_label_1
_geom_bond_atom_site_label_2
_geom_bond_distance
_geom_bond_site_symmetry_2
_ccdc_geom_bond_type
C1     C2      1.402   .     S
C1     C3      1.472   .     S
C1     C74     1.403   .     D
C2     C37     1.403   .     D
C2     H144    1.099   .     S
C3     C4      1.417   .     S
C3     C8      1.409   .     D
C4     C5      1.391   .     D
C4     H14     1.101   .     S
C5     C6      1.412   .     S
C5     H15     1.107   .     S
C6     C7      1.419   .     D
C6     N9      1.398   .     S
C7     C8      1.393   .     S
C7     H16     1.099   .     S
C8     H17     1.106   .     S
N9     C10     1.291   .     D
C10    C11     1.455   .     S
C10    H54     1.124   .     S
C11    C12     1.410   .     S
C11    C121    1.419   .     D
C12    C13     1.398   1_545 D
C12    H26     1.098   .     S
C13    C12     1.398   1_565 D
C13    O55     1.384   .     S
C13    C119    1.419   .     S
H18    C82     1.124   .     S
O19    C20     1.429   .     S
O19    C85     1.384   .     S
C20    O21     1.429   .     S
C20    H27     1.144   .     S
C20    H28     1.147   .     S
O21    C22     1.449   .     S
C22    C23     1.507   .     S
C22    H29     1.130   .     S
C22    H30     1.128   .     S
C23    O24     1.452   .     S
C23    H31     1.129   .     S
C23    H32     1.126   .     S
O24    C25     1.441   .     S
C25    H33     1.121   .     S
C25    H34     1.101   .     S
C25    H35     1.121   .     S
H36    C110    1.099   .     S
C37    C38     1.402   .     S
C37    C39     1.472   .     S
C38    C73     1.403   .     D
C38    H180    1.099   .     S
C39    C40     1.417   .     D
C39    C44     1.409   .     S
C40    C41     1.391   .     S
C40    H50     1.101   .     S
C41    C42     1.412   .     D
C41    H51     1.107   .     S
C42    C43     1.419   .     S
C42    N45     1.398   .     S
C43    C44     1.393   .     D
C43    H52     1.099   .     S
C44    H53     1.106   .     S
N45    C46     1.291   .     D
C46    C47     1.455   .     S
C46    H90     1.124   .     S
C47    C48     1.410   .     D
C47    C157    1.419   .     S
C48    C49     1.398   1_655 S
C48    H62     1.098   .     S
C49    C48     1.398   1_455 S
C49    O91     1.384   .     S
C49    C155    1.419   .     D
O55    C56     1.429   .     S
C56    O57     1.429   .     S
C56    H63     1.144   .     S
C56    H64     1.147   .     S
O57    C58     1.449   .     S
C58    C59     1.507   .     S
C58    H65     1.130   .     S
C58    H66     1.128   .     S
C59    O60     1.452   .     S
C59    H67     1.129   .     S
C59    H68     1.126   .     S
O60    C61     1.441   .     S
C61    H69     1.121   .     S
C61    H70     1.101   .     S
C61    H71     1.121   .     S
H72    C146    1.099   .     S
C73    C74     1.402   .     S
C73    C75     1.472   .     S
C74    H216    1.099   .     S
C75    C76     1.417   .     D
C75    C80     1.409   .     S
C76    C77     1.391   .     S
C76    H86     1.101   .     S
C77    C78     1.412   .     D
C77    H87     1.107   .     S
C78    C79     1.419   .     S
C78    N81     1.398   .     S
C79    C80     1.393   .     D
C79    H88     1.099   .     S
C80    H89     1.106   .     S
N81    C82     1.291   .     D
C82    C83     1.455   .     S
C83    C84     1.410   .     D
C83    C193    1.419   .     S
C84    C85     1.398   .     S
C84    H98     1.098   .     S
C85    C191    1.419   .     D
O91    C92     1.429   .     S
C92    O93     1.429   .     S
C92    H99     1.144   .     S
C92    H100    1.147   .     S
O93    C94     1.449   .     S
C94    C95     1.507   .     S
C94    H101    1.130   .     S
C94    H102    1.128   .     S
C95    O96     1.452   .     S
C95    H103    1.129   .     S
C95    H104    1.126   .     S
O96    C97     1.441   .     S
C97    H105    1.121   .     S
C97    H106    1.101   .     S
C97    H107    1.121   .     S
H108   C182    1.099   .     S
C109   C110    1.402   .     S
C109   C111    1.472   .     S
C109   C182    1.403   .     D
C110   C145    1.403   .     D
C111   C112    1.417   .     S
C111   C116    1.409   .     D
C112   C113    1.391   .     D
C112   H122    1.101   .     S
C113   C114    1.412   .     S
C113   H123    1.107   .     S
C114   C115    1.419   .     D
C114   N117    1.398   .     S
C115   C116    1.393   .     S
C115   H124    1.099   .     S
C116   H125    1.106   .     S
N117   C118    1.291   .     D
C118   C119    1.455   .     S
C118   H162    1.124   .     S
C119   C120    1.410   .     D
C120   C121    1.398   1_565 S
C120   H134    1.098   .     S
C121   C120    1.398   1_545 S
C121   O163    1.384   .     S
H126   C190    1.124   .     S
O127   C128    1.429   .     S
O127   C193    1.384   .     S
C128   O129    1.429   .     S
C128   H135    1.144   .     S
C128   H136    1.147   .     S
O129   C130    1.449   .     S
C130   C131    1.507   .     S
C130   H137    1.130   .     S
C130   H138    1.128   .     S
C131   O132    1.452   .     S
C131   H139    1.129   .     S
C131   H140    1.126   .     S
O132   C133    1.441   .     S
C133   H141    1.121   .     S
C133   H142    1.101   .     S
C133   H143    1.121   .     S
C145   C146    1.402   .     S
C145   C147    1.472   .     S
C146   C181    1.403   .     D
C147   C148    1.417   .     D
C147   C152    1.409   .     S
C148   C149    1.391   .     S
C148   H158    1.101   .     S
C149   C150    1.412   .     D
C149   H159    1.107   .     S
C150   C151    1.419   .     S
C150   N153    1.398   .     S
C151   C152    1.393   .     D
C151   H160    1.099   .     S
C152   H161    1.106   .     S
N153   C154    1.291   .     D
C154   C155    1.455   .     S
C154   H198    1.124   .     S
C155   C156    1.410   .     S
C156   C157    1.398   1_455 D
C156   H170    1.098   .     S
C157   C156    1.398   1_655 D
C157   O199    1.384   .     S
O163   C164    1.429   .     S
C164   O165    1.429   .     S
C164   H171    1.144   .     S
C164   H172    1.147   .     S
O165   C166    1.449   .     S
C166   C167    1.507   .     S
C166   H173    1.130   .     S
C166   H174    1.128   .     S
C167   O168    1.452   .     S
C167   H175    1.129   .     S
C167   H176    1.126   .     S
O168   C169    1.441   .     S
C169   H177    1.121   .     S
C169   H178    1.101   .     S
C169   H179    1.121   .     S
C181   C182    1.402   .     S
C181   C183    1.472   .     S
C183   C184    1.417   .     D
C183   C188    1.409   .     S
C184   C185    1.391   .     S
C184   H194    1.101   .     S
C185   C186    1.412   .     D
C185   H195    1.107   .     S
C186   C187    1.419   .     S
C186   N189    1.398   .     S
C187   C188    1.393   .     D
C187   H196    1.099   .     S
C188   H197    1.106   .     S
N189   C190    1.291   .     D
C190   C191    1.455   .     S
C191   C192    1.410   .     S
C192   C193    1.398   .     D
C192   H206    1.098   .     S
O199   C200    1.429   .     S
C200   O201    1.429   .     S
C200   H207    1.144   .     S
C200   H208    1.147   .     S
O201   C202    1.449   .     S
C202   C203    1.507   .     S
C202   H209    1.130   .     S
C202   H210    1.128   .     S
C203   O204    1.452   .     S
C203   H211    1.129   .     S
C203   H212    1.126   .     S
O204   C205    1.441   .     S
C205   H213    1.121   .     S
C205   H214    1.101   .     S
C205   H215    1.121   .     S
