data_516
_audit_creation_date              2023-09-08
_audit_creation_method            'Materials Studio'
_symmetry_space_group_name_H-M    'P1'
_symmetry_Int_Tables_number       1
_symmetry_cell_setting            triclinic
loop_
_symmetry_equiv_pos_as_xyz
  x,y,z
_cell_length_a                    29.2871
_cell_length_b                    29.2871
_cell_length_c                    3.2500
_cell_angle_alpha                 90.0000
_cell_angle_beta                  90.0000
_cell_angle_gamma                 120.0000
loop_
_atom_site_label
_atom_site_type_symbol
_atom_site_fract_x
_atom_site_fract_y
_atom_site_fract_z
_atom_site_U_iso_or_equiv
_atom_site_adp_type
_atom_site_occupancy
O1     O     0.29560   0.56120   0.00000   0.00000  Uiso   1.00
O2     O     0.43880   0.73440   0.00000   0.00000  Uiso   1.00
O3     O     0.26560   0.70440   0.00000   0.00000  Uiso   1.00
O4     O     0.70440   0.43880   0.00000   0.00000  Uiso   1.00
O5     O     0.56120   0.26560   0.00000   0.00000  Uiso   1.00
O6     O     0.73440   0.29560   0.00000   0.00000  Uiso   1.00
N7     N     0.38720   0.57810   0.00000   0.00000  Uiso   1.00
N8     N     0.42190   0.80910   0.00000   0.00000  Uiso   1.00
N9     N     0.19090   0.61280   0.00000   0.00000  Uiso   1.00
N10    N     0.61280   0.42190   0.00000   0.00000  Uiso   1.00
N11    N     0.57810   0.19090   0.00000   0.00000  Uiso   1.00
N12    N     0.80910   0.38720   0.00000   0.00000  Uiso   1.00
C13    C     0.31350   0.61070   0.00000   0.00000  Uiso   1.00
C14    C     0.38930   0.70280   0.00000   0.00000  Uiso   1.00
C15    C     0.29720   0.68650   0.00000   0.00000  Uiso   1.00
C16    C     0.68650   0.38930   0.00000   0.00000  Uiso   1.00
C17    C     0.61070   0.29720   0.00000   0.00000  Uiso   1.00
C18    C     0.70280   0.31350   0.00000   0.00000  Uiso   1.00
C19    C     0.40390   0.62980   0.00000   0.00000  Uiso   1.00
C20    C     0.37020   0.77410   0.00000   0.00000  Uiso   1.00
C21    C     0.22590   0.59610   0.00000   0.00000  Uiso   1.00
C22    C     0.59610   0.37020   0.00000   0.00000  Uiso   1.00
C23    C     0.62980   0.22590   0.00000   0.00000  Uiso   1.00
C24    C     0.77410   0.40390   0.00000   0.00000  Uiso   1.00
C25    C     0.41950   0.55690   0.00000   0.00000  Uiso   1.00
C26    C     0.44310   0.86260   0.00000   0.00000  Uiso   1.00
C27    C     0.13740   0.58050   0.00000   0.00000  Uiso   1.00
C28    C     0.58050   0.44310   0.00000   0.00000  Uiso   1.00
C29    C     0.55690   0.13740   0.00000   0.00000  Uiso   1.00
C30    C     0.86260   0.41950   0.00000   0.00000  Uiso   1.00
C31    C     0.47390   0.58830   0.00000   0.00000  Uiso   1.00
C32    C     0.41170   0.88560   0.00000   0.00000  Uiso   1.00
C33    C     0.11440   0.52610   0.00000   0.00000  Uiso   1.00
C34    C     0.52610   0.41170   0.00000   0.00000  Uiso   1.00
C35    C     0.58830   0.11440   0.00000   0.00000  Uiso   1.00
C36    C     0.88560   0.47390   0.00000   0.00000  Uiso   1.00
C37    C     0.50460   0.56560   0.00000   0.00000  Uiso   1.00
C38    C     0.43440   0.93900   0.00000   0.00000  Uiso   1.00
C39    C     0.06100   0.49540   0.00000   0.00000  Uiso   1.00
C40    C     0.49540   0.43440   0.00000   0.00000  Uiso   1.00
C41    C     0.56560   0.06100   0.00000   0.00000  Uiso   1.00
C42    C     0.93900   0.50460   0.00000   0.00000  Uiso   1.00
C43    C     0.48290   0.51120   0.00000   0.00000  Uiso   1.00
C44    C     0.48880   0.97170   0.00000   0.00000  Uiso   1.00
C45    C     0.02830   0.51710   0.00000   0.00000  Uiso   1.00
C46    C     0.51710   0.48880   0.00000   0.00000  Uiso   1.00
C47    C     0.51120   0.02830   0.00000   0.00000  Uiso   1.00
C48    C     0.97170   0.48290   0.00000   0.00000  Uiso   1.00
C49    C     0.42810   0.48030   0.00000   0.00000  Uiso   1.00
C50    C     0.51970   0.94780   0.00000   0.00000  Uiso   1.00
C51    C     0.05220   0.57190   0.00000   0.00000  Uiso   1.00
C52    C     0.57190   0.51970   0.00000   0.00000  Uiso   1.00
C53    C     0.48030   0.05220   0.00000   0.00000  Uiso   1.00
C54    C     0.94780   0.42810   0.00000   0.00000  Uiso   1.00
C55    C     0.39680   0.50270   0.00000   0.00000  Uiso   1.00
C56    C     0.49730   0.89410   0.00000   0.00000  Uiso   1.00
C57    C     0.10590   0.60320   0.00000   0.00000  Uiso   1.00
C58    C     0.60320   0.49730   0.00000   0.00000  Uiso   1.00
C59    C     0.50270   0.10590   0.00000   0.00000  Uiso   1.00
C60    C     0.89410   0.39680   0.00000   0.00000  Uiso   1.00
C61    C     0.36840   0.64720   0.00000   0.00000  Uiso   1.00
C62    C     0.35280   0.72120   0.00000   0.00000  Uiso   1.00
C63    C     0.27880   0.63160   0.00000   0.00000  Uiso   1.00
C64    C     0.63160   0.35280   0.00000   0.00000  Uiso   1.00
C65    C     0.64720   0.27880   0.00000   0.00000  Uiso   1.00
C66    C     0.72120   0.36840   0.00000   0.00000  Uiso   1.00
H67    H     0.44580   0.65920   0.00000   0.00000  Uiso   1.00
H68    H     0.34080   0.78660   0.00000   0.00000  Uiso   1.00
H69    H     0.21340   0.55420   0.00000   0.00000  Uiso   1.00
H70    H     0.55420   0.34080   0.00000   0.00000  Uiso   1.00
H71    H     0.65920   0.21340   0.00000   0.00000  Uiso   1.00
H72    H     0.78660   0.44580   0.00000   0.00000  Uiso   1.00
H73    H     0.49260   0.63140   0.00000   0.00000  Uiso   1.00
H74    H     0.36860   0.86120   0.00000   0.00000  Uiso   1.00
H75    H     0.13880   0.50740   0.00000   0.00000  Uiso   1.00
H76    H     0.50740   0.36860   0.00000   0.00000  Uiso   1.00
H77    H     0.63140   0.13880   0.00000   0.00000  Uiso   1.00
H78    H     0.86120   0.49260   0.00000   0.00000  Uiso   1.00
H79    H     0.34420   0.55570   0.00000   0.00000  Uiso   1.00
H80    H     0.44430   0.78850   0.00000   0.00000  Uiso   1.00
H81    H     0.21150   0.65580   0.00000   0.00000  Uiso   1.00
H82    H     0.65580   0.44430   0.00000   0.00000  Uiso   1.00
H83    H     0.55570   0.21150   0.00000   0.00000  Uiso   1.00
H84    H     0.78850   0.34420   0.00000   0.00000  Uiso   1.00
H85    H     0.35340   0.47830   0.00000   0.00000  Uiso   1.00
H86    H     0.52170   0.87510   0.00000   0.00000  Uiso   1.00
H87    H     0.12490   0.64660   0.00000   0.00000  Uiso   1.00
H88    H     0.64660   0.52170   0.00000   0.00000  Uiso   1.00
H89    H     0.47830   0.12490   0.00000   0.00000  Uiso   1.00
H90    H     0.87510   0.35340   0.00000   0.00000  Uiso   1.00
H91    H     0.54760   0.59160   0.00000   0.00000  Uiso   1.00
H92    H     0.40840   0.95600   0.00000   0.00000  Uiso   1.00
H93    H     0.04400   0.45240   0.00000   0.00000  Uiso   1.00
H94    H     0.45240   0.40840   0.00000   0.00000  Uiso   1.00
H95    H     0.59160   0.04400   0.00000   0.00000  Uiso   1.00
H96    H     0.95600   0.54760   0.00000   0.00000  Uiso   1.00
H97    H     0.40910   0.43720   0.00000   0.00000  Uiso   1.00
H98    H     0.56280   0.97190   0.00000   0.00000  Uiso   1.00
H99    H     0.02810   0.59090   0.00000   0.00000  Uiso   1.00
H100   H     0.59090   0.56280   0.00000   0.00000  Uiso   1.00
H101   H     0.43720   0.02810   0.00000   0.00000  Uiso   1.00
H102   H     0.97190   0.40910   0.00000   0.00000  Uiso   1.00
loop_
_geom_bond_atom_site_label_1
_geom_bond_atom_site_label_2
_geom_bond_distance
_geom_bond_site_symmetry_2
_ccdc_geom_bond_type
O1     C13     1.271   .     D
O2     C14     1.271   .     D
O3     C15     1.271   .     D
O4     C16     1.271   .     D
O5     C17     1.271   .     D
O6     C18     1.271   .     D
N7     C19     1.338   .     S
N7     C25     1.367   .     S
N7     H79     1.091   .     S
N8     C20     1.338   .     S
N8     C26     1.367   .     S
N8     H80     1.091   .     S
N9     C21     1.338   .     S
N9     C27     1.367   .     S
N9     H81     1.091   .     S
N10    C22     1.338   .     S
N10    C28     1.367   .     S
N10    H82     1.091   .     S
N11    C23     1.338   .     S
N11    C29     1.367   .     S
N11    H83     1.091   .     S
N12    C24     1.338   .     S
N12    C30     1.367   .     S
N12    H84     1.091   .     S
C13    C61     1.417   .     S
C13    C63     1.425   .     S
C14    C61     1.425   .     S
C14    C62     1.417   .     S
C15    C62     1.425   .     S
C15    C63     1.417   .     S
C16    C64     1.417   .     S
C16    C66     1.425   .     S
C17    C64     1.425   .     S
C17    C65     1.417   .     S
C18    C65     1.425   .     S
C18    C66     1.417   .     S
C19    C61     1.368   .     D
C19    H67     1.091   .     S
C20    C62     1.368   .     D
C20    H68     1.091   .     S
C21    C63     1.368   .     D
C21    H69     1.091   .     S
C22    C64     1.368   .     D
C22    H70     1.091   .     S
C23    C65     1.368   .     D
C23    H71     1.091   .     S
C24    C66     1.368   .     D
C24    H72     1.091   .     S
C25    C31     1.385   .     D
C25    C55     1.381   .     S
C26    C32     1.385   .     D
C26    C56     1.381   .     S
C27    C33     1.385   .     D
C27    C57     1.381   .     S
C28    C34     1.385   .     D
C28    C58     1.381   .     S
C29    C35     1.385   .     D
C29    C59     1.381   .     S
C30    C36     1.385   .     D
C30    C60     1.381   .     S
C31    C37     1.359   .     S
C31    H73     1.096   .     S
C32    C38     1.359   .     S
C32    H74     1.096   .     S
C33    C39     1.359   .     S
C33    H75     1.096   .     S
C34    C40     1.359   .     S
C34    H76     1.096   .     S
C35    C41     1.359   .     S
C35    H77     1.096   .     S
C36    C42     1.359   .     S
C36    H78     1.096   .     S
C37    C43     1.389   .     D
C37    H91     1.099   .     S
C38    C44     1.389   .     D
C38    H92     1.099   .     S
C39    C45     1.389   .     D
C39    H93     1.099   .     S
C40    C46     1.389   .     D
C40    H94     1.099   .     S
C41    C47     1.389   .     D
C41    H95     1.099   .     S
C42    C48     1.389   .     D
C42    H96     1.099   .     S
C43    C46     1.446   .     S
C43    C49     1.394   .     S
C44    C47     1.446   1_565 S
C44    C50     1.394   .     S
C45    C48     1.446   1_455 S
C45    C51     1.394   .     S
C46    C52     1.394   .     S
C47    C44     1.446   1_545 S
C47    C53     1.394   .     S
C48    C45     1.446   1_655 S
C48    C54     1.394   .     S
C49    C55     1.368   .     D
C49    H97     1.096   .     S
C50    C56     1.368   .     D
C50    H98     1.096   .     S
C51    C57     1.368   .     D
C51    H99     1.096   .     S
C52    C58     1.368   .     D
C52    H100    1.096   .     S
C53    C59     1.368   .     D
C53    H101    1.096   .     S
C54    C60     1.368   .     D
C54    H102    1.096   .     S
C55    H85     1.104   .     S
C56    H86     1.104   .     S
C57    H87     1.104   .     S
C58    H88     1.104   .     S
C59    H89     1.104   .     S
C60    H90     1.104   .     S
