data_517
_audit_creation_date              2023-09-08
_audit_creation_method            'Materials Studio'
_symmetry_space_group_name_H-M    'P1'
_symmetry_Int_Tables_number       1
_symmetry_cell_setting            triclinic
loop_
_symmetry_equiv_pos_as_xyz
  x,y,z
_cell_length_a                    37.3630
_cell_length_b                    37.3630
_cell_length_c                    3.4740
_cell_angle_alpha                 90.0000
_cell_angle_beta                  90.0000
_cell_angle_gamma                 120.0000
loop_
_atom_site_label
_atom_site_type_symbol
_atom_site_fract_x
_atom_site_fract_y
_atom_site_fract_z
_atom_site_U_iso_or_equiv
_atom_site_adp_type
_atom_site_occupancy
N1     N     0.45621   0.88700   0.00000   0.00000  Uiso   1.00
C2     C     0.43021   0.84408   0.00000   0.00000  Uiso   1.00
C3     C     0.38662   0.82371   0.00000   0.00000  Uiso   1.00
C4     C     0.36347   0.78081   0.00000   0.00000  Uiso   1.00
C5     C     0.38225   0.75610   0.00000   0.00000  Uiso   1.00
C6     C     0.42582   0.77679   0.00000   0.00000  Uiso   1.00
C7     C     0.44927   0.81967   0.00000   0.00000  Uiso   1.00
C8     C     0.37633   0.68616   0.00000   0.00000  Uiso   1.00
C9     C     0.35727   0.71046   0.00000   0.00000  Uiso   1.00
C10    C     0.47020   0.55793   0.00000   0.00000  Uiso   1.00
C11    C     0.48606   0.52922   0.00000   0.00000  Uiso   1.00
C12    C     0.45774   0.48634   0.00000   0.00000  Uiso   1.00
C13    C     0.47141   0.45792   0.00000   0.00000  Uiso   1.00
H14    H     0.37035   0.84137   0.00000   0.00000  Uiso   1.00
H15    H     0.32966   0.76640   0.00000   0.00000  Uiso   1.00
H16    H     0.44220   0.75925   0.00000   0.00000  Uiso   1.00
H17    H     0.48315   0.83492   0.00000   0.00000  Uiso   1.00
H18    H     0.41014   0.70149   0.00000   0.00000  Uiso   1.00
H19    H     0.49363   0.59163   0.00000   0.00000  Uiso   1.00
H20    H     0.42463   0.47627   0.00000   0.00000  Uiso   1.00
N21    N     0.11300   0.56921   0.00000   0.00000  Uiso   1.00
C22    C     0.15592   0.58613   0.00000   0.00000  Uiso   1.00
C23    C     0.17629   0.56291   0.00000   0.00000  Uiso   1.00
C24    C     0.21919   0.58266   0.00000   0.00000  Uiso   1.00
C25    C     0.24390   0.62615   0.00000   0.00000  Uiso   1.00
C26    C     0.22321   0.64903   0.00000   0.00000  Uiso   1.00
C27    C     0.18033   0.62960   0.00000   0.00000  Uiso   1.00
C28    C     0.31384   0.69017   0.00000   0.00000  Uiso   1.00
C29    C     0.28954   0.64681   0.00000   0.00000  Uiso   1.00
C30    C     0.44207   0.91227   0.00000   0.00000  Uiso   1.00
C31    C     0.47078   0.95684   0.00000   0.00000  Uiso   1.00
C32    C     0.51366   0.97140   0.00000   0.00000  Uiso   1.00
C33    C     0.54208   0.01349   0.00000   0.00000  Uiso   1.00
H34    H     0.15863   0.52898   0.00000   0.00000  Uiso   1.00
H35    H     0.23360   0.56326   0.00000   0.00000  Uiso   1.00
H36    H     0.24075   0.68295   0.00000   0.00000  Uiso   1.00
H37    H     0.16508   0.64823   0.00000   0.00000  Uiso   1.00
H38    H     0.29851   0.70865   0.00000   0.00000  Uiso   1.00
H39    H     0.40837   0.90200   0.00000   0.00000  Uiso   1.00
H40    H     0.52373   0.94836   0.00000   0.00000  Uiso   1.00
N41    N     0.43079   0.54379   0.00000   0.00000  Uiso   1.00
C42    C     0.41387   0.56979   0.00000   0.00000  Uiso   1.00
C43    C     0.43709   0.61338   0.00000   0.00000  Uiso   1.00
C44    C     0.41734   0.63653   0.00000   0.00000  Uiso   1.00
C45    C     0.37385   0.61775   0.00000   0.00000  Uiso   1.00
C46    C     0.35097   0.57418   0.00000   0.00000  Uiso   1.00
C47    C     0.37040   0.55073   0.00000   0.00000  Uiso   1.00
C48    C     0.30983   0.62367   0.00000   0.00000  Uiso   1.00
C49    C     0.35319   0.64273   0.00000   0.00000  Uiso   1.00
C50    C     0.08773   0.52980   0.00000   0.00000  Uiso   1.00
C51    C     0.04316   0.51394   0.00000   0.00000  Uiso   1.00
C52    C     0.02860   0.54226   0.00000   0.00000  Uiso   1.00
C53    C     0.98651   0.52859   0.00000   0.00000  Uiso   1.00
H54    H     0.47102   0.62965   0.00000   0.00000  Uiso   1.00
H55    H     0.43674   0.67034   0.00000   0.00000  Uiso   1.00
H56    H     0.31705   0.55780   0.00000   0.00000  Uiso   1.00
H57    H     0.35177   0.51685   0.00000   0.00000  Uiso   1.00
H58    H     0.29135   0.58986   0.00000   0.00000  Uiso   1.00
H59    H     0.09800   0.50637   0.00000   0.00000  Uiso   1.00
H60    H     0.05164   0.57537   0.00000   0.00000  Uiso   1.00
N61    N     0.54379   0.11300   0.00000   0.00000  Uiso   1.00
C62    C     0.56979   0.15592   0.00000   0.00000  Uiso   1.00
C63    C     0.61338   0.17629   0.00000   0.00000  Uiso   1.00
C64    C     0.63653   0.21919   0.00000   0.00000  Uiso   1.00
C65    C     0.61775   0.24390   0.00000   0.00000  Uiso   1.00
C66    C     0.57418   0.22321   0.00000   0.00000  Uiso   1.00
C67    C     0.55073   0.18033   0.00000   0.00000  Uiso   1.00
C68    C     0.62367   0.31384   0.00000   0.00000  Uiso   1.00
C69    C     0.64273   0.28954   0.00000   0.00000  Uiso   1.00
C70    C     0.52980   0.44207   0.00000   0.00000  Uiso   1.00
C71    C     0.51394   0.47078   0.00000   0.00000  Uiso   1.00
C72    C     0.54226   0.51366   0.00000   0.00000  Uiso   1.00
C73    C     0.52859   0.54208   0.00000   0.00000  Uiso   1.00
H74    H     0.62965   0.15863   0.00000   0.00000  Uiso   1.00
H75    H     0.67034   0.23360   0.00000   0.00000  Uiso   1.00
H76    H     0.55780   0.24075   0.00000   0.00000  Uiso   1.00
H77    H     0.51685   0.16508   0.00000   0.00000  Uiso   1.00
H78    H     0.58986   0.29851   0.00000   0.00000  Uiso   1.00
H79    H     0.50637   0.40837   0.00000   0.00000  Uiso   1.00
H80    H     0.57537   0.52373   0.00000   0.00000  Uiso   1.00
N81    N     0.88700   0.43079   0.00000   0.00000  Uiso   1.00
C82    C     0.84408   0.41387   0.00000   0.00000  Uiso   1.00
C83    C     0.82371   0.43709   0.00000   0.00000  Uiso   1.00
C84    C     0.78081   0.41734   0.00000   0.00000  Uiso   1.00
C85    C     0.75610   0.37385   0.00000   0.00000  Uiso   1.00
C86    C     0.77679   0.35097   0.00000   0.00000  Uiso   1.00
C87    C     0.81967   0.37040   0.00000   0.00000  Uiso   1.00
C88    C     0.68616   0.30983   0.00000   0.00000  Uiso   1.00
C89    C     0.71046   0.35319   0.00000   0.00000  Uiso   1.00
C90    C     0.55793   0.08773   0.00000   0.00000  Uiso   1.00
C91    C     0.52922   0.04316   0.00000   0.00000  Uiso   1.00
C92    C     0.48634   0.02860   0.00000   0.00000  Uiso   1.00
C93    C     0.45792   0.98651   0.00000   0.00000  Uiso   1.00
H94    H     0.84137   0.47102   0.00000   0.00000  Uiso   1.00
H95    H     0.76640   0.43674   0.00000   0.00000  Uiso   1.00
H96    H     0.75925   0.31705   0.00000   0.00000  Uiso   1.00
H97    H     0.83492   0.35177   0.00000   0.00000  Uiso   1.00
H98    H     0.70149   0.29135   0.00000   0.00000  Uiso   1.00
H99    H     0.59163   0.09800   0.00000   0.00000  Uiso   1.00
H100   H     0.47627   0.05164   0.00000   0.00000  Uiso   1.00
N101   N     0.56921   0.45621   0.00000   0.00000  Uiso   1.00
C102   C     0.58613   0.43021   0.00000   0.00000  Uiso   1.00
C103   C     0.56291   0.38662   0.00000   0.00000  Uiso   1.00
C104   C     0.58266   0.36347   0.00000   0.00000  Uiso   1.00
C105   C     0.62615   0.38225   0.00000   0.00000  Uiso   1.00
C106   C     0.64903   0.42582   0.00000   0.00000  Uiso   1.00
C107   C     0.62960   0.44927   0.00000   0.00000  Uiso   1.00
C108   C     0.69017   0.37633   0.00000   0.00000  Uiso   1.00
C109   C     0.64681   0.35727   0.00000   0.00000  Uiso   1.00
C110   C     0.91227   0.47020   0.00000   0.00000  Uiso   1.00
C111   C     0.95684   0.48606   0.00000   0.00000  Uiso   1.00
C112   C     0.97140   0.45774   0.00000   0.00000  Uiso   1.00
C113   C     0.01349   0.47141   0.00000   0.00000  Uiso   1.00
H114   H     0.52898   0.37035   0.00000   0.00000  Uiso   1.00
H115   H     0.56326   0.32966   0.00000   0.00000  Uiso   1.00
H116   H     0.68295   0.44220   0.00000   0.00000  Uiso   1.00
H117   H     0.64823   0.48315   0.00000   0.00000  Uiso   1.00
H118   H     0.70865   0.41014   0.00000   0.00000  Uiso   1.00
H119   H     0.90200   0.49363   0.00000   0.00000  Uiso   1.00
H120   H     0.94836   0.42463   0.00000   0.00000  Uiso   1.00
loop_
_geom_bond_atom_site_label_1
_geom_bond_atom_site_label_2
_geom_bond_distance
_geom_bond_site_symmetry_2
_ccdc_geom_bond_type
N1     C2      1.399   .     S
N1     C30     1.292   .     D
C2     C3      1.411   .     S
C2     C7      1.410   .     D
C3     C4      1.390   .     D
C3     H14     1.098   .     S
C4     C5      1.412   .     S
C4     H15     1.098   .     S
C5     C6      1.410   .     D
C5     C9      1.479   .     S
C6     C7      1.390   .     S
C6     H16     1.098   .     S
C7     H17     1.098   .     S
C8     C9      1.406   .     S
C8     H18     1.096   .     S
C8     C49     1.406   .     D
C9     C28     1.406   .     D
C10    C11     1.462   .     S
C10    H19     1.118   .     S
C10    N41     1.292   .     D
C11    C12     1.411   .     S
C11    C73     1.412   .     D
C12    C13     1.390   .     D
C12    H20     1.098   .     S
C13    C71     1.412   .     D
N21    C22     1.399   .     S
N21    C50     1.292   .     D
C22    C23     1.411   .     D
C22    C27     1.410   .     S
C23    C24     1.390   .     S
C23    H34     1.098   .     S
C24    C25     1.412   .     D
C24    H35     1.098   .     S
C25    C26     1.410   .     S
C25    C29     1.479   .     S
C26    C27     1.390   .     D
C26    H36     1.098   .     S
C27    H37     1.098   .     S
C28    C29     1.406   .     S
C28    H38     1.096   .     S
C29    C48     1.406   .     D
C30    C31     1.462   .     S
C30    H39     1.118   .     S
C31    C32     1.411   .     S
C31    C93     1.412   .     D
C32    C33     1.390   1_565 D
C32    H40     1.098   .     S
C33    C32     1.390   1_545 D
C33    C91     1.412   .     D
N41    C42     1.399   .     S
C42    C43     1.411   .     D
C42    C47     1.410   .     S
C43    C44     1.390   .     S
C43    H54     1.098   .     S
C44    C45     1.412   .     D
C44    H55     1.098   .     S
C45    C46     1.410   .     S
C45    C49     1.479   .     S
C46    C47     1.390   .     D
C46    H56     1.098   .     S
C47    H57     1.098   .     S
C48    C49     1.406   .     S
C48    H58     1.096   .     S
C50    C51     1.462   .     S
C50    H59     1.118   .     S
C51    C52     1.411   .     S
C51    C113    1.412   .     D
C52    C53     1.390   1_455 D
C52    H60     1.098   .     S
C53    C52     1.390   1_655 D
C53    C111    1.412   .     D
N61    C62     1.399   .     S
N61    C90     1.292   .     D
C62    C63     1.411   .     D
C62    C67     1.410   .     S
C63    C64     1.390   .     S
C63    H74     1.098   .     S
C64    C65     1.412   .     D
C64    H75     1.098   .     S
C65    C66     1.410   .     S
C65    C69     1.479   .     S
C66    C67     1.390   .     D
C66    H76     1.098   .     S
C67    H77     1.098   .     S
C68    C69     1.406   .     S
C68    H78     1.096   .     S
C68    C109    1.406   .     D
C69    C88     1.406   .     D
C70    C71     1.462   .     S
C70    H79     1.118   .     S
C70    N101    1.292   .     D
C71    C72     1.411   .     S
C72    C73     1.390   .     D
C72    H80     1.098   .     S
N81    C82     1.399   .     S
N81    C110    1.292   .     D
C82    C83     1.411   .     S
C82    C87     1.410   .     D
C83    C84     1.390   .     D
C83    H94     1.098   .     S
C84    C85     1.412   .     S
C84    H95     1.098   .     S
C85    C86     1.410   .     D
C85    C89     1.479   .     S
C86    C87     1.390   .     S
C86    H96     1.098   .     S
C87    H97     1.098   .     S
C88    C89     1.406   .     S
C88    H98     1.096   .     S
C89    C108    1.406   .     D
C90    C91     1.462   .     S
C90    H99     1.118   .     S
C91    C92     1.411   .     S
C92    C93     1.390   1_545 D
C92    H100    1.098   .     S
C93    C92     1.390   1_565 D
N101   C102    1.399   .     S
C102   C103    1.411   .     D
C102   C107    1.410   .     S
C103   C104    1.390   .     S
C103   H114    1.098   .     S
C104   C105    1.412   .     D
C104   H115    1.098   .     S
C105   C106    1.410   .     S
C105   C109    1.479   .     S
C106   C107    1.390   .     D
C106   H116    1.098   .     S
C107   H117    1.098   .     S
C108   C109    1.406   .     S
C108   H118    1.096   .     S
C110   C111    1.462   .     S
C110   H119    1.118   .     S
C111   C112    1.411   .     S
C112   C113    1.390   1_655 D
C112   H120    1.098   .     S
C113   C112    1.390   1_455 D
