data_518
_audit_creation_date              2023-09-08
_audit_creation_method            'Materials Studio'
_symmetry_space_group_name_H-M    'P1'
_symmetry_Int_Tables_number       1
_symmetry_cell_setting            triclinic
loop_
_symmetry_equiv_pos_as_xyz
  x,y,z
_cell_length_a                    37.6180
_cell_length_b                    37.6180
_cell_length_c                    7.1654
_cell_angle_alpha                 90.0000
_cell_angle_beta                  90.0000
_cell_angle_gamma                 120.0000
loop_
_atom_site_label
_atom_site_type_symbol
_atom_site_fract_x
_atom_site_fract_y
_atom_site_fract_z
_atom_site_U_iso_or_equiv
_atom_site_adp_type
_atom_site_occupancy
N1     N     0.78945   0.55368   0.25000   0.00000  Uiso   1.00
C2     C     0.76346   0.51074   0.25000   0.00000  Uiso   1.00
C3     C     0.71987   0.49036   0.25000   0.00000  Uiso   1.00
C4     C     0.69673   0.44746   0.25000   0.00000  Uiso   1.00
C5     C     0.71554   0.42277   0.25000   0.00000  Uiso   1.00
C6     C     0.75912   0.44347   0.25000   0.00000  Uiso   1.00
C7     C     0.78255   0.48635   0.25000   0.00000  Uiso   1.00
C8     C     0.70968   0.35285   0.25000   0.00000  Uiso   1.00
C9     C     0.69059   0.37713   0.25000   0.00000  Uiso   1.00
C10    C     0.80365   0.22472   0.25000   0.00000  Uiso   1.00
C11    C     0.81952   0.19602   0.25000   0.00000  Uiso   1.00
C12    C     0.79121   0.15314   0.25000   0.00000  Uiso   1.00
C13    C     0.80491   0.12475   0.25000   0.00000  Uiso   1.00
H14    H     0.70359   0.50801   0.25000   0.00000  Uiso   1.00
H15    H     0.66293   0.43303   0.25000   0.00000  Uiso   1.00
H16    H     0.77551   0.42594   0.25000   0.00000  Uiso   1.00
H17    H     0.81643   0.50162   0.25000   0.00000  Uiso   1.00
H18    H     0.74348   0.36820   0.25000   0.00000  Uiso   1.00
H19    H     0.82703   0.25841   0.25000   0.00000  Uiso   1.00
H20    H     0.75809   0.14302   0.25000   0.00000  Uiso   1.00
Br21   Br    0.90371   0.26746   0.25000   0.00000  Uiso   1.00
N22    N     0.87696   0.77967   0.25000   0.00000  Uiso   1.00
C23    C     0.90301   0.82261   0.25000   0.00000  Uiso   1.00
C24    C     0.94660   0.84294   0.25000   0.00000  Uiso   1.00
C25    C     0.96979   0.88585   0.25000   0.00000  Uiso   1.00
C26    C     0.95103   0.91058   0.25000   0.00000  Uiso   1.00
C27    C     0.90745   0.88994   0.25000   0.00000  Uiso   1.00
C28    C     0.88398   0.84705   0.25000   0.00000  Uiso   1.00
C29    C     0.95699   0.98053   0.25000   0.00000  Uiso   1.00
C30    C     0.97604   0.95623   0.25000   0.00000  Uiso   1.00
C31    C     0.86329   0.10890   0.25000   0.00000  Uiso   1.00
C32    C     0.84744   0.13762   0.25000   0.00000  Uiso   1.00
C33    C     0.87575   0.18050   0.25000   0.00000  Uiso   1.00
C34    C     0.86204   0.20889   0.25000   0.00000  Uiso   1.00
H35    H     0.96284   0.82526   0.25000   0.00000  Uiso   1.00
H36    H     0.00358   0.90023   0.25000   0.00000  Uiso   1.00
H37    H     0.89110   0.90750   0.25000   0.00000  Uiso   1.00
H38    H     0.85009   0.83183   0.25000   0.00000  Uiso   1.00
H39    H     0.92318   0.96523   0.25000   0.00000  Uiso   1.00
H40    H     0.83989   0.07522   0.25000   0.00000  Uiso   1.00
H41    H     0.90887   0.19063   0.25000   0.00000  Uiso   1.00
Br42   Br    0.76324   0.06617   0.25000   0.00000  Uiso   1.00
N43    N     0.44632   0.23577   0.25000   0.00000  Uiso   1.00
C44    C     0.48926   0.25272   0.25000   0.00000  Uiso   1.00
C45    C     0.50964   0.22951   0.25000   0.00000  Uiso   1.00
C46    C     0.55254   0.24927   0.25000   0.00000  Uiso   1.00
C47    C     0.57723   0.29277   0.25000   0.00000  Uiso   1.00
C48    C     0.55653   0.31565   0.25000   0.00000  Uiso   1.00
C49    C     0.51365   0.29620   0.25000   0.00000  Uiso   1.00
C50    C     0.64715   0.35683   0.25000   0.00000  Uiso   1.00
C51    C     0.62287   0.31346   0.25000   0.00000  Uiso   1.00
C52    C     0.77528   0.57893   0.25000   0.00000  Uiso   1.00
C53    C     0.80398   0.62350   0.25000   0.00000  Uiso   1.00
C54    C     0.84686   0.63807   0.25000   0.00000  Uiso   1.00
C55    C     0.87525   0.68016   0.25000   0.00000  Uiso   1.00
H56    H     0.49199   0.19558   0.25000   0.00000  Uiso   1.00
H57    H     0.56697   0.22990   0.25000   0.00000  Uiso   1.00
H58    H     0.57406   0.34957   0.25000   0.00000  Uiso   1.00
H59    H     0.49838   0.31481   0.25000   0.00000  Uiso   1.00
H60    H     0.63180   0.37528   0.25000   0.00000  Uiso   1.00
H61    H     0.74159   0.56862   0.25000   0.00000  Uiso   1.00
H62    H     0.85698   0.61507   0.25000   0.00000  Uiso   1.00
Br63   Br    0.73254   0.63625   0.25000   0.00000  Uiso   1.00
N64    N     0.22033   0.09729   0.25000   0.00000  Uiso   1.00
C65    C     0.17739   0.08040   0.25000   0.00000  Uiso   1.00
C66    C     0.15706   0.10366   0.25000   0.00000  Uiso   1.00
C67    C     0.11415   0.08394   0.25000   0.00000  Uiso   1.00
C68    C     0.08942   0.04045   0.25000   0.00000  Uiso   1.00
C69    C     0.11006   0.01751   0.25000   0.00000  Uiso   1.00
C70    C     0.15295   0.03693   0.25000   0.00000  Uiso   1.00
C71    C     0.01947   0.97646   0.25000   0.00000  Uiso   1.00
C72    C     0.04377   0.01981   0.25000   0.00000  Uiso   1.00
C73    C     0.89110   0.75439   0.25000   0.00000  Uiso   1.00
C74    C     0.86238   0.70982   0.25000   0.00000  Uiso   1.00
C75    C     0.81950   0.69525   0.25000   0.00000  Uiso   1.00
C76    C     0.79111   0.65315   0.25000   0.00000  Uiso   1.00
H77    H     0.17474   0.13758   0.25000   0.00000  Uiso   1.00
H78    H     0.09977   0.10335   0.25000   0.00000  Uiso   1.00
H79    H     0.09250   0.98360   0.25000   0.00000  Uiso   1.00
H80    H     0.16817   0.01826   0.25000   0.00000  Uiso   1.00
H81    H     0.03477   0.95795   0.25000   0.00000  Uiso   1.00
H82    H     0.92478   0.76467   0.25000   0.00000  Uiso   1.00
H83    H     0.80937   0.71824   0.25000   0.00000  Uiso   1.00
Br84   Br    0.93383   0.69707   0.25000   0.00000  Uiso   1.00
N85    N     0.76423   0.21055   0.25000   0.00000  Uiso   1.00
C86    C     0.74728   0.23654   0.25000   0.00000  Uiso   1.00
C87    C     0.77049   0.28013   0.25000   0.00000  Uiso   1.00
C88    C     0.75073   0.30327   0.25000   0.00000  Uiso   1.00
C89    C     0.70723   0.28446   0.25000   0.00000  Uiso   1.00
C90    C     0.68435   0.24088   0.25000   0.00000  Uiso   1.00
C91    C     0.70380   0.21745   0.25000   0.00000  Uiso   1.00
C92    C     0.64317   0.29032   0.25000   0.00000  Uiso   1.00
C93    C     0.68654   0.30941   0.25000   0.00000  Uiso   1.00
C94    C     0.42107   0.19635   0.25000   0.00000  Uiso   1.00
C95    C     0.37650   0.18048   0.25000   0.00000  Uiso   1.00
C96    C     0.36193   0.20879   0.25000   0.00000  Uiso   1.00
C97    C     0.31984   0.19509   0.25000   0.00000  Uiso   1.00
H98    H     0.80442   0.29641   0.25000   0.00000  Uiso   1.00
H99    H     0.77010   0.33707   0.25000   0.00000  Uiso   1.00
H100   H     0.65043   0.22449   0.25000   0.00000  Uiso   1.00
H101   H     0.68519   0.18357   0.25000   0.00000  Uiso   1.00
H102   H     0.62472   0.25652   0.25000   0.00000  Uiso   1.00
H103   H     0.43138   0.17297   0.25000   0.00000  Uiso   1.00
H104   H     0.38493   0.24191   0.25000   0.00000  Uiso   1.00
Br105  Br    0.36375   0.09629   0.25000   0.00000  Uiso   1.00
N106   N     0.90271   0.12304   0.25000   0.00000  Uiso   1.00
C107   C     0.91960   0.09699   0.25000   0.00000  Uiso   1.00
C108   C     0.89634   0.05340   0.25000   0.00000  Uiso   1.00
C109   C     0.91606   0.03021   0.25000   0.00000  Uiso   1.00
C110   C     0.95955   0.04897   0.25000   0.00000  Uiso   1.00
C111   C     0.98249   0.09255   0.25000   0.00000  Uiso   1.00
C112   C     0.96307   0.11602   0.25000   0.00000  Uiso   1.00
C113   C     0.02354   0.04301   0.25000   0.00000  Uiso   1.00
C114   C     0.98019   0.02396   0.25000   0.00000  Uiso   1.00
C115   C     0.24561   0.13671   0.25000   0.00000  Uiso   1.00
C116   C     0.29018   0.15256   0.25000   0.00000  Uiso   1.00
C117   C     0.30475   0.12425   0.25000   0.00000  Uiso   1.00
C118   C     0.34685   0.13796   0.25000   0.00000  Uiso   1.00
H119   H     0.86242   0.03716   0.25000   0.00000  Uiso   1.00
H120   H     0.89665   0.99642   0.25000   0.00000  Uiso   1.00
H121   H     0.01640   0.10890   0.25000   0.00000  Uiso   1.00
H122   H     0.98174   0.14991   0.25000   0.00000  Uiso   1.00
H123   H     0.04205   0.07682   0.25000   0.00000  Uiso   1.00
H124   H     0.23533   0.16011   0.25000   0.00000  Uiso   1.00
H125   H     0.28176   0.09113   0.25000   0.00000  Uiso   1.00
Br126  Br    0.30293   0.23676   0.25000   0.00000  Uiso   1.00
N127   N     0.21055   0.44632   0.75000   0.00000  Uiso   1.00
C128   C     0.23654   0.48926   0.75000   0.00000  Uiso   1.00
C129   C     0.28013   0.50964   0.75000   0.00000  Uiso   1.00
C130   C     0.30327   0.55254   0.75000   0.00000  Uiso   1.00
C131   C     0.28446   0.57723   0.75000   0.00000  Uiso   1.00
C132   C     0.24088   0.55653   0.75000   0.00000  Uiso   1.00
C133   C     0.21745   0.51365   0.75000   0.00000  Uiso   1.00
C134   C     0.29032   0.64715   0.75000   0.00000  Uiso   1.00
C135   C     0.30941   0.62287   0.75000   0.00000  Uiso   1.00
C136   C     0.19635   0.77528   0.75000   0.00000  Uiso   1.00
C137   C     0.18048   0.80398   0.75000   0.00000  Uiso   1.00
C138   C     0.20879   0.84686   0.75000   0.00000  Uiso   1.00
C139   C     0.19509   0.87525   0.75000   0.00000  Uiso   1.00
H140   H     0.29641   0.49199   0.75000   0.00000  Uiso   1.00
H141   H     0.33707   0.56697   0.75000   0.00000  Uiso   1.00
H142   H     0.22449   0.57406   0.75000   0.00000  Uiso   1.00
H143   H     0.18357   0.49838   0.75000   0.00000  Uiso   1.00
H144   H     0.25652   0.63180   0.75000   0.00000  Uiso   1.00
H145   H     0.17297   0.74159   0.75000   0.00000  Uiso   1.00
H146   H     0.24191   0.85698   0.75000   0.00000  Uiso   1.00
Br147  Br    0.09629   0.73254   0.75000   0.00000  Uiso   1.00
N148   N     0.12304   0.22033   0.75000   0.00000  Uiso   1.00
C149   C     0.09699   0.17739   0.75000   0.00000  Uiso   1.00
C150   C     0.05340   0.15706   0.75000   0.00000  Uiso   1.00
C151   C     0.03021   0.11415   0.75000   0.00000  Uiso   1.00
C152   C     0.04897   0.08942   0.75000   0.00000  Uiso   1.00
C153   C     0.09255   0.11006   0.75000   0.00000  Uiso   1.00
C154   C     0.11602   0.15295   0.75000   0.00000  Uiso   1.00
C155   C     0.04301   0.01947   0.75000   0.00000  Uiso   1.00
C156   C     0.02396   0.04377   0.75000   0.00000  Uiso   1.00
C157   C     0.13671   0.89110   0.75000   0.00000  Uiso   1.00
C158   C     0.15256   0.86238   0.75000   0.00000  Uiso   1.00
C159   C     0.12425   0.81950   0.75000   0.00000  Uiso   1.00
C160   C     0.13796   0.79111   0.75000   0.00000  Uiso   1.00
H161   H     0.03716   0.17474   0.75000   0.00000  Uiso   1.00
H162   H     0.99642   0.09977   0.75000   0.00000  Uiso   1.00
H163   H     0.10890   0.09250   0.75000   0.00000  Uiso   1.00
H164   H     0.14991   0.16817   0.75000   0.00000  Uiso   1.00
H165   H     0.07682   0.03477   0.75000   0.00000  Uiso   1.00
H166   H     0.16011   0.92478   0.75000   0.00000  Uiso   1.00
H167   H     0.09113   0.80937   0.75000   0.00000  Uiso   1.00
Br168  Br    0.23676   0.93383   0.75000   0.00000  Uiso   1.00
N169   N     0.55368   0.76423   0.75000   0.00000  Uiso   1.00
C170   C     0.51074   0.74728   0.75000   0.00000  Uiso   1.00
C171   C     0.49036   0.77049   0.75000   0.00000  Uiso   1.00
C172   C     0.44746   0.75073   0.75000   0.00000  Uiso   1.00
C173   C     0.42277   0.70723   0.75000   0.00000  Uiso   1.00
C174   C     0.44347   0.68435   0.75000   0.00000  Uiso   1.00
C175   C     0.48635   0.70380   0.75000   0.00000  Uiso   1.00
C176   C     0.35285   0.64317   0.75000   0.00000  Uiso   1.00
C177   C     0.37713   0.68654   0.75000   0.00000  Uiso   1.00
C178   C     0.22472   0.42107   0.75000   0.00000  Uiso   1.00
C179   C     0.19602   0.37650   0.75000   0.00000  Uiso   1.00
C180   C     0.15314   0.36193   0.75000   0.00000  Uiso   1.00
C181   C     0.12475   0.31984   0.75000   0.00000  Uiso   1.00
H182   H     0.50801   0.80442   0.75000   0.00000  Uiso   1.00
H183   H     0.43303   0.77010   0.75000   0.00000  Uiso   1.00
H184   H     0.42594   0.65043   0.75000   0.00000  Uiso   1.00
H185   H     0.50162   0.68519   0.75000   0.00000  Uiso   1.00
H186   H     0.36820   0.62472   0.75000   0.00000  Uiso   1.00
H187   H     0.25841   0.43138   0.75000   0.00000  Uiso   1.00
H188   H     0.14302   0.38493   0.75000   0.00000  Uiso   1.00
Br189  Br    0.26746   0.36375   0.75000   0.00000  Uiso   1.00
N190   N     0.77967   0.90271   0.75000   0.00000  Uiso   1.00
C191   C     0.82261   0.91960   0.75000   0.00000  Uiso   1.00
C192   C     0.84294   0.89634   0.75000   0.00000  Uiso   1.00
C193   C     0.88585   0.91606   0.75000   0.00000  Uiso   1.00
C194   C     0.91058   0.95955   0.75000   0.00000  Uiso   1.00
C195   C     0.88994   0.98249   0.75000   0.00000  Uiso   1.00
C196   C     0.84705   0.96307   0.75000   0.00000  Uiso   1.00
C197   C     0.98053   0.02354   0.75000   0.00000  Uiso   1.00
C198   C     0.95623   0.98019   0.75000   0.00000  Uiso   1.00
C199   C     0.10890   0.24561   0.75000   0.00000  Uiso   1.00
C200   C     0.13762   0.29018   0.75000   0.00000  Uiso   1.00
C201   C     0.18050   0.30475   0.75000   0.00000  Uiso   1.00
C202   C     0.20889   0.34685   0.75000   0.00000  Uiso   1.00
H203   H     0.82526   0.86242   0.75000   0.00000  Uiso   1.00
H204   H     0.90023   0.89665   0.75000   0.00000  Uiso   1.00
H205   H     0.90750   0.01640   0.75000   0.00000  Uiso   1.00
H206   H     0.83183   0.98174   0.75000   0.00000  Uiso   1.00
H207   H     0.96523   0.04205   0.75000   0.00000  Uiso   1.00
H208   H     0.07522   0.23533   0.75000   0.00000  Uiso   1.00
H209   H     0.19063   0.28176   0.75000   0.00000  Uiso   1.00
Br210  Br    0.06617   0.30293   0.75000   0.00000  Uiso   1.00
N211   N     0.23577   0.78945   0.75000   0.00000  Uiso   1.00
C212   C     0.25272   0.76346   0.75000   0.00000  Uiso   1.00
C213   C     0.22951   0.71987   0.75000   0.00000  Uiso   1.00
C214   C     0.24927   0.69673   0.75000   0.00000  Uiso   1.00
C215   C     0.29277   0.71554   0.75000   0.00000  Uiso   1.00
C216   C     0.31565   0.75912   0.75000   0.00000  Uiso   1.00
C217   C     0.29620   0.78255   0.75000   0.00000  Uiso   1.00
C218   C     0.35683   0.70968   0.75000   0.00000  Uiso   1.00
C219   C     0.31346   0.69059   0.75000   0.00000  Uiso   1.00
C220   C     0.57893   0.80365   0.75000   0.00000  Uiso   1.00
C221   C     0.62350   0.81952   0.75000   0.00000  Uiso   1.00
C222   C     0.63807   0.79121   0.75000   0.00000  Uiso   1.00
C223   C     0.68016   0.80491   0.75000   0.00000  Uiso   1.00
H224   H     0.19558   0.70359   0.75000   0.00000  Uiso   1.00
H225   H     0.22990   0.66293   0.75000   0.00000  Uiso   1.00
H226   H     0.34957   0.77551   0.75000   0.00000  Uiso   1.00
H227   H     0.31481   0.81643   0.75000   0.00000  Uiso   1.00
H228   H     0.37528   0.74348   0.75000   0.00000  Uiso   1.00
H229   H     0.56862   0.82703   0.75000   0.00000  Uiso   1.00
H230   H     0.61507   0.75809   0.75000   0.00000  Uiso   1.00
Br231  Br    0.63625   0.90371   0.75000   0.00000  Uiso   1.00
N232   N     0.09729   0.87696   0.75000   0.00000  Uiso   1.00
C233   C     0.08040   0.90301   0.75000   0.00000  Uiso   1.00
C234   C     0.10366   0.94660   0.75000   0.00000  Uiso   1.00
C235   C     0.08394   0.96979   0.75000   0.00000  Uiso   1.00
C236   C     0.04045   0.95103   0.75000   0.00000  Uiso   1.00
C237   C     0.01751   0.90745   0.75000   0.00000  Uiso   1.00
C238   C     0.03693   0.88398   0.75000   0.00000  Uiso   1.00
C239   C     0.97646   0.95699   0.75000   0.00000  Uiso   1.00
C240   C     0.01981   0.97604   0.75000   0.00000  Uiso   1.00
C241   C     0.75439   0.86329   0.75000   0.00000  Uiso   1.00
C242   C     0.70982   0.84744   0.75000   0.00000  Uiso   1.00
C243   C     0.69525   0.87575   0.75000   0.00000  Uiso   1.00
C244   C     0.65315   0.86204   0.75000   0.00000  Uiso   1.00
H245   H     0.13758   0.96284   0.75000   0.00000  Uiso   1.00
H246   H     0.10335   0.00358   0.75000   0.00000  Uiso   1.00
H247   H     0.98360   0.89110   0.75000   0.00000  Uiso   1.00
H248   H     0.01826   0.85009   0.75000   0.00000  Uiso   1.00
H249   H     0.95795   0.92318   0.75000   0.00000  Uiso   1.00
H250   H     0.76467   0.83989   0.75000   0.00000  Uiso   1.00
H251   H     0.71824   0.90887   0.75000   0.00000  Uiso   1.00
Br252  Br    0.69707   0.76324   0.75000   0.00000  Uiso   1.00
loop_
_geom_bond_atom_site_label_1
_geom_bond_atom_site_label_2
_geom_bond_distance
_geom_bond_site_symmetry_2
_ccdc_geom_bond_type
N1     C2      1.409   .     S
N1     C52     1.301   .     D
C2     C3      1.421   .     S
C2     C7      1.420   .     D
C3     C4      1.399   .     D
C3     H14     1.106   .     S
C4     C5      1.421   .     S
C4     H15     1.105   .     S
C5     C6      1.420   .     D
C5     C9      1.489   .     S
C6     C7      1.399   .     S
C6     H16     1.105   .     S
C7     H17     1.106   .     S
C8     C9      1.416   .     S
C8     H18     1.103   .     S
C8     C93     1.416   .     D
C9     C50     1.416   .     D
C10    C11     1.472   .     S
C10    H19     1.125   .     S
C10    N85     1.301   .     D
C11    C12     1.421   .     D
C11    C34     1.421   .     S
C12    C13     1.399   .     S
C12    H20     1.106   .     S
C13    C32     1.421   .     D
C13    Br42    1.964   .     S
Br21   C34     1.964   .     S
N22    C23     1.409   .     S
N22    C73     1.301   .     D
C23    C24     1.421   .     S
C23    C28     1.420   .     D
C24    C25     1.399   .     D
C24    H35     1.105   .     S
C25    C26     1.421   .     S
C25    H36     1.105   1_655 S
C26    C27     1.420   .     D
C26    C30     1.489   .     S
C27    C28     1.399   .     S
C27    H37     1.105   .     S
C28    H38     1.106   .     S
C29    C30     1.416   .     D
C29    H39     1.103   .     S
C29    C114    1.416   1_565 S
C30    C71     1.416   1_655 S
C31    C32     1.472   .     S
C31    H40     1.125   .     S
C31    N106    1.301   .     D
C32    C33     1.421   .     S
C33    C34     1.399   .     D
C33    H41     1.106   .     S
H36    C25     1.105   1_455 S
N43    C44     1.409   .     S
N43    C94     1.301   .     D
C44    C45     1.421   .     D
C44    C49     1.420   .     S
C45    C46     1.399   .     S
C45    H56     1.106   .     S
C46    C47     1.421   .     D
C46    H57     1.105   .     S
C47    C48     1.420   .     S
C47    C51     1.489   .     S
C48    C49     1.399   .     D
C48    H58     1.105   .     S
C49    H59     1.106   .     S
C50    C51     1.416   .     S
C50    H60     1.103   .     S
C51    C92     1.416   .     D
C52    C53     1.472   .     S
C52    H61     1.125   .     S
C53    C54     1.421   .     S
C53    C76     1.421   .     D
C54    C55     1.399   .     D
C54    H62     1.106   .     S
C55    C74     1.421   .     S
C55    Br84    1.964   .     S
Br63   C76     1.964   .     S
N64    C65     1.409   .     S
N64    C115    1.301   .     D
C65    C66     1.421   .     D
C65    C70     1.420   .     S
C66    C67     1.399   .     S
C66    H77     1.105   .     S
C67    C68     1.421   .     D
C67    H78     1.105   .     S
C68    C69     1.420   .     S
C68    C72     1.489   .     S
C69    C70     1.399   .     D
C69    H79     1.105   1_545 S
C70    H80     1.106   .     S
C71    C30     1.416   1_455 S
C71    C72     1.416   1_565 D
C71    H81     1.103   .     S
C72    C71     1.416   1_545 D
C72    C113    1.416   .     S
C73    C74     1.472   .     S
C73    H82     1.125   .     S
C74    C75     1.421   .     D
C75    C76     1.399   .     S
C75    H83     1.106   .     S
H79    C69     1.105   1_565 S
N85    C86     1.409   .     S
C86    C87     1.421   .     D
C86    C91     1.420   .     S
C87    C88     1.399   .     S
C87    H98     1.106   .     S
C88    C89     1.421   .     D
C88    H99     1.105   .     S
C89    C90     1.420   .     S
C89    C93     1.489   .     S
C90    C91     1.399   .     D
C90    H100    1.105   .     S
C91    H101    1.106   .     S
C92    C93     1.416   .     S
C92    H102    1.103   .     S
C94    C95     1.472   .     S
C94    H103    1.125   .     S
C95    C96     1.421   .     S
C95    C118    1.421   .     D
C96    C97     1.399   .     D
C96    H104    1.106   .     S
C97    C116    1.421   .     S
C97    Br126   1.964   .     S
Br105  C118    1.964   .     S
N106   C107    1.409   .     S
C107   C108    1.421   .     D
C107   C112    1.420   .     S
C108   C109    1.399   .     S
C108   H119    1.105   .     S
C109   C110    1.421   .     D
C109   H120    1.105   1_545 S
C110   C111    1.420   .     S
C110   C114    1.489   .     S
C111   C112    1.399   .     D
C111   H121    1.105   1_655 S
C112   H122    1.106   .     S
C113   C114    1.416   1_455 D
C113   H123    1.103   .     S
C114   C113    1.416   1_655 D
C114   C29     1.416   1_545 S
C115   C116    1.472   .     S
C115   H124    1.125   .     S
C116   C117    1.421   .     D
C117   C118    1.399   .     S
C117   H125    1.106   .     S
H120   C109    1.105   1_565 S
H121   C111    1.105   1_455 S
N127   C128    1.409   .     S
N127   C178    1.301   .     D
C128   C129    1.421   .     D
C128   C133    1.420   .     S
C129   C130    1.399   .     S
C129   H140    1.106   .     S
C130   C131    1.421   .     D
C130   H141    1.105   .     S
C131   C132    1.420   .     S
C131   C135    1.489   .     S
C132   C133    1.399   .     D
C132   H142    1.105   .     S
C133   H143    1.106   .     S
C134   C135    1.416   .     S
C134   H144    1.103   .     S
C134   C219    1.416   .     D
C135   C176    1.416   .     D
C136   C137    1.472   .     S
C136   H145    1.125   .     S
C136   N211    1.301   .     D
C137   C138    1.421   .     D
C137   C160    1.421   .     S
C138   C139    1.399   .     S
C138   H146    1.106   .     S
C139   C158    1.421   .     D
C139   Br168   1.964   .     S
Br147  C160    1.964   .     S
N148   C149    1.409   .     S
N148   C199    1.301   .     D
C149   C150    1.421   .     S
C149   C154    1.420   .     D
C150   C151    1.399   .     D
C150   H161    1.105   .     S
C151   C152    1.421   .     S
C151   H162    1.105   1_455 S
C152   C153    1.420   .     D
C152   C156    1.489   .     S
C153   C154    1.399   .     S
C153   H163    1.105   .     S
C154   H164    1.106   .     S
C155   C156    1.416   .     S
C155   H165    1.103   .     S
C155   C240    1.416   1_545 D
C156   C197    1.416   1_455 D
C157   C158    1.472   .     S
C157   H166    1.125   .     S
C157   N232    1.301   .     D
C158   C159    1.421   .     S
C159   C160    1.399   .     D
C159   H167    1.106   .     S
H162   C151    1.105   1_655 S
N169   C170    1.409   .     S
N169   C220    1.301   .     D
C170   C171    1.421   .     S
C170   C175    1.420   .     D
C171   C172    1.399   .     D
C171   H182    1.106   .     S
C172   C173    1.421   .     S
C172   H183    1.105   .     S
C173   C174    1.420   .     D
C173   C177    1.489   .     S
C174   C175    1.399   .     S
C174   H184    1.105   .     S
C175   H185    1.106   .     S
C176   C177    1.416   .     S
C176   H186    1.103   .     S
C177   C218    1.416   .     D
C178   C179    1.472   .     S
C178   H187    1.125   .     S
C179   C180    1.421   .     D
C179   C202    1.421   .     S
C180   C181    1.399   .     S
C180   H188    1.106   .     S
C181   C200    1.421   .     D
C181   Br210   1.964   .     S
Br189  C202    1.964   .     S
N190   C191    1.409   .     S
N190   C241    1.301   .     D
C191   C192    1.421   .     D
C191   C196    1.420   .     S
C192   C193    1.399   .     S
C192   H203    1.105   .     S
C193   C194    1.421   .     D
C193   H204    1.105   .     S
C194   C195    1.420   .     S
C194   C198    1.489   .     S
C195   C196    1.399   .     D
C195   H205    1.105   1_565 S
C196   H206    1.106   .     S
C197   C156    1.416   1_655 D
C197   C198    1.416   1_545 S
C197   H207    1.103   .     S
C198   C197    1.416   1_565 S
C198   C239    1.416   .     D
C199   C200    1.472   .     S
C199   H208    1.125   .     S
C200   C201    1.421   .     S
C201   C202    1.399   .     D
C201   H209    1.106   .     S
H205   C195    1.105   1_545 S
N211   C212    1.409   .     S
C212   C213    1.421   .     D
C212   C217    1.420   .     S
C213   C214    1.399   .     S
C213   H224    1.106   .     S
C214   C215    1.421   .     D
C214   H225    1.105   .     S
C215   C216    1.420   .     S
C215   C219    1.489   .     S
C216   C217    1.399   .     D
C216   H226    1.105   .     S
C217   H227    1.106   .     S
C218   C219    1.416   .     S
C218   H228    1.103   .     S
C220   C221    1.472   .     S
C220   H229    1.125   .     S
C221   C222    1.421   .     S
C221   C244    1.421   .     D
C222   C223    1.399   .     D
C222   H230    1.106   .     S
C223   C242    1.421   .     S
C223   Br252   1.964   .     S
Br231  C244    1.964   .     S
N232   C233    1.409   .     S
C233   C234    1.421   .     D
C233   C238    1.420   .     S
C234   C235    1.399   .     S
C234   H245    1.105   .     S
C235   C236    1.421   .     D
C235   H246    1.105   1_565 S
C236   C237    1.420   .     S
C236   C240    1.489   .     S
C237   C238    1.399   .     D
C237   H247    1.105   1_455 S
C238   H248    1.106   .     S
C239   C240    1.416   1_655 S
C239   H249    1.103   .     S
C240   C239    1.416   1_455 S
C240   C155    1.416   1_565 D
C241   C242    1.472   .     S
C241   H250    1.125   .     S
C242   C243    1.421   .     D
C243   C244    1.399   .     S
C243   H251    1.106   .     S
H246   C235    1.105   1_545 S
H247   C237    1.105   1_655 S
