data_519
_audit_creation_date              2023-09-08
_audit_creation_method            'Materials Studio'
_symmetry_space_group_name_H-M    'P1'
_symmetry_Int_Tables_number       1
_symmetry_cell_setting            triclinic
loop_
_symmetry_equiv_pos_as_xyz
  x,y,z
_cell_length_a                    39.0981
_cell_length_b                    39.0981
_cell_length_c                    3.5868
_cell_angle_alpha                 90.0000
_cell_angle_beta                  90.0000
_cell_angle_gamma                 120.0000
loop_
_atom_site_label
_atom_site_type_symbol
_atom_site_fract_x
_atom_site_fract_y
_atom_site_fract_z
_atom_site_U_iso_or_equiv
_atom_site_adp_type
_atom_site_occupancy
C1     C     0.30694   0.68319   0.00000   0.00000  Uiso   1.00
C2     C     0.35002   0.71013   0.00000   0.00000  Uiso   1.00
C3     C     0.36359   0.74865   0.00000   0.00000  Uiso   1.00
C4     C     0.60308   0.42160   0.00000   0.00000  Uiso   1.00
C5     C     0.61850   0.46097   0.15556   0.00000  Uiso   1.00
C6     C     0.59525   0.47886   0.14606   0.00000  Uiso   1.00
C7     C     0.55613   0.45757   0.00000   0.00000  Uiso   1.00
C8     C     0.54051   0.41848  -0.09611   0.00000  Uiso   1.00
C9     C     0.56383   0.40063  -0.09047   0.00000  Uiso   1.00
C10    C     0.53203   0.47580   0.00000   0.00000  Uiso   1.00
C11    C     0.51183   0.49106   0.00000   0.00000  Uiso   1.00
O12    O     0.28600   0.69666   0.00000   0.00000  Uiso   1.00
N13    N     0.40424   0.77621   0.00000   0.00000  Uiso   1.00
H14    H     0.34241   0.75864   0.00000   0.00000  Uiso   1.00
H15    H     0.42162   0.76542   0.00000   0.00000  Uiso   1.00
H16    H     0.64861   0.47781   0.25529   0.00000  Uiso   1.00
H17    H     0.60766   0.50915   0.23847   0.00000  Uiso   1.00
H18    H     0.51038   0.40189  -0.19635   0.00000  Uiso   1.00
H19    H     0.55093   0.37076  -0.19309   0.00000  Uiso   1.00
C20    C     0.31681   0.62375   0.00000   0.00000  Uiso   1.00
C21    C     0.28987   0.63989   0.00000   0.00000  Uiso   1.00
C22    C     0.25135   0.61494   0.00000   0.00000  Uiso   1.00
C23    C     0.57840   0.18148   0.00000   0.00000  Uiso   1.00
C24    C     0.53903   0.15753   0.15556   0.00000  Uiso   1.00
C25    C     0.52114   0.11639   0.14606   0.00000  Uiso   1.00
C26    C     0.54243   0.09856   0.00000   0.00000  Uiso   1.00
C27    C     0.58152   0.12203  -0.09611   0.00000  Uiso   1.00
C28    C     0.59937   0.16320  -0.09047   0.00000  Uiso   1.00
C29    C     0.52420   0.05623   0.00000   0.00000  Uiso   1.00
C30    C     0.50894   0.02077   0.00000   0.00000  Uiso   1.00
O31    O     0.30334   0.58934   0.00000   0.00000  Uiso   1.00
N32    N     0.22379   0.62803   0.00000   0.00000  Uiso   1.00
H33    H     0.24136   0.58377   0.00000   0.00000  Uiso   1.00
H34    H     0.23458   0.65620   0.00000   0.00000  Uiso   1.00
H35    H     0.52219   0.17080   0.25529   0.00000  Uiso   1.00
H36    H     0.49085   0.09851   0.23847   0.00000  Uiso   1.00
H37    H     0.59811   0.10849  -0.19635   0.00000  Uiso   1.00
H38    H     0.62924   0.18017  -0.19309   0.00000  Uiso   1.00
C39    C     0.37625   0.69306   0.00000   0.00000  Uiso   1.00
C40    C     0.36011   0.64998   0.00000   0.00000  Uiso   1.00
C41    C     0.38506   0.63641   0.00000   0.00000  Uiso   1.00
C42    C     0.81852   0.39692   0.00000   0.00000  Uiso   1.00
C43    C     0.84247   0.38150   0.15556   0.00000  Uiso   1.00
C44    C     0.88361   0.40475   0.14606   0.00000  Uiso   1.00
C45    C     0.90144   0.44387   0.00000   0.00000  Uiso   1.00
C46    C     0.87797   0.45949  -0.09611   0.00000  Uiso   1.00
C47    C     0.83680   0.43617  -0.09047   0.00000  Uiso   1.00
C48    C     0.94377   0.46797   0.00000   0.00000  Uiso   1.00
C49    C     0.97923   0.48817   0.00000   0.00000  Uiso   1.00
O50    O     0.41066   0.71400   0.00000   0.00000  Uiso   1.00
N51    N     0.37197   0.59576   0.00000   0.00000  Uiso   1.00
H52    H     0.41623   0.65759   0.00000   0.00000  Uiso   1.00
H53    H     0.34380   0.57838   0.00000   0.00000  Uiso   1.00
H54    H     0.82920   0.35139   0.25529   0.00000  Uiso   1.00
H55    H     0.90149   0.39234   0.23847   0.00000  Uiso   1.00
H56    H     0.89151   0.48962  -0.19635   0.00000  Uiso   1.00
H57    H     0.81983   0.44907  -0.19309   0.00000  Uiso   1.00
C58    C     0.69306   0.31681   0.00000   0.00000  Uiso   1.00
C59    C     0.64998   0.28987   0.00000   0.00000  Uiso   1.00
C60    C     0.63641   0.25135   0.00000   0.00000  Uiso   1.00
C61    C     0.39692   0.57840   0.00000   0.00000  Uiso   1.00
C62    C     0.38150   0.53903   0.15556   0.00000  Uiso   1.00
C63    C     0.40475   0.52114   0.14606   0.00000  Uiso   1.00
C64    C     0.44387   0.54243   0.00000   0.00000  Uiso   1.00
C65    C     0.45949   0.58152  -0.09611   0.00000  Uiso   1.00
C66    C     0.43617   0.59937  -0.09047   0.00000  Uiso   1.00
C67    C     0.46797   0.52420   0.00000   0.00000  Uiso   1.00
C68    C     0.48817   0.50894   0.00000   0.00000  Uiso   1.00
O69    O     0.71400   0.30334   0.00000   0.00000  Uiso   1.00
N70    N     0.59576   0.22379   0.00000   0.00000  Uiso   1.00
H71    H     0.65759   0.24136   0.00000   0.00000  Uiso   1.00
H72    H     0.57838   0.23458   0.00000   0.00000  Uiso   1.00
H73    H     0.35139   0.52219   0.25529   0.00000  Uiso   1.00
H74    H     0.39234   0.49085   0.23847   0.00000  Uiso   1.00
H75    H     0.48962   0.59811  -0.19635   0.00000  Uiso   1.00
H76    H     0.44907   0.62924  -0.19309   0.00000  Uiso   1.00
C77    C     0.68319   0.37625   0.00000   0.00000  Uiso   1.00
C78    C     0.71013   0.36011   0.00000   0.00000  Uiso   1.00
C79    C     0.74865   0.38506   0.00000   0.00000  Uiso   1.00
C80    C     0.42160   0.81852   0.00000   0.00000  Uiso   1.00
C81    C     0.46097   0.84247   0.15556   0.00000  Uiso   1.00
C82    C     0.47886   0.88361   0.14606   0.00000  Uiso   1.00
C83    C     0.45757   0.90144   0.00000   0.00000  Uiso   1.00
C84    C     0.41848   0.87797  -0.09611   0.00000  Uiso   1.00
C85    C     0.40063   0.83680  -0.09047   0.00000  Uiso   1.00
C86    C     0.47580   0.94377   0.00000   0.00000  Uiso   1.00
C87    C     0.49106   0.97923   0.00000   0.00000  Uiso   1.00
O88    O     0.69666   0.41066   0.00000   0.00000  Uiso   1.00
N89    N     0.77621   0.37197   0.00000   0.00000  Uiso   1.00
H90    H     0.75864   0.41623   0.00000   0.00000  Uiso   1.00
H91    H     0.76542   0.34380   0.00000   0.00000  Uiso   1.00
H92    H     0.47781   0.82920   0.25529   0.00000  Uiso   1.00
H93    H     0.50915   0.90149   0.23847   0.00000  Uiso   1.00
H94    H     0.40189   0.89151  -0.19635   0.00000  Uiso   1.00
H95    H     0.37076   0.81983  -0.19309   0.00000  Uiso   1.00
C96    C     0.62375   0.30694   0.00000   0.00000  Uiso   1.00
C97    C     0.63989   0.35002   0.00000   0.00000  Uiso   1.00
C98    C     0.61494   0.36359   0.00000   0.00000  Uiso   1.00
C99    C     0.18148   0.60308   0.00000   0.00000  Uiso   1.00
C100   C     0.15753   0.61850   0.15556   0.00000  Uiso   1.00
C101   C     0.11639   0.59525   0.14606   0.00000  Uiso   1.00
C102   C     0.09856   0.55613   0.00000   0.00000  Uiso   1.00
C103   C     0.12203   0.54051  -0.09611   0.00000  Uiso   1.00
C104   C     0.16320   0.56383  -0.09047   0.00000  Uiso   1.00
C105   C     0.05623   0.53203   0.00000   0.00000  Uiso   1.00
C106   C     0.02077   0.51183   0.00000   0.00000  Uiso   1.00
O107   O     0.58934   0.28600   0.00000   0.00000  Uiso   1.00
N108   N     0.62803   0.40424   0.00000   0.00000  Uiso   1.00
H109   H     0.58377   0.34241   0.00000   0.00000  Uiso   1.00
H110   H     0.65620   0.42162   0.00000   0.00000  Uiso   1.00
H111   H     0.17080   0.64861   0.25529   0.00000  Uiso   1.00
H112   H     0.09851   0.60766   0.23847   0.00000  Uiso   1.00
H113   H     0.10849   0.51038  -0.19635   0.00000  Uiso   1.00
H114   H     0.18017   0.55093  -0.19309   0.00000  Uiso   1.00
loop_
_geom_bond_atom_site_label_1
_geom_bond_atom_site_label_2
_geom_bond_distance
_geom_bond_site_symmetry_2
_ccdc_geom_bond_type
C1     C2      1.474   .     S
C1     O12     1.174   .     D
C1     C21     1.477   .     S
C2     C3      1.323   .     D
C2     C39     1.477   .     S
C3     N13     1.405   .     S
C3     H14     1.078   .     S
C4     C5      1.455   .     D
C4     C9      1.369   .     S
C4     N108    1.440   .     S
C5     C6      1.397   .     S
C5     H16     1.083   .     S
C6     C7      1.426   .     D
C6     H17     1.083   .     S
C7     C8      1.376   .     S
C7     C10     1.438   .     S
C8     C9      1.398   .     D
C8     H18     1.083   .     S
C9     H19     1.079   .     S
C10    C11     1.205   .     T
C11    C68     1.411   .     S
N13    H15     0.962   .     S
N13    C80     1.440   .     S
C20    C21     1.474   .     S
C20    O31     1.174   .     D
C20    C40     1.477   .     S
C21    C22     1.323   .     D
C22    N32     1.405   .     S
C22    H33     1.078   .     S
C23    C24     1.455   .     D
C23    C28     1.369   .     S
C23    N70     1.440   .     S
C24    C25     1.397   .     S
C24    H35     1.083   .     S
C25    C26     1.426   .     D
C25    H36     1.083   .     S
C26    C27     1.376   .     S
C26    C29     1.438   .     S
C27    C28     1.398   .     D
C27    H37     1.083   .     S
C28    H38     1.079   .     S
C29    C30     1.205   .     T
C30    C87     1.411   1_545 S
N32    H34     0.962   .     S
N32    C99     1.440   .     S
C39    C40     1.474   .     S
C39    O50     1.174   .     D
C40    C41     1.323   .     D
C41    N51     1.405   .     S
C41    H52     1.078   .     S
C42    C43     1.455   .     D
C42    C47     1.369   .     S
C42    N89     1.440   .     S
C43    C44     1.397   .     S
C43    H54     1.083   .     S
C44    C45     1.426   .     D
C44    H55     1.083   .     S
C45    C46     1.376   .     S
C45    C48     1.438   .     S
C46    C47     1.398   .     D
C46    H56     1.083   .     S
C47    H57     1.079   .     S
C48    C49     1.205   .     T
C49    C106    1.411   1_655 S
N51    H53     0.962   .     S
N51    C61     1.440   .     S
C58    C59     1.474   .     S
C58    O69     1.174   .     D
C58    C78     1.477   .     S
C59    C60     1.323   .     D
C59    C96     1.477   .     S
C60    N70     1.405   .     S
C60    H71     1.078   .     S
C61    C62     1.455   .     D
C61    C66     1.369   .     S
C62    C63     1.397   .     S
C62    H73     1.083   .     S
C63    C64     1.426   .     D
C63    H74     1.083   .     S
C64    C65     1.376   .     S
C64    C67     1.438   .     S
C65    C66     1.398   .     D
C65    H75     1.083   .     S
C66    H76     1.079   .     S
C67    C68     1.205   .     T
N70    H72     0.962   .     S
C77    C78     1.474   .     S
C77    O88     1.174   .     D
C77    C97     1.477   .     S
C78    C79     1.323   .     D
C79    N89     1.405   .     S
C79    H90     1.078   .     S
C80    C81     1.455   .     D
C80    C85     1.369   .     S
C81    C82     1.397   .     S
C81    H92     1.083   .     S
C82    C83     1.426   .     D
C82    H93     1.083   .     S
C83    C84     1.376   .     S
C83    C86     1.438   .     S
C84    C85     1.398   .     D
C84    H94     1.083   .     S
C85    H95     1.079   .     S
C86    C87     1.205   .     T
C87    C30     1.411   1_565 S
N89    H91     0.962   .     S
C96    C97     1.474   .     S
C96    O107    1.174   .     D
C97    C98     1.323   .     D
C98    N108    1.405   .     S
C98    H109    1.078   .     S
C99    C100    1.455   .     D
C99    C104    1.369   .     S
C100   C101    1.397   .     S
C100   H111    1.083   .     S
C101   C102    1.426   .     D
C101   H112    1.083   .     S
C102   C103    1.376   .     S
C102   C105    1.438   .     S
C103   C104    1.398   .     D
C103   H113    1.083   .     S
C104   H114    1.079   .     S
C105   C106    1.205   .     T
C106   C49     1.411   1_455 S
N108   H110    0.962   .     S
