data_520
_audit_creation_date              2023-09-08
_audit_creation_method            'Materials Studio'
_symmetry_space_group_name_H-M    'P1'
_symmetry_Int_Tables_number       1
_symmetry_cell_setting            triclinic
loop_
_symmetry_equiv_pos_as_xyz
  x,y,z
_cell_length_a                    29.9665
_cell_length_b                    27.9609
_cell_length_c                    3.3029
_cell_angle_alpha                 90.4000
_cell_angle_beta                  88.8000
_cell_angle_gamma                 117.1000
loop_
_atom_site_label
_atom_site_type_symbol
_atom_site_fract_x
_atom_site_fract_y
_atom_site_fract_z
_atom_site_U_iso_or_equiv
_atom_site_adp_type
_atom_site_occupancy
O1     O     0.30097   0.56026  -0.00000   0.00000  Uiso   1.00
O2     O     0.69902   0.43973  -0.00000   0.00000  Uiso   1.00
O3     O     0.43964   0.74066  -0.00000   0.00000  Uiso   1.00
O4     O     0.56037   0.25933   0.00000   0.00000  Uiso   1.00
O5     O     0.25926   0.69902  -0.00000   0.00000  Uiso   1.00
O6     O     0.74074   0.30099  -0.00000   0.00000  Uiso   1.00
O7     O     0.51406   0.63746  -0.00000   0.00000  Uiso   1.00
O8     O     0.48595   0.36254  -0.00000   0.00000  Uiso   1.00
O9     O     0.36257   0.87674  -0.00000   0.00000  Uiso   1.00
O10    O     0.63743   0.12328   0.00000   0.00000  Uiso   1.00
O11    O     0.12332   0.48584   0.00000   0.00000  Uiso   1.00
O12    O     0.87667   0.51414   0.00000   0.00000  Uiso   1.00
O13    O     0.35735   0.47393   0.00000   0.00000  Uiso   1.00
O14    O     0.64266   0.52607   0.00000   0.00000  Uiso   1.00
O15    O     0.52601   0.88331  -0.00000   0.00000  Uiso   1.00
O16    O     0.47399   0.11670   0.00000   0.00000  Uiso   1.00
O17    O     0.11656   0.64266  -0.00000   0.00000  Uiso   1.00
O18    O     0.88343   0.35733  -0.00000   0.00000  Uiso   1.00
N19    N     0.39528   0.58262  -0.00000   0.00000  Uiso   1.00
N20    N     0.60473   0.41738   0.00000   0.00000  Uiso   1.00
N21    N     0.41732   0.81265  -0.00000   0.00000  Uiso   1.00
N22    N     0.58269   0.18736   0.00000   0.00000  Uiso   1.00
N23    N     0.18730   0.60469  -0.00000   0.00000  Uiso   1.00
N24    N     0.81269   0.39530   0.00000   0.00000  Uiso   1.00
N25    N     0.42810   0.56175  -0.00000   0.00000  Uiso   1.00
N26    N     0.57192   0.43825  -0.00000   0.00000  Uiso   1.00
N27    N     0.43823   0.86635  -0.00000   0.00000  Uiso   1.00
N28    N     0.56178   0.13367  -0.00000   0.00000  Uiso   1.00
N29    N     0.13362   0.57187  -0.00000   0.00000  Uiso   1.00
N30    N     0.86636   0.42811  -0.00000   0.00000  Uiso   1.00
C31    C     0.31599   0.60971  -0.00000   0.00000  Uiso   1.00
C32    C     0.68400   0.39028   0.00000   0.00000  Uiso   1.00
C33    C     0.39020   0.70627  -0.00000   0.00000  Uiso   1.00
C34    C     0.60981   0.29374   0.00000   0.00000  Uiso   1.00
C35    C     0.29367   0.68397  -0.00000   0.00000  Uiso   1.00
C36    C     0.70633   0.31603  -0.00000   0.00000  Uiso   1.00
C37    C     0.41080   0.63435  -0.00000   0.00000  Uiso   1.00
C38    C     0.58920   0.36564  -0.00000   0.00000  Uiso   1.00
C39    C     0.36560   0.77650  -0.00000   0.00000  Uiso   1.00
C40    C     0.63441   0.22351  -0.00000   0.00000  Uiso   1.00
C41    C     0.22350   0.58916  -0.00000   0.00000  Uiso   1.00
C42    C     0.77650   0.41085  -0.00000   0.00000  Uiso   1.00
C43    C     0.48461   0.58925  -0.00000   0.00000  Uiso   1.00
C44    C     0.51540   0.41075   0.00000   0.00000  Uiso   1.00
C45    C     0.41076   0.89543  -0.00000   0.00000  Uiso   1.00
C46    C     0.58924   0.10459   0.00000   0.00000  Uiso   1.00
C47    C     0.10460   0.51534  -0.00000   0.00000  Uiso   1.00
C48    C     0.89539   0.48464  -0.00000   0.00000  Uiso   1.00
C49    C     0.49824   0.54626  -0.00000   0.00000  Uiso   1.00
C50    C     0.50177   0.45374  -0.00000   0.00000  Uiso   1.00
C51    C     0.45376   0.95202  -0.00000   0.00000  Uiso   1.00
C52    C     0.54624   0.04799   0.00000   0.00000  Uiso   1.00
C53    C     0.04800   0.50173  -0.00000   0.00000  Uiso   1.00
C54    C     0.95199   0.49826  -0.00000   0.00000  Uiso   1.00
C55    C     0.45112   0.49642  -0.00000   0.00000  Uiso   1.00
C56    C     0.54889   0.50357   0.00000   0.00000  Uiso   1.00
C57    C     0.50356   0.95466  -0.00000   0.00000  Uiso   1.00
C58    C     0.49645   0.04536   0.00000   0.00000  Uiso   1.00
C59    C     0.04530   0.54888  -0.00000   0.00000  Uiso   1.00
C60    C     0.95468   0.45111  -0.00000   0.00000  Uiso   1.00
C61    C     0.40501   0.50517  -0.00000   0.00000  Uiso   1.00
C62    C     0.59500   0.49482   0.00000   0.00000  Uiso   1.00
C63    C     0.49479   0.89978  -0.00000   0.00000  Uiso   1.00
C64    C     0.50522   0.10024  -0.00000   0.00000  Uiso   1.00
C65    C     0.10015   0.59498  -0.00000   0.00000  Uiso   1.00
C66    C     0.89983   0.40501  -0.00000   0.00000  Uiso   1.00
C67    C     0.37215   0.64962  -0.00000   0.00000  Uiso   1.00
C68    C     0.62785   0.35037   0.00000   0.00000  Uiso   1.00
C69    C     0.35030   0.72256  -0.00000   0.00000  Uiso   1.00
C70    C     0.64971   0.27745  -0.00000   0.00000  Uiso   1.00
C71    C     0.27740   0.62779  -0.00000   0.00000  Uiso   1.00
C72    C     0.72259   0.37222   0.00000   0.00000  Uiso   1.00
C73    C     0.54864   0.55148   0.00000   0.00000  Uiso   1.00
C74    C     0.45137   0.44851  -0.00000   0.00000  Uiso   1.00
C75    C     0.44856   0.99723  -0.00000   0.00000  Uiso   1.00
C76    C     0.55145   0.00279  -0.00000   0.00000  Uiso   1.00
C77    C     0.00282   0.45133  -0.00000   0.00000  Uiso   1.00
C78    C     0.99717   0.54865   0.00000   0.00000  Uiso   1.00
H79    H     0.45304   0.66404  -0.00000   0.00000  Uiso   1.00
H80    H     0.54696   0.33596   0.00000   0.00000  Uiso   1.00
H81    H     0.33594   0.78911  -0.00000   0.00000  Uiso   1.00
H82    H     0.66407   0.21090  -0.00000   0.00000  Uiso   1.00
H83    H     0.21096   0.54691  -0.00000   0.00000  Uiso   1.00
H84    H     0.78904   0.45310   0.00000   0.00000  Uiso   1.00
H85    H     0.35188   0.55701  -0.00000   0.00000  Uiso   1.00
H86    H     0.64814   0.44297  -0.00000   0.00000  Uiso   1.00
H87    H     0.44288   0.79475  -0.00000   0.00000  Uiso   1.00
H88    H     0.55713   0.20528  -0.00000   0.00000  Uiso   1.00
H89    H     0.20510   0.64811  -0.00000   0.00000  Uiso   1.00
H90    H     0.79486   0.35187   0.00000   0.00000  Uiso   1.00
H91    H     0.58508   0.59013  -0.00000   0.00000  Uiso   1.00
H92    H     0.41494   0.40987  -0.00000   0.00000  Uiso   1.00
H93    H     0.40993   0.99509  -0.00000   0.00000  Uiso   1.00
H94    H     0.59008   0.00494   0.00000   0.00000  Uiso   1.00
H95    H     0.00501   0.41487  -0.00000   0.00000  Uiso   1.00
H96    H     0.99496   0.58512  -0.00000   0.00000  Uiso   1.00
loop_
_geom_bond_atom_site_label_1
_geom_bond_atom_site_label_2
_geom_bond_distance
_geom_bond_site_symmetry_2
_ccdc_geom_bond_type
O1     C31     1.244   .     D
O2     C32     1.244   .     D
O3     C33     1.350   .     D
O4     C34     1.350   .     D
O5     C35     1.279   .     D
O6     C36     1.279   .     D
O7     C43     1.230   .     D
O8     C44     1.230   .     D
O9     C45     1.293   .     D
O10    C46     1.293   .     D
O11    C47     1.190   .     D
O12    C48     1.190   .     D
O13    C61     1.291   .     D
O14    C62     1.291   .     D
O15    C63     1.216   .     D
O16    C64     1.217   .     D
O17    C65     1.192   .     D
O18    C66     1.192   .     D
N19    N25     1.353   .     S
N19    C37     1.302   .     S
N19    H85     1.164   .     S
N20    N26     1.353   .     S
N20    C38     1.302   .     S
N20    H86     1.165   .     S
N21    N27     1.338   .     S
N21    C39     1.413   .     S
N21    H87     1.089   .     S
N22    N28     1.338   .     S
N22    C40     1.413   .     S
N22    H88     1.090   .     S
N23    N29     1.444   .     S
N23    C41     1.340   .     S
N23    H89     1.081   .     S
N24    N30     1.444   .     S
N24    C42     1.340   .     S
N24    H90     1.081   .     S
N25    C43     1.507   .     S
N25    C61     1.409   .     S
N26    C44     1.508   .     S
N26    C62     1.408   .     S
N27    C45     1.396   .     S
N27    C63     1.518   .     S
N28    C46     1.396   .     S
N28    C64     1.518   .     S
N29    C47     1.415   .     S
N29    C65     1.419   .     S
N30    C48     1.415   .     S
N30    C66     1.419   .     S
C31    C67     1.538   .     S
C31    C71     1.458   .     S
C32    C68     1.538   .     S
C32    C72     1.458   .     S
C33    C67     1.422   .     S
C33    C69     1.461   .     S
C34    C68     1.421   .     S
C34    C70     1.461   .     S
C35    C69     1.541   .     S
C35    C71     1.417   .     S
C36    C70     1.541   .     S
C36    C72     1.417   .     S
C37    C67     1.405   .     D
C37    H79     1.155   .     S
C38    C68     1.405   .     D
C38    H80     1.155   .     S
C39    C69     1.362   .     D
C39    H81     1.095   .     S
C40    C70     1.362   .     D
C40    H82     1.095   .     S
C41    C71     1.479   .     D
C41    H83     1.064   .     S
C42    C72     1.479   .     D
C42    H84     1.064   .     S
C43    C49     1.435   .     S
C44    C50     1.435   .     S
C45    C51     1.519   .     S
C46    C52     1.519   .     S
C47    C53     1.560   .     S
C48    C54     1.560   .     S
C49    C55     1.464   .     S
C49    C73     1.450   .     D
C50    C56     1.464   .     D
C50    C74     1.450   .     S
C51    C57     1.460   .     S
C51    C75     1.342   .     D
C52    C58     1.460   .     D
C52    C76     1.342   .     S
C53    C59     1.357   .     D
C53    C77     1.442   .     S
C54    C60     1.357   .     S
C54    C78     1.442   .     D
C55    C61     1.509   .     S
C55    C74     1.343   .     D
C56    C62     1.509   .     S
C56    C73     1.343   .     S
C57    C63     1.434   .     S
C57    C76     1.453   1_565 D
C58    C64     1.434   .     S
C58    C75     1.453   1_545 S
C59    C65     1.560   .     S
C59    C78     1.439   1_455 S
C60    C66     1.560   .     S
C60    C77     1.440   1_655 D
C73    H91     1.134   .     S
C74    H92     1.133   .     S
C75    C58     1.453   1_565 S
C75    H93     1.132   .     S
C76    C57     1.453   1_545 D
C76    H94     1.131   .     S
C77    C60     1.440   1_455 D
C77    H95     1.051   .     S
C78    C59     1.439   1_655 S
C78    H96     1.052   .     S
