data_521
_audit_creation_date              2023-09-08
_audit_creation_method            'Materials Studio'
_symmetry_space_group_name_H-M    'P1'
_symmetry_Int_Tables_number       1
_symmetry_cell_setting            triclinic
loop_
_symmetry_equiv_pos_as_xyz
  x,y,z
_cell_length_a                    33.6198
_cell_length_b                    33.6198
_cell_length_c                    3.0314
_cell_angle_alpha                 90.0000
_cell_angle_beta                  90.0000
_cell_angle_gamma                 120.0000
loop_
_atom_site_label
_atom_site_type_symbol
_atom_site_fract_x
_atom_site_fract_y
_atom_site_fract_z
_atom_site_U_iso_or_equiv
_atom_site_adp_type
_atom_site_occupancy
H1     H     0.49700   0.66142  -0.20141   0.00000  Uiso   1.00
H2     H     0.33857   0.83557  -0.20141   0.00000  Uiso   1.00
H3     H     0.16443   0.50300  -0.20141   0.00000  Uiso   1.00
H4     H     0.50300   0.33857  -0.20141   0.00000  Uiso   1.00
H5     H     0.66142   0.16442  -0.20141   0.00000  Uiso   1.00
H6     H     0.83557   0.49700  -0.20141   0.00000  Uiso   1.00
H7     H     0.50300   0.33857   0.20141   0.00000  Uiso   1.00
H8     H     0.66142   0.16442   0.20141   0.00000  Uiso   1.00
H9     H     0.83557   0.49700   0.20141   0.00000  Uiso   1.00
H10    H     0.49700   0.66142   0.20141   0.00000  Uiso   1.00
H11    H     0.33857   0.83557   0.20141   0.00000  Uiso   1.00
H12    H     0.16443   0.50300   0.20141   0.00000  Uiso   1.00
O13    O     0.28755   0.56179   0.00000   0.00000  Uiso   1.00
N14    N     0.38477   0.57293   0.00000   0.00000  Uiso   1.00
C15    C     0.30922   0.60977   0.00000   0.00000  Uiso   1.00
C16    C     0.39846   0.62504   0.00000   0.00000  Uiso   1.00
C17    C     0.42288   0.55812   0.00000   0.00000  Uiso   1.00
C18    C     0.47970   0.59233   0.00000   0.00000  Uiso   1.00
C19    C     0.50767   0.56659   0.00000   0.00000  Uiso   1.00
C20    C     0.48375   0.51191   0.00000   0.00000  Uiso   1.00
C21    C     0.42892   0.48087   0.00000   0.00000  Uiso   1.00
C22    C     0.39964   0.50379   0.00000   0.00000  Uiso   1.00
C23    C     0.36596   0.64285   0.00000   0.00000  Uiso   1.00
H24    H     0.43340   0.65087   0.00000   0.00000  Uiso   1.00
H25    H     0.35010   0.54775   0.00000   0.00000  Uiso   1.00
H26    H     0.36263   0.48269   0.00000   0.00000  Uiso   1.00
H27    H     0.54457   0.58708   0.00000   0.00000  Uiso   1.00
H28    H     0.41195   0.44391   0.00000   0.00000  Uiso   1.00
C29    C     0.50784   0.64385   0.00000   0.00000  Uiso   1.00
O30    O     0.43821   0.72576   0.00000   0.00000  Uiso   1.00
N31    N     0.42707   0.81184   0.00000   0.00000  Uiso   1.00
C32    C     0.39023   0.69945   0.00000   0.00000  Uiso   1.00
C33    C     0.37496   0.77342   0.00000   0.00000  Uiso   1.00
C34    C     0.44188   0.86476   0.00000   0.00000  Uiso   1.00
C35    C     0.40767   0.88737   0.00000   0.00000  Uiso   1.00
C36    C     0.43341   0.94108   0.00000   0.00000  Uiso   1.00
C37    C     0.48809   0.97184   0.00000   0.00000  Uiso   1.00
C38    C     0.51913   0.94805   0.00000   0.00000  Uiso   1.00
C39    C     0.49621   0.89585   0.00000   0.00000  Uiso   1.00
C40    C     0.35715   0.72311   0.00000   0.00000  Uiso   1.00
H41    H     0.34913   0.78254   0.00000   0.00000  Uiso   1.00
H42    H     0.45225   0.80235   0.00000   0.00000  Uiso   1.00
H43    H     0.51731   0.87994   0.00000   0.00000  Uiso   1.00
H44    H     0.41292   0.95749   0.00000   0.00000  Uiso   1.00
H45    H     0.55609   0.96805   0.00000   0.00000  Uiso   1.00
C46    C     0.35615   0.86399   0.00000   0.00000  Uiso   1.00
O47    O     0.27424   0.71245   0.00000   0.00000  Uiso   1.00
N48    N     0.18816   0.61523   0.00000   0.00000  Uiso   1.00
C49    C     0.30055   0.69078   0.00000   0.00000  Uiso   1.00
C50    C     0.22658   0.60154   0.00000   0.00000  Uiso   1.00
C51    C     0.13524   0.57712   0.00000   0.00000  Uiso   1.00
C52    C     0.11263   0.52030   0.00000   0.00000  Uiso   1.00
C53    C     0.05892   0.49233   0.00000   0.00000  Uiso   1.00
C54    C     0.02816   0.51625   0.00000   0.00000  Uiso   1.00
C55    C     0.05195   0.57108   0.00000   0.00000  Uiso   1.00
C56    C     0.10415   0.60036   0.00000   0.00000  Uiso   1.00
C57    C     0.27689   0.63404   0.00000   0.00000  Uiso   1.00
H58    H     0.21746   0.56660   0.00000   0.00000  Uiso   1.00
H59    H     0.19765   0.64990   0.00000   0.00000  Uiso   1.00
H60    H     0.12006   0.63737   0.00000   0.00000  Uiso   1.00
H61    H     0.04251   0.45543   0.00000   0.00000  Uiso   1.00
H62    H     0.03195   0.58805   0.00000   0.00000  Uiso   1.00
C63    C     0.13601   0.49215   0.00000   0.00000  Uiso   1.00
O64    O     0.71245   0.43821   0.00000   0.00000  Uiso   1.00
N65    N     0.61523   0.42707   0.00000   0.00000  Uiso   1.00
C66    C     0.69078   0.39023   0.00000   0.00000  Uiso   1.00
C67    C     0.60154   0.37496   0.00000   0.00000  Uiso   1.00
C68    C     0.57712   0.44188   0.00000   0.00000  Uiso   1.00
C69    C     0.52030   0.40767   0.00000   0.00000  Uiso   1.00
C70    C     0.49233   0.43341   0.00000   0.00000  Uiso   1.00
C71    C     0.51625   0.48809   0.00000   0.00000  Uiso   1.00
C72    C     0.57108   0.51913   0.00000   0.00000  Uiso   1.00
C73    C     0.60036   0.49621   0.00000   0.00000  Uiso   1.00
C74    C     0.63404   0.35715   0.00000   0.00000  Uiso   1.00
H75    H     0.56660   0.34913   0.00000   0.00000  Uiso   1.00
H76    H     0.64990   0.45225   0.00000   0.00000  Uiso   1.00
H77    H     0.63737   0.51731   0.00000   0.00000  Uiso   1.00
H78    H     0.45543   0.41292   0.00000   0.00000  Uiso   1.00
H79    H     0.58805   0.55609   0.00000   0.00000  Uiso   1.00
C80    C     0.49215   0.35615   0.00000   0.00000  Uiso   1.00
O81    O     0.56179   0.27424   0.00000   0.00000  Uiso   1.00
N82    N     0.57293   0.18816   0.00000   0.00000  Uiso   1.00
C83    C     0.60977   0.30055   0.00000   0.00000  Uiso   1.00
C84    C     0.62504   0.22658   0.00000   0.00000  Uiso   1.00
C85    C     0.55812   0.13524   0.00000   0.00000  Uiso   1.00
C86    C     0.59233   0.11263   0.00000   0.00000  Uiso   1.00
C87    C     0.56659   0.05892   0.00000   0.00000  Uiso   1.00
C88    C     0.51191   0.02816   0.00000   0.00000  Uiso   1.00
C89    C     0.48087   0.05195   0.00000   0.00000  Uiso   1.00
C90    C     0.50379   0.10415   0.00000   0.00000  Uiso   1.00
C91    C     0.64285   0.27689   0.00000   0.00000  Uiso   1.00
H92    H     0.65087   0.21746   0.00000   0.00000  Uiso   1.00
H93    H     0.54775   0.19765   0.00000   0.00000  Uiso   1.00
H94    H     0.48269   0.12006   0.00000   0.00000  Uiso   1.00
H95    H     0.58708   0.04251   0.00000   0.00000  Uiso   1.00
H96    H     0.44391   0.03195   0.00000   0.00000  Uiso   1.00
C97    C     0.64385   0.13601   0.00000   0.00000  Uiso   1.00
O98    O     0.72576   0.28755   0.00000   0.00000  Uiso   1.00
N99    N     0.81184   0.38477   0.00000   0.00000  Uiso   1.00
C100   C     0.69945   0.30922   0.00000   0.00000  Uiso   1.00
C101   C     0.77342   0.39846   0.00000   0.00000  Uiso   1.00
C102   C     0.86476   0.42288   0.00000   0.00000  Uiso   1.00
C103   C     0.88737   0.47970   0.00000   0.00000  Uiso   1.00
C104   C     0.94108   0.50767   0.00000   0.00000  Uiso   1.00
C105   C     0.97184   0.48375   0.00000   0.00000  Uiso   1.00
C106   C     0.94805   0.42892   0.00000   0.00000  Uiso   1.00
C107   C     0.89585   0.39964   0.00000   0.00000  Uiso   1.00
C108   C     0.72311   0.36596   0.00000   0.00000  Uiso   1.00
H109   H     0.78253   0.43340   0.00000   0.00000  Uiso   1.00
H110   H     0.80235   0.35010   0.00000   0.00000  Uiso   1.00
H111   H     0.87994   0.36263   0.00000   0.00000  Uiso   1.00
H112   H     0.95749   0.54457   0.00000   0.00000  Uiso   1.00
H113   H     0.96805   0.41195   0.00000   0.00000  Uiso   1.00
C114   C     0.86399   0.50784   0.00000   0.00000  Uiso   1.00
H115   H     0.54564   0.65854   0.00000   0.00000  Uiso   1.00
H116   H     0.34146   0.88710   0.00000   0.00000  Uiso   1.00
H117   H     0.11290   0.45436   0.00000   0.00000  Uiso   1.00
H118   H     0.45436   0.34146   0.00000   0.00000  Uiso   1.00
H119   H     0.65854   0.11290   0.00000   0.00000  Uiso   1.00
H120   H     0.88710   0.54564   0.00000   0.00000  Uiso   1.00
loop_
_geom_bond_atom_site_label_1
_geom_bond_atom_site_label_2
_geom_bond_distance
_geom_bond_site_symmetry_2
_ccdc_geom_bond_type
H1     C29     1.034   .     S
H2     C46     1.034   .     S
H3     C63     1.035   .     S
H4     C80     1.034   .     S
H5     C97     1.035   .     S
H6     C114    1.035   .     S
H7     C80     1.034   .     S
H8     C97     1.035   .     S
H9     C114    1.035   .     S
H10    C29     1.034   .     S
H11    C46     1.034   .     S
H12    C63     1.035   .     S
O13    C15     1.399   .     D
N14    C16     1.573   .     S
N14    C17     1.590   .     S
N14    H25     1.043   .     S
C15    C23     1.660   .     S
C15    C57     1.654   .     S
C16    C23     1.485   .     D
C16    H24     1.056   .     S
C17    C18     1.666   .     D
C17    C22     1.587   .     S
C18    C19     1.564   .     S
C18    C29     1.502   .     S
C19    C20     1.596   .     D
C19    H27     1.077   .     S
C20    C21     1.601   .     S
C20    C71     1.646   .     S
C21    C22     1.524   .     D
C21    H28     1.077   .     S
C22    H26     1.081   .     S
C23    C32     1.654   .     S
C29    H115    1.109   .     S
O30    C32     1.399   .     D
N31    C33     1.573   .     S
N31    C34     1.590   .     S
N31    H42     1.043   .     S
C32    C40     1.660   .     S
C33    C40     1.485   .     D
C33    H41     1.055   .     S
C34    C35     1.666   .     D
C34    C39     1.587   .     S
C35    C36     1.564   .     S
C35    C46     1.502   .     S
C36    C37     1.596   .     D
C36    H44     1.077   .     S
C37    C38     1.601   .     S
C37    C88     1.646   1_565 S
C38    C39     1.524   .     D
C38    H45     1.077   .     S
C39    H43     1.081   .     S
C40    C49     1.653   .     S
C46    H116    1.109   .     S
O47    C49     1.399   .     D
N48    C50     1.573   .     S
N48    C51     1.590   .     S
N48    H59     1.043   .     S
C49    C57     1.660   .     S
C50    C57     1.485   .     D
C50    H58     1.055   .     S
C51    C52     1.666   .     D
C51    C56     1.587   .     S
C52    C53     1.564   .     S
C52    C63     1.502   .     S
C53    C54     1.596   .     D
C53    H61     1.077   .     S
C54    C55     1.601   .     S
C54    C105    1.646   1_455 S
C55    C56     1.524   .     D
C55    H62     1.077   .     S
C56    H60     1.081   .     S
C63    H117    1.109   .     S
O64    C66     1.399   .     D
N65    C67     1.573   .     S
N65    C68     1.590   .     S
N65    H76     1.043   .     S
C66    C74     1.660   .     S
C66    C108    1.654   .     S
C67    C74     1.485   .     D
C67    H75     1.055   .     S
C68    C69     1.666   .     D
C68    C73     1.587   .     S
C69    C70     1.564   .     S
C69    C80     1.502   .     S
C70    C71     1.596   .     D
C70    H78     1.077   .     S
C71    C72     1.601   .     S
C72    C73     1.524   .     D
C72    H79     1.077   .     S
C73    H77     1.081   .     S
C74    C83     1.653   .     S
C80    H118    1.109   .     S
O81    C83     1.399   .     D
N82    C84     1.573   .     S
N82    C85     1.590   .     S
N82    H93     1.043   .     S
C83    C91     1.660   .     S
C84    C91     1.485   .     D
C84    H92     1.055   .     S
C85    C86     1.666   .     D
C85    C90     1.587   .     S
C86    C87     1.564   .     S
C86    C97     1.502   .     S
C87    C88     1.596   .     D
C87    H95     1.077   .     S
C88    C37     1.646   1_545 S
C88    C89     1.601   .     S
C89    C90     1.524   .     D
C89    H96     1.077   .     S
C90    H94     1.081   .     S
C91    C100    1.654   .     S
C97    H119    1.109   .     S
O98    C100    1.399   .     D
N99    C101    1.573   .     S
N99    C102    1.590   .     S
N99    H110    1.043   .     S
C100   C108    1.660   .     S
C101   C108    1.485   .     D
C101   H109    1.056   .     S
C102   C103    1.666   .     D
C102   C107    1.587   .     S
C103   C104    1.564   .     S
C103   C114    1.502   .     S
C104   C105    1.596   .     D
C104   H112    1.077   .     S
C105   C54     1.646   1_655 S
C105   C106    1.601   .     S
C106   C107    1.524   .     D
C106   H113    1.077   .     S
C107   H111    1.081   .     S
C114   H120    1.109   .     S
