data_522
_audit_creation_date              2023-09-08
_audit_creation_method            'Materials Studio'
_symmetry_space_group_name_H-M    'P1'
_symmetry_Int_Tables_number       1
_symmetry_cell_setting            triclinic
loop_
_symmetry_equiv_pos_as_xyz
  x,y,z
_cell_length_a                    37.2718
_cell_length_b                    37.2718
_cell_length_c                    3.5200
_cell_angle_alpha                 90.0000
_cell_angle_beta                  90.0000
_cell_angle_gamma                 120.0000
loop_
_atom_site_label
_atom_site_type_symbol
_atom_site_fract_x
_atom_site_fract_y
_atom_site_fract_z
_atom_site_U_iso_or_equiv
_atom_site_adp_type
_atom_site_occupancy
C1     C     0.28976   0.64139   0.55868   0.00000  Uiso   1.00
C2     C     0.31518   0.62343   0.55861   0.00000  Uiso   1.00
C3     C     0.24365   0.61467   0.56057   0.00000  Uiso   1.00
C4     C     0.37304   0.59160   0.39498   0.00000  Uiso   1.00
C5     C     0.39771   0.57323   0.39744   0.00000  Uiso   1.00
C6     C     0.43546   0.59190   0.56888   0.00000  Uiso   1.00
C7     C     0.44834   0.62976   0.72965   0.00000  Uiso   1.00
C8     C     0.42340   0.64780   0.72690   0.00000  Uiso   1.00
N9     N     0.46243   0.57524   0.57192   0.00000  Uiso   1.00
C10    C     0.44612   0.53497   0.57207   0.00000  Uiso   1.00
C11    C     0.47306   0.51647   0.56812   0.00000  Uiso   1.00
C12    C     0.45639   0.47284   0.56762   0.00000  Uiso   1.00
C13    C     0.48356   0.45722   0.56726   0.00000  Uiso   1.00
H14    H     0.30091   0.58941   0.55889   0.00000  Uiso   1.00
H15    H     0.34391   0.57707   0.25659   0.00000  Uiso   1.00
H16    H     0.38812   0.54461   0.25932   0.00000  Uiso   1.00
H17    H     0.47770   0.64432   0.86445   0.00000  Uiso   1.00
H18    H     0.43332   0.67687   0.85963   0.00000  Uiso   1.00
H19    H     0.41162   0.51332   0.58125   0.00000  Uiso   1.00
H20    H     0.47130   0.42344   0.56760   0.00000  Uiso   1.00
C21    C     0.58995   0.55686   0.56749   0.00000  Uiso   1.00
H22    H     0.60476   0.55232   0.35371   0.00000  Uiso   1.00
H23    H     0.60478   0.55238   0.78144   0.00000  Uiso   1.00
H24    H     0.59664   0.58914   0.56721   0.00000  Uiso   1.00
C25    C     0.35861   0.64837   0.55868   0.00000  Uiso   1.00
C26    C     0.37657   0.69175   0.55861   0.00000  Uiso   1.00
C27    C     0.38533   0.62898   0.56057   0.00000  Uiso   1.00
C28    C     0.40840   0.78144   0.39498   0.00000  Uiso   1.00
C29    C     0.42677   0.82448   0.39744   0.00000  Uiso   1.00
C30    C     0.40810   0.84356   0.56888   0.00000  Uiso   1.00
C31    C     0.37024   0.81858   0.72965   0.00000  Uiso   1.00
C32    C     0.35220   0.77560   0.72690   0.00000  Uiso   1.00
N33    N     0.42476   0.88719   0.57192   0.00000  Uiso   1.00
C34    C     0.46503   0.91115   0.57207   0.00000  Uiso   1.00
C35    C     0.48353   0.95659   0.56812   0.00000  Uiso   1.00
C36    C     0.52716   0.98355   0.56762   0.00000  Uiso   1.00
C37    C     0.54278   0.02634   0.56726   0.00000  Uiso   1.00
H38    H     0.41059   0.71150   0.55889   0.00000  Uiso   1.00
H39    H     0.42293   0.76684   0.25659   0.00000  Uiso   1.00
H40    H     0.45539   0.84351   0.25932   0.00000  Uiso   1.00
H41    H     0.35568   0.83338   0.86445   0.00000  Uiso   1.00
H42    H     0.32313   0.75645   0.85963   0.00000  Uiso   1.00
H43    H     0.48668   0.89830   0.58125   0.00000  Uiso   1.00
H44    H     0.57656   0.04786   0.56760   0.00000  Uiso   1.00
C45    C     0.44314   0.03309   0.56749   0.00000  Uiso   1.00
H46    H     0.44768   0.05244   0.35371   0.00000  Uiso   1.00
H47    H     0.44762   0.05240   0.78144   0.00000  Uiso   1.00
H48    H     0.41086   0.00750   0.56721   0.00000  Uiso   1.00
C49    C     0.35163   0.71024   0.55868   0.00000  Uiso   1.00
C50    C     0.30825   0.68482   0.55861   0.00000  Uiso   1.00
C51    C     0.37102   0.75635   0.56057   0.00000  Uiso   1.00
C52    C     0.21856   0.62696   0.39498   0.00000  Uiso   1.00
C53    C     0.17552   0.60229   0.39744   0.00000  Uiso   1.00
C54    C     0.15644   0.56454   0.56888   0.00000  Uiso   1.00
C55    C     0.18142   0.55166   0.72965   0.00000  Uiso   1.00
C56    C     0.22440   0.57660   0.72690   0.00000  Uiso   1.00
N57    N     0.11281   0.53757   0.57192   0.00000  Uiso   1.00
C58    C     0.08885   0.55388   0.57207   0.00000  Uiso   1.00
C59    C     0.04341   0.52694   0.56812   0.00000  Uiso   1.00
C60    C     0.01645   0.54361   0.56762   0.00000  Uiso   1.00
C61    C     0.97366   0.51644   0.56726   0.00000  Uiso   1.00
H62    H     0.28850   0.69909   0.55889   0.00000  Uiso   1.00
H63    H     0.23316   0.65609   0.25659   0.00000  Uiso   1.00
H64    H     0.15649   0.61188   0.25932   0.00000  Uiso   1.00
H65    H     0.16662   0.52230   0.86445   0.00000  Uiso   1.00
H66    H     0.24355   0.56668   0.85963   0.00000  Uiso   1.00
H67    H     0.10170   0.58838   0.58125   0.00000  Uiso   1.00
H68    H     0.95214   0.52870   0.56760   0.00000  Uiso   1.00
C69    C     0.96691   0.41005   0.56749   0.00000  Uiso   1.00
H70    H     0.94756   0.39524   0.35371   0.00000  Uiso   1.00
H71    H     0.94760   0.39522   0.78144   0.00000  Uiso   1.00
H72    H     0.99250   0.40336   0.56721   0.00000  Uiso   1.00
C73    C     0.71024   0.35861   0.55868   0.00000  Uiso   1.00
C74    C     0.68482   0.37657   0.55861   0.00000  Uiso   1.00
C75    C     0.75635   0.38533   0.56057   0.00000  Uiso   1.00
C76    C     0.62696   0.40840   0.39498   0.00000  Uiso   1.00
C77    C     0.60229   0.42677   0.39744   0.00000  Uiso   1.00
C78    C     0.56454   0.40810   0.56888   0.00000  Uiso   1.00
C79    C     0.55166   0.37024   0.72965   0.00000  Uiso   1.00
C80    C     0.57660   0.35220   0.72690   0.00000  Uiso   1.00
N81    N     0.53757   0.42476   0.57192   0.00000  Uiso   1.00
C82    C     0.55388   0.46503   0.57207   0.00000  Uiso   1.00
C83    C     0.52694   0.48353   0.56812   0.00000  Uiso   1.00
C84    C     0.54361   0.52716   0.56762   0.00000  Uiso   1.00
C85    C     0.51644   0.54278   0.56726   0.00000  Uiso   1.00
H86    H     0.69909   0.41059   0.55889   0.00000  Uiso   1.00
H87    H     0.65609   0.42293   0.25659   0.00000  Uiso   1.00
H88    H     0.61188   0.45539   0.25932   0.00000  Uiso   1.00
H89    H     0.52230   0.35568   0.86445   0.00000  Uiso   1.00
H90    H     0.56668   0.32313   0.85963   0.00000  Uiso   1.00
H91    H     0.58838   0.48668   0.58125   0.00000  Uiso   1.00
H92    H     0.52870   0.57656   0.56760   0.00000  Uiso   1.00
C93    C     0.41005   0.44314   0.56749   0.00000  Uiso   1.00
H94    H     0.39524   0.44768   0.35371   0.00000  Uiso   1.00
H95    H     0.39522   0.44762   0.78144   0.00000  Uiso   1.00
H96    H     0.40336   0.41086   0.56721   0.00000  Uiso   1.00
C97    C     0.64139   0.35163   0.55868   0.00000  Uiso   1.00
C98    C     0.62343   0.30825   0.55861   0.00000  Uiso   1.00
C99    C     0.61467   0.37102   0.56057   0.00000  Uiso   1.00
C100   C     0.59160   0.21856   0.39498   0.00000  Uiso   1.00
C101   C     0.57323   0.17552   0.39744   0.00000  Uiso   1.00
C102   C     0.59190   0.15644   0.56888   0.00000  Uiso   1.00
C103   C     0.62976   0.18142   0.72965   0.00000  Uiso   1.00
C104   C     0.64780   0.22440   0.72690   0.00000  Uiso   1.00
N105   N     0.57524   0.11281   0.57192   0.00000  Uiso   1.00
C106   C     0.53497   0.08885   0.57207   0.00000  Uiso   1.00
C107   C     0.51647   0.04341   0.56812   0.00000  Uiso   1.00
C108   C     0.47284   0.01645   0.56762   0.00000  Uiso   1.00
C109   C     0.45722   0.97366   0.56726   0.00000  Uiso   1.00
H110   H     0.58941   0.28850   0.55889   0.00000  Uiso   1.00
H111   H     0.57707   0.23316   0.25659   0.00000  Uiso   1.00
H112   H     0.54461   0.15649   0.25932   0.00000  Uiso   1.00
H113   H     0.64432   0.16662   0.86445   0.00000  Uiso   1.00
H114   H     0.67687   0.24355   0.85963   0.00000  Uiso   1.00
H115   H     0.51332   0.10170   0.58125   0.00000  Uiso   1.00
H116   H     0.42344   0.95214   0.56760   0.00000  Uiso   1.00
C117   C     0.55686   0.96691   0.56749   0.00000  Uiso   1.00
H118   H     0.55232   0.94756   0.35371   0.00000  Uiso   1.00
H119   H     0.55238   0.94760   0.78144   0.00000  Uiso   1.00
H120   H     0.58914   0.99250   0.56721   0.00000  Uiso   1.00
C121   C     0.64837   0.28976   0.55868   0.00000  Uiso   1.00
C122   C     0.69175   0.31518   0.55861   0.00000  Uiso   1.00
C123   C     0.62898   0.24365   0.56057   0.00000  Uiso   1.00
C124   C     0.78144   0.37304   0.39498   0.00000  Uiso   1.00
C125   C     0.82448   0.39771   0.39744   0.00000  Uiso   1.00
C126   C     0.84356   0.43546   0.56888   0.00000  Uiso   1.00
C127   C     0.81858   0.44834   0.72965   0.00000  Uiso   1.00
C128   C     0.77560   0.42340   0.72690   0.00000  Uiso   1.00
N129   N     0.88719   0.46243   0.57192   0.00000  Uiso   1.00
C130   C     0.91115   0.44612   0.57207   0.00000  Uiso   1.00
C131   C     0.95659   0.47306   0.56812   0.00000  Uiso   1.00
C132   C     0.98355   0.45639   0.56762   0.00000  Uiso   1.00
C133   C     0.02634   0.48356   0.56726   0.00000  Uiso   1.00
H134   H     0.71150   0.30091   0.55889   0.00000  Uiso   1.00
H135   H     0.76684   0.34391   0.25659   0.00000  Uiso   1.00
H136   H     0.84351   0.38812   0.25932   0.00000  Uiso   1.00
H137   H     0.83338   0.47770   0.86445   0.00000  Uiso   1.00
H138   H     0.75645   0.43332   0.85963   0.00000  Uiso   1.00
H139   H     0.89830   0.41162   0.58125   0.00000  Uiso   1.00
H140   H     0.04786   0.47130   0.56760   0.00000  Uiso   1.00
C141   C     0.03309   0.58995   0.56749   0.00000  Uiso   1.00
H142   H     0.05244   0.60476   0.35371   0.00000  Uiso   1.00
H143   H     0.05240   0.60478   0.78144   0.00000  Uiso   1.00
H144   H     0.00750   0.59664   0.56721   0.00000  Uiso   1.00
loop_
_geom_bond_atom_site_label_1
_geom_bond_atom_site_label_2
_geom_bond_distance
_geom_bond_site_symmetry_2
_ccdc_geom_bond_type
C1     C2      1.407   .     S
C1     C3      1.495   .     S
C1     C50     1.407   .     D
C2     H14     1.103   .     S
C2     C25     1.407   .     D
C3     C52     1.361   .     S
C3     C56     1.361   .     D
C4     C5      1.394   .     D
C4     H15     1.059   .     S
C4     C27     1.361   .     S
C5     C6      1.360   .     S
C5     H16     1.059   .     S
C6     C7      1.365   .     D
C6     N9      1.421   .     S
C7     C8      1.393   .     S
C7     H17     1.060   .     S
C8     H18     1.062   .     S
C8     C27     1.361   .     D
N9     C10     1.308   .     D
C10    C11     1.475   .     S
C10    H19     1.126   .     S
C11    C12     1.421   .     D
C11    C85     1.411   .     S
C12    C13     1.398   .     S
C12    C93     1.515   .     S
C13    H20     1.104   .     S
C13    C83     1.411   .     D
C21    H22     0.996   .     S
C21    H23     0.996   .     S
C21    H24     1.100   .     S
C21    C84     1.515   .     S
C25    C26     1.407   .     S
C25    C27     1.495   .     S
C26    H38     1.103   .     S
C26    C49     1.407   .     D
C28    C29     1.394   .     D
C28    H39     1.059   .     S
C28    C51     1.361   .     S
C29    C30     1.360   .     S
C29    H40     1.059   .     S
C30    C31     1.365   .     D
C30    N33     1.421   .     S
C31    C32     1.393   .     S
C31    H41     1.060   .     S
C32    H42     1.062   .     S
C32    C51     1.361   .     D
N33    C34     1.308   .     D
C34    C35     1.475   .     S
C34    H43     1.126   .     S
C35    C36     1.421   .     D
C35    C109    1.411   .     S
C36    C37     1.398   1_565 S
C36    C117    1.515   .     S
C37    C36     1.398   1_545 S
C37    H44     1.104   .     S
C37    C107    1.411   .     D
C45    H46     0.996   .     S
C45    H47     0.996   .     S
C45    H48     1.100   .     S
C45    C108    1.515   .     S
C49    C50     1.407   .     S
C49    C51     1.495   .     S
C50    H62     1.103   .     S
C52    C53     1.394   .     D
C52    H63     1.059   .     S
C53    C54     1.360   .     S
C53    H64     1.059   .     S
C54    C55     1.365   .     D
C54    N57     1.421   .     S
C55    C56     1.393   .     S
C55    H65     1.060   .     S
C56    H66     1.062   .     S
N57    C58     1.308   .     D
C58    C59     1.475   .     S
C58    H67     1.126   .     S
C59    C60     1.421   .     S
C59    C133    1.411   .     D
C60    C61     1.398   1_455 D
C60    C141    1.515   .     S
C61    C60     1.398   1_655 D
C61    H68     1.104   .     S
C61    C131    1.411   .     S
C69    H70     0.996   .     S
C69    H71     0.996   .     S
C69    H72     1.100   .     S
C69    C132    1.515   .     S
C73    C74     1.407   .     S
C73    C75     1.495   .     S
C73    C122    1.407   .     D
C74    H86     1.103   .     S
C74    C97     1.407   .     D
C75    C124    1.361   .     S
C75    C128    1.361   .     D
C76    C77     1.394   .     D
C76    H87     1.059   .     S
C76    C99     1.361   .     S
C77    C78     1.360   .     S
C77    H88     1.059   .     S
C78    C79     1.365   .     D
C78    N81     1.421   .     S
C79    C80     1.393   .     S
C79    H89     1.060   .     S
C80    H90     1.062   .     S
C80    C99     1.361   .     D
N81    C82     1.308   .     D
C82    C83     1.475   .     S
C82    H91     1.126   .     S
C83    C84     1.421   .     S
C84    C85     1.398   .     D
C85    H92     1.104   .     S
C93    H94     0.996   .     S
C93    H95     0.996   .     S
C93    H96     1.100   .     S
C97    C98     1.407   .     S
C97    C99     1.495   .     S
C98    H110    1.103   .     S
C98    C121    1.407   .     D
C100   C101    1.394   .     D
C100   H111    1.059   .     S
C100   C123    1.361   .     S
C101   C102    1.360   .     S
C101   H112    1.059   .     S
C102   C103    1.365   .     D
C102   N105    1.421   .     S
C103   C104    1.393   .     S
C103   H113    1.060   .     S
C104   H114    1.062   .     S
C104   C123    1.361   .     D
N105   C106    1.308   .     D
C106   C107    1.475   .     S
C106   H115    1.126   .     S
C107   C108    1.421   .     S
C108   C109    1.398   1_545 D
C109   C108    1.398   1_565 D
C109   H116    1.104   .     S
C117   H118    0.996   .     S
C117   H119    0.996   .     S
C117   H120    1.100   .     S
C121   C122    1.407   .     S
C121   C123    1.495   .     S
C122   H134    1.103   .     S
C124   C125    1.394   .     D
C124   H135    1.059   .     S
C125   C126    1.360   .     S
C125   H136    1.059   .     S
C126   C127    1.365   .     D
C126   N129    1.421   .     S
C127   C128    1.393   .     S
C127   H137    1.060   .     S
C128   H138    1.062   .     S
N129   C130    1.308   .     D
C130   C131    1.475   .     S
C130   H139    1.126   .     S
C131   C132    1.421   .     D
C132   C133    1.398   1_655 S
C133   C132    1.398   1_455 S
C133   H140    1.104   .     S
C141   H142    0.996   .     S
C141   H143    0.996   .     S
C141   H144    1.100   .     S
