data_523
_audit_creation_date              2023-09-08
_audit_creation_method            'Materials Studio'
_symmetry_space_group_name_H-M    'P1'
_symmetry_Int_Tables_number       1
_symmetry_cell_setting            triclinic
loop_
_symmetry_equiv_pos_as_xyz
  x,y,z
_cell_length_a                    37.2718
_cell_length_b                    37.2718
_cell_length_c                    3.5215
_cell_angle_alpha                 90.0000
_cell_angle_beta                  90.0000
_cell_angle_gamma                 120.0000
loop_
_atom_site_label
_atom_site_type_symbol
_atom_site_fract_x
_atom_site_fract_y
_atom_site_fract_z
_atom_site_U_iso_or_equiv
_atom_site_adp_type
_atom_site_occupancy
C1     C     0.28981   0.64218   0.50948   0.00000  Uiso   1.00
C2     C     0.35782   0.64763   0.50948   0.00000  Uiso   1.00
C3     C     0.35237   0.71019   0.50948   0.00000  Uiso   1.00
C4     C     0.71019   0.35782   0.50948   0.00000  Uiso   1.00
C5     C     0.64218   0.35237   0.50948   0.00000  Uiso   1.00
C6     C     0.64763   0.28981   0.50948   0.00000  Uiso   1.00
C7     C     0.31459   0.62381   0.50941   0.00000  Uiso   1.00
C8     C     0.37619   0.69078   0.50941   0.00000  Uiso   1.00
C9     C     0.30922   0.68541   0.50941   0.00000  Uiso   1.00
C10    C     0.68541   0.37619   0.50941   0.00000  Uiso   1.00
C11    C     0.62381   0.30922   0.50941   0.00000  Uiso   1.00
C12    C     0.69078   0.31459   0.50941   0.00000  Uiso   1.00
C13    C     0.24366   0.61623   0.51129   0.00000  Uiso   1.00
C14    C     0.38377   0.62743   0.51129   0.00000  Uiso   1.00
C15    C     0.37257   0.75634   0.51129   0.00000  Uiso   1.00
C16    C     0.75634   0.38377   0.51129   0.00000  Uiso   1.00
C17    C     0.61623   0.37257   0.51129   0.00000  Uiso   1.00
C18    C     0.62743   0.24366   0.51129   0.00000  Uiso   1.00
C19    C     0.36807   0.58669   0.38149   0.00000  Uiso   1.00
C20    C     0.41331   0.78138   0.38149   0.00000  Uiso   1.00
C21    C     0.21862   0.63193   0.38149   0.00000  Uiso   1.00
C22    C     0.63193   0.41331   0.38149   0.00000  Uiso   1.00
C23    C     0.58669   0.21862   0.38149   0.00000  Uiso   1.00
C24    C     0.78138   0.36807   0.38149   0.00000  Uiso   1.00
C25    C     0.39171   0.56757   0.38659   0.00000  Uiso   1.00
C26    C     0.43243   0.82414   0.38659   0.00000  Uiso   1.00
C27    C     0.17586   0.60829   0.38659   0.00000  Uiso   1.00
C28    C     0.60829   0.43243   0.38659   0.00000  Uiso   1.00
C29    C     0.56757   0.17586   0.38659   0.00000  Uiso   1.00
C30    C     0.82414   0.39171   0.38659   0.00000  Uiso   1.00
C31    C     0.43264   0.58890   0.52061   0.00000  Uiso   1.00
C32    C     0.41110   0.84374   0.52061   0.00000  Uiso   1.00
C33    C     0.15626   0.56736   0.52061   0.00000  Uiso   1.00
C34    C     0.56736   0.41110   0.52061   0.00000  Uiso   1.00
C35    C     0.58890   0.15626   0.52061   0.00000  Uiso   1.00
C36    C     0.84374   0.43264   0.52061   0.00000  Uiso   1.00
C37    C     0.44902   0.63002   0.64034   0.00000  Uiso   1.00
C38    C     0.36998   0.81900   0.64034   0.00000  Uiso   1.00
C39    C     0.18100   0.55098   0.64034   0.00000  Uiso   1.00
C40    C     0.55098   0.36998   0.64034   0.00000  Uiso   1.00
C41    C     0.63002   0.18100   0.64034   0.00000  Uiso   1.00
C42    C     0.81900   0.44902   0.64034   0.00000  Uiso   1.00
C43    C     0.42488   0.64857   0.64092   0.00000  Uiso   1.00
C44    C     0.35143   0.77631   0.64092   0.00000  Uiso   1.00
C45    C     0.22369   0.57512   0.64092   0.00000  Uiso   1.00
C46    C     0.57512   0.35143   0.64092   0.00000  Uiso   1.00
C47    C     0.64857   0.22369   0.64092   0.00000  Uiso   1.00
C48    C     0.77631   0.42488   0.64092   0.00000  Uiso   1.00
N49    N     0.45939   0.57240   0.51985   0.00000  Uiso   1.00
N50    N     0.42760   0.88699   0.51985   0.00000  Uiso   1.00
N51    N     0.11301   0.54061   0.51985   0.00000  Uiso   1.00
N52    N     0.54061   0.42760   0.51985   0.00000  Uiso   1.00
N53    N     0.57240   0.11301   0.51985   0.00000  Uiso   1.00
N54    N     0.88699   0.45939   0.51985   0.00000  Uiso   1.00
C55    C     0.44488   0.53315   0.57564   0.00000  Uiso   1.00
C56    C     0.46685   0.91173   0.57564   0.00000  Uiso   1.00
C57    C     0.08827   0.55512   0.57564   0.00000  Uiso   1.00
C58    C     0.55512   0.46685   0.57564   0.00000  Uiso   1.00
C59    C     0.53315   0.08827   0.57564   0.00000  Uiso   1.00
C60    C     0.91173   0.44488   0.57564   0.00000  Uiso   1.00
C61    C     0.47293   0.51623   0.56578   0.00000  Uiso   1.00
C62    C     0.48377   0.95670   0.56578   0.00000  Uiso   1.00
C63    C     0.04330   0.52707   0.56578   0.00000  Uiso   1.00
C64    C     0.52707   0.48377   0.56578   0.00000  Uiso   1.00
C65    C     0.51623   0.04330   0.56578   0.00000  Uiso   1.00
C66    C     0.95670   0.47293   0.56578   0.00000  Uiso   1.00
C67    C     0.45731   0.47302   0.55581   0.00000  Uiso   1.00
C68    C     0.52698   0.98429   0.55581   0.00000  Uiso   1.00
C69    C     0.01571   0.54269   0.55581   0.00000  Uiso   1.00
C70    C     0.54269   0.52698   0.55581   0.00000  Uiso   1.00
C71    C     0.47302   0.01571   0.55581   0.00000  Uiso   1.00
C72    C     0.98429   0.45731   0.55581   0.00000  Uiso   1.00
C73    C     0.48409   0.45714   0.56395   0.00000  Uiso   1.00
C74    C     0.54286   0.02695   0.56395   0.00000  Uiso   1.00
C75    C     0.97305   0.51591   0.56395   0.00000  Uiso   1.00
C76    C     0.51591   0.54286   0.56395   0.00000  Uiso   1.00
C77    C     0.45714   0.97305   0.56395   0.00000  Uiso   1.00
C78    C     0.02695   0.48409   0.56395   0.00000  Uiso   1.00
O79    O     0.41445   0.44831   0.53920   0.00000  Uiso   1.00
O80    O     0.55169   0.96614   0.53920   0.00000  Uiso   1.00
O81    O     0.03386   0.58555   0.53920   0.00000  Uiso   1.00
O82    O     0.58555   0.55169   0.53920   0.00000  Uiso   1.00
O83    O     0.44831   0.03386   0.53920   0.00000  Uiso   1.00
O84    O     0.96614   0.41445   0.53920   0.00000  Uiso   1.00
C85    C     0.60250   0.59337   0.40590   0.00000  Uiso   1.00
C86    C     0.40663   0.00913   0.40590   0.00000  Uiso   1.00
C87    C     0.99087   0.39750   0.40590   0.00000  Uiso   1.00
C88    C     0.39750   0.40663   0.40590   0.00000  Uiso   1.00
C89    C     0.59337   0.99087   0.40590   0.00000  Uiso   1.00
C90    C     0.00913   0.60250   0.40590   0.00000  Uiso   1.00
H91    H     0.29983   0.59004   0.50963   0.00000  Uiso   1.00
H92    H     0.40996   0.70979   0.50963   0.00000  Uiso   1.00
H93    H     0.29021   0.70017   0.50963   0.00000  Uiso   1.00
H94    H     0.70017   0.40996   0.50963   0.00000  Uiso   1.00
H95    H     0.59004   0.29021   0.50963   0.00000  Uiso   1.00
H96    H     0.70979   0.29983   0.50963   0.00000  Uiso   1.00
H97    H     0.33674   0.56940   0.26378   0.00000  Uiso   1.00
H98    H     0.43060   0.76734   0.26378   0.00000  Uiso   1.00
H99    H     0.23266   0.66326   0.26378   0.00000  Uiso   1.00
H100   H     0.66326   0.43060   0.26378   0.00000  Uiso   1.00
H101   H     0.56940   0.23266   0.26378   0.00000  Uiso   1.00
H102   H     0.76734   0.33674   0.26378   0.00000  Uiso   1.00
H103   H     0.37848   0.53614   0.27277   0.00000  Uiso   1.00
H104   H     0.46386   0.84234   0.27277   0.00000  Uiso   1.00
H105   H     0.15766   0.62152   0.27277   0.00000  Uiso   1.00
H106   H     0.62152   0.46386   0.27277   0.00000  Uiso   1.00
H107   H     0.53614   0.15766   0.27277   0.00000  Uiso   1.00
H108   H     0.84234   0.37848   0.27277   0.00000  Uiso   1.00
H109   H     0.48080   0.64700   0.74741   0.00000  Uiso   1.00
H110   H     0.35300   0.83380   0.74741   0.00000  Uiso   1.00
H111   H     0.16620   0.51920   0.74741   0.00000  Uiso   1.00
H112   H     0.51920   0.35300   0.74741   0.00000  Uiso   1.00
H113   H     0.64700   0.16620   0.74741   0.00000  Uiso   1.00
H114   H     0.83380   0.48080   0.74741   0.00000  Uiso   1.00
H115   H     0.43845   0.68015   0.75146   0.00000  Uiso   1.00
H116   H     0.31985   0.75830   0.75146   0.00000  Uiso   1.00
H117   H     0.24170   0.56155   0.75146   0.00000  Uiso   1.00
H118   H     0.56155   0.31985   0.75146   0.00000  Uiso   1.00
H119   H     0.68015   0.24170   0.75146   0.00000  Uiso   1.00
H120   H     0.75830   0.43845   0.75146   0.00000  Uiso   1.00
H121   H     0.41157   0.51089   0.63860   0.00000  Uiso   1.00
H122   H     0.48911   0.90068   0.63860   0.00000  Uiso   1.00
H123   H     0.09932   0.58843   0.63860   0.00000  Uiso   1.00
H124   H     0.58843   0.48911   0.63860   0.00000  Uiso   1.00
H125   H     0.51089   0.09932   0.63860   0.00000  Uiso   1.00
H126   H     0.90068   0.41157   0.63860   0.00000  Uiso   1.00
H127   H     0.47267   0.42382   0.57064   0.00000  Uiso   1.00
H128   H     0.57618   0.04885   0.57064   0.00000  Uiso   1.00
H129   H     0.95115   0.52733   0.57064   0.00000  Uiso   1.00
H130   H     0.52733   0.57618   0.57064   0.00000  Uiso   1.00
H131   H     0.42382   0.95115   0.57064   0.00000  Uiso   1.00
H132   H     0.04885   0.47267   0.57064   0.00000  Uiso   1.00
H133   H     0.58332   0.59569   0.18083   0.00000  Uiso   1.00
H134   H     0.40431   0.98763   0.18083   0.00000  Uiso   1.00
H135   H     0.01237   0.41668   0.18083   0.00000  Uiso   1.00
H136   H     0.41668   0.40431   0.18083   0.00000  Uiso   1.00
H137   H     0.59569   0.01237   0.18083   0.00000  Uiso   1.00
H138   H     0.98763   0.58332   0.18083   0.00000  Uiso   1.00
H139   H     0.63352   0.60310   0.29310   0.00000  Uiso   1.00
H140   H     0.39690   0.03042   0.29310   0.00000  Uiso   1.00
H141   H     0.96958   0.36648   0.29310   0.00000  Uiso   1.00
H142   H     0.36648   0.39690   0.29310   0.00000  Uiso   1.00
H143   H     0.60310   0.96958   0.29310   0.00000  Uiso   1.00
H144   H     0.03042   0.63352   0.29310   0.00000  Uiso   1.00
H145   H     0.60577   0.61504   0.63593   0.00000  Uiso   1.00
H146   H     0.38496   0.99073   0.63593   0.00000  Uiso   1.00
H147   H     0.00927   0.39423   0.63593   0.00000  Uiso   1.00
H148   H     0.39423   0.38496   0.63593   0.00000  Uiso   1.00
H149   H     0.61504   0.00927   0.63593   0.00000  Uiso   1.00
H150   H     0.99073   0.60577   0.63593   0.00000  Uiso   1.00
loop_
_geom_bond_atom_site_label_1
_geom_bond_atom_site_label_2
_geom_bond_distance
_geom_bond_site_symmetry_2
_ccdc_geom_bond_type
C1     C7      1.398   .     D
C1     C9      1.398   .     S
C1     C13     1.494   .     S
C2     C7      1.398   .     S
C2     C8      1.398   .     D
C2     C14     1.494   .     S
C3     C8      1.398   .     S
C3     C9      1.398   .     D
C3     C15     1.494   .     S
C4     C10     1.398   .     D
C4     C12     1.398   .     S
C4     C16     1.494   .     S
C5     C10     1.398   .     S
C5     C11     1.398   .     D
C5     C17     1.494   .     S
C6     C11     1.398   .     S
C6     C12     1.398   .     D
C6     C18     1.494   .     S
C7     H91     1.093   .     S
C8     H92     1.093   .     S
C9     H93     1.093   .     S
C10    H94     1.093   .     S
C11    H95     1.093   .     S
C12    H96     1.093   .     S
C13    C21     1.403   .     D
C13    C45     1.403   .     S
C14    C19     1.403   .     D
C14    C43     1.403   .     S
C15    C20     1.403   .     D
C15    C44     1.403   .     S
C16    C24     1.403   .     D
C16    C48     1.403   .     S
C17    C22     1.403   .     D
C17    C46     1.403   .     S
C18    C23     1.403   .     D
C18    C47     1.403   .     S
C19    C25     1.383   .     S
C19    H97     1.095   .     S
C20    C26     1.383   .     S
C20    H98     1.095   .     S
C21    C27     1.383   .     S
C21    H99     1.095   .     S
C22    C28     1.383   .     S
C22    H100    1.095   .     S
C23    C29     1.383   .     S
C23    H101    1.095   .     S
C24    C30     1.383   .     S
C24    H102    1.095   .     S
C25    C31     1.403   .     D
C25    H103    1.095   .     S
C26    C32     1.403   .     D
C26    H104    1.095   .     S
C27    C33     1.403   .     D
C27    H105    1.095   .     S
C28    C34     1.403   .     D
C28    H106    1.095   .     S
C29    C35     1.403   .     D
C29    H107    1.095   .     S
C30    C36     1.403   .     D
C30    H108    1.095   .     S
C31    C37     1.401   .     S
C31    N49     1.409   .     S
C32    C38     1.401   .     S
C32    N50     1.409   .     S
C33    C39     1.401   .     S
C33    N51     1.409   .     S
C34    C40     1.401   .     S
C34    N52     1.409   .     S
C35    C41     1.401   .     S
C35    N53     1.409   .     S
C36    C42     1.401   .     S
C36    N54     1.409   .     S
C37    C43     1.382   .     D
C37    H109    1.094   .     S
C38    C44     1.382   .     D
C38    H110    1.094   .     S
C39    C45     1.382   .     D
C39    H111    1.094   .     S
C40    C46     1.382   .     D
C40    H112    1.094   .     S
C41    C47     1.382   .     D
C41    H113    1.094   .     S
C42    C48     1.382   .     D
C42    H114    1.094   .     S
C43    H115    1.094   .     S
C44    H116    1.094   .     S
C45    H117    1.094   .     S
C46    H118    1.094   .     S
C47    H119    1.094   .     S
C48    H120    1.094   .     S
N49    C55     1.296   .     D
N50    C56     1.296   .     D
N51    C57     1.296   .     D
N52    C58     1.296   .     D
N53    C59     1.296   .     D
N54    C60     1.296   .     D
C55    C61     1.467   .     S
C55    H121    1.118   .     S
C56    C62     1.467   .     S
C56    H122    1.118   .     S
C57    C63     1.467   .     S
C57    H123    1.118   .     S
C58    C64     1.467   .     S
C58    H124    1.118   .     S
C59    C65     1.467   .     S
C59    H125    1.118   .     S
C60    C66     1.467   .     S
C60    H126    1.118   .     S
C61    C67     1.413   .     S
C61    C76     1.401   .     D
C62    C68     1.413   .     S
C62    C77     1.401   .     D
C63    C69     1.413   .     S
C63    C78     1.401   .     D
C64    C70     1.413   .     D
C64    C73     1.401   .     S
C65    C71     1.413   .     D
C65    C74     1.401   .     S
C66    C72     1.413   .     D
C66    C75     1.401   .     S
C67    C73     1.392   .     D
C67    O79     1.390   .     S
C68    C74     1.392   1_565 D
C68    O80     1.390   .     S
C69    C75     1.392   1_455 D
C69    O81     1.390   .     S
C70    C76     1.392   .     S
C70    O82     1.390   .     S
C71    C77     1.392   1_545 S
C71    O83     1.390   .     S
C72    C78     1.392   1_655 S
C72    O84     1.390   .     S
C73    H127    1.093   .     S
C74    C68     1.392   1_545 D
C74    H128    1.093   .     S
C75    C69     1.392   1_655 D
C75    H129    1.093   .     S
C76    H130    1.093   .     S
C77    C71     1.392   1_565 S
C77    H131    1.093   .     S
C78    C72     1.392   1_455 S
C78    H132    1.093   .     S
O79    C88     1.432   .     S
O80    C89     1.432   .     S
O81    C90     1.432   .     S
O82    C85     1.432   .     S
O83    C86     1.432   .     S
O84    C87     1.432   .     S
C85    H133    1.099   .     S
C85    H139    1.099   .     S
C85    H145    1.107   .     S
C86    H134    1.099   1_545 S
C86    H140    1.099   .     S
C86    H146    1.107   1_545 S
C87    H135    1.099   1_655 S
C87    H141    1.099   .     S
C87    H147    1.107   1_655 S
C88    H136    1.099   .     S
C88    H142    1.099   .     S
C88    H148    1.107   .     S
C89    H137    1.099   1_565 S
C89    H143    1.099   .     S
C89    H149    1.107   1_565 S
C90    H138    1.099   1_455 S
C90    H144    1.099   .     S
C90    H150    1.107   1_455 S
H134   C86     1.099   1_565 S
H135   C87     1.099   1_455 S
H137   C89     1.099   1_545 S
H138   C90     1.099   1_655 S
H146   C86     1.107   1_565 S
H147   C87     1.107   1_455 S
H149   C89     1.107   1_545 S
H150   C90     1.107   1_655 S
