data_524
_audit_creation_date              2023-09-08
_audit_creation_method            'Materials Studio'
_symmetry_space_group_name_H-M    'P1'
_symmetry_Int_Tables_number       1
_symmetry_cell_setting            triclinic
loop_
_symmetry_equiv_pos_as_xyz
  x,y,z
_cell_length_a                    29.2140
_cell_length_b                    29.2140
_cell_length_c                    3.6000
_cell_angle_alpha                 90.0000
_cell_angle_beta                  90.0000
_cell_angle_gamma                 120.0000
loop_
_atom_site_label
_atom_site_type_symbol
_atom_site_fract_x
_atom_site_fract_y
_atom_site_fract_z
_atom_site_U_iso_or_equiv
_atom_site_adp_type
_atom_site_occupancy
N1     N     0.42352  -0.38532   0.50000   0.00000  Uiso   1.00
N2     N     0.38532  -0.19116   0.50000   0.00000  Uiso   1.00
N3     N     0.19116  -0.42352   0.50000   0.00000  Uiso   1.00
N4     N     0.57648  -0.61468   0.50000   0.00000  Uiso   1.00
N5     N     0.61468  -0.80884   0.50000   0.00000  Uiso   1.00
N6     N     0.80884  -0.57648   0.50000   0.00000  Uiso   1.00
C7     C     0.37180  -0.40155   0.50000   0.00000  Uiso   1.00
C8     C     0.44426  -0.41815   0.50000   0.00000  Uiso   1.00
C9     C     0.41232  -0.47263   0.50000   0.00000  Uiso   1.00
C10    C     0.43458  -0.50386   0.50000   0.00000  Uiso   1.00
C11    C     0.48904  -0.48262   0.50000   0.00000  Uiso   1.00
C12    C     0.52049  -0.42773   0.50000   0.00000  Uiso   1.00
C13    C     0.49854  -0.39590   0.50000   0.00000  Uiso   1.00
C14    C     0.40155  -0.22665   0.50000   0.00000  Uiso   1.00
C15    C     0.41815  -0.13760   0.50000   0.00000  Uiso   1.00
C16    C     0.47263  -0.11505   0.50000   0.00000  Uiso   1.00
C17    C     0.50386  -0.06157   0.50000   0.00000  Uiso   1.00
C18    C     0.48262  -0.02833   0.50000   0.00000  Uiso   1.00
C19    C     0.42773  -0.05178   0.50000   0.00000  Uiso   1.00
C20    C     0.39590  -0.10556   0.50000   0.00000  Uiso   1.00
C21    C     0.22665  -0.37180   0.50000   0.00000  Uiso   1.00
C22    C     0.13760  -0.44426   0.50000   0.00000  Uiso   1.00
C23    C     0.11505  -0.41232   0.50000   0.00000  Uiso   1.00
C24    C     0.06157  -0.43458   0.50000   0.00000  Uiso   1.00
C25    C     0.02833  -0.48904   0.50000   0.00000  Uiso   1.00
C26    C     0.05178  -0.52049   0.50000   0.00000  Uiso   1.00
C27    C     0.10556  -0.49854   0.50000   0.00000  Uiso   1.00
C28    C     0.62820  -0.59845   0.50000   0.00000  Uiso   1.00
C29    C     0.55574  -0.58185   0.50000   0.00000  Uiso   1.00
C30    C     0.58768  -0.52737   0.50000   0.00000  Uiso   1.00
C31    C     0.56543  -0.49614   0.50000   0.00000  Uiso   1.00
C32    C     0.51096  -0.51738   0.50000   0.00000  Uiso   1.00
C33    C     0.47951  -0.57227   0.50000   0.00000  Uiso   1.00
C34    C     0.50146  -0.60410   0.50000   0.00000  Uiso   1.00
C35    C     0.59845  -0.77335   0.50000   0.00000  Uiso   1.00
C36    C     0.58185  -0.86240   0.50000   0.00000  Uiso   1.00
C37    C     0.52737  -0.88495   0.50000   0.00000  Uiso   1.00
C38    C     0.49614  -0.93843   0.50000   0.00000  Uiso   1.00
C39    C     0.51738  -0.97167   0.50000   0.00000  Uiso   1.00
C40    C     0.57227  -0.94822   0.50000   0.00000  Uiso   1.00
C41    C     0.60410  -0.89444   0.50000   0.00000  Uiso   1.00
C42    C     0.77335  -0.62820   0.50000   0.00000  Uiso   1.00
C43    C     0.86240  -0.55574   0.50000   0.00000  Uiso   1.00
C44    C     0.88495  -0.58768   0.50000   0.00000  Uiso   1.00
C45    C     0.93843  -0.56542   0.50000   0.00000  Uiso   1.00
C46    C     0.97167  -0.51096   0.50000   0.00000  Uiso   1.00
C47    C     0.94822  -0.47951   0.50000   0.00000  Uiso   1.00
C48    C     0.89444  -0.50146   0.50000   0.00000  Uiso   1.00
H49    H     0.34200  -0.44345   0.50000   0.00000  Uiso   1.00
N50    N     0.35288  -0.49787   0.49996   0.00000  Uiso   1.00
H51    H     0.44635  -0.34223   0.50000   0.00000  Uiso   1.00
H52    H     0.52337  -0.35243   0.50000   0.00000  Uiso   1.00
H53    H     0.40815  -0.54691   0.50000   0.00000  Uiso   1.00
H54    H     0.56366  -0.40908   0.50000   0.00000  Uiso   1.00
H55    H     0.32847  -0.53390   0.33194   0.00000  Uiso   1.00
H56    H     0.33359  -0.48039   0.66803   0.00000  Uiso   1.00
H57    H     0.44345  -0.21455   0.50000   0.00000  Uiso   1.00
N58    N     0.49789  -0.14923   0.50001   0.00000  Uiso   1.00
H59    H     0.34223  -0.21142   0.50000   0.00000  Uiso   1.00
H60    H     0.35243  -0.12420   0.50000   0.00000  Uiso   1.00
H61    H     0.54691  -0.04494   0.50000   0.00000  Uiso   1.00
H62    H     0.40908  -0.02725   0.50000   0.00000  Uiso   1.00
H63    H     0.48166  -0.18488   0.32077   0.00000  Uiso   1.00
H64    H     0.53269  -0.13871   0.67927   0.00000  Uiso   1.00
H65    H     0.21455  -0.34200   0.50000   0.00000  Uiso   1.00
N66    N     0.14922  -0.35288   0.50003   0.00000  Uiso   1.00
H67    H     0.21142  -0.44635   0.50000   0.00000  Uiso   1.00
H68    H     0.12420  -0.52337   0.50000   0.00000  Uiso   1.00
H69    H     0.04494  -0.40815   0.50000   0.00000  Uiso   1.00
H70    H     0.02725  -0.56366   0.50000   0.00000  Uiso   1.00
H71    H     0.13768  -0.32849   0.33078   0.00000  Uiso   1.00
H72    H     0.18587  -0.33356   0.66924   0.00000  Uiso   1.00
H73    H     0.65800  -0.55655   0.50000   0.00000  Uiso   1.00
N74    N     0.64713  -0.50210   0.50002   0.00000  Uiso   1.00
H75    H     0.55365  -0.65777   0.50000   0.00000  Uiso   1.00
H76    H     0.47663  -0.64757   0.50000   0.00000  Uiso   1.00
H77    H     0.59185  -0.45309   0.50000   0.00000  Uiso   1.00
H78    H     0.43634  -0.59092   0.50000   0.00000  Uiso   1.00
H79    H     0.66644  -0.51955   0.66806   0.00000  Uiso   1.00
H80    H     0.67153  -0.46605   0.33196   0.00000  Uiso   1.00
H81    H     0.55655  -0.78545   0.50000   0.00000  Uiso   1.00
N82    N     0.50212  -0.85076   0.50003   0.00000  Uiso   1.00
H83    H     0.65777  -0.78858   0.50000   0.00000  Uiso   1.00
H84    H     0.64757  -0.87580   0.50000   0.00000  Uiso   1.00
H85    H     0.45309  -0.95506   0.50000   0.00000  Uiso   1.00
H86    H     0.59092  -0.97275   0.50000   0.00000  Uiso   1.00
H87    H     0.46732  -0.86128   0.32079   0.00000  Uiso   1.00
H88    H     0.51835  -0.81511   0.67929   0.00000  Uiso   1.00
H89    H     0.78545  -0.65800   0.50000   0.00000  Uiso   1.00
N90    N     0.85075  -0.64712   0.50003   0.00000  Uiso   1.00
H91    H     0.78858  -0.55365   0.50000   0.00000  Uiso   1.00
H92    H     0.87580  -0.47663   0.50000   0.00000  Uiso   1.00
H93    H     0.95506  -0.59185   0.50000   0.00000  Uiso   1.00
H94    H     0.97275  -0.43634   0.50000   0.00000  Uiso   1.00
H95    H     0.81409  -0.66642   0.33082   0.00000  Uiso   1.00
H96    H     0.86227  -0.67152   0.66927   0.00000  Uiso   1.00
C97    C     0.61178  -0.68797   0.50000   0.00000  Uiso   1.00
C98    C     0.64489  -0.63228   0.50000   0.00000  Uiso   1.00
C99    C     0.68797  -0.70025   0.50000   0.00000  Uiso   1.00
C100   C     0.63227  -0.72284   0.50000   0.00000  Uiso   1.00
C101   C     0.70025  -0.61178   0.50000   0.00000  Uiso   1.00
C102   C     0.72284  -0.64489   0.50000   0.00000  Uiso   1.00
C103   C     0.38822  -0.31203   0.50000   0.00000  Uiso   1.00
C104   C     0.35511  -0.36772   0.50000   0.00000  Uiso   1.00
C105   C     0.31203  -0.29975   0.50000   0.00000  Uiso   1.00
C106   C     0.36773  -0.27716   0.50000   0.00000  Uiso   1.00
C107   C     0.29975  -0.38822   0.50000   0.00000  Uiso   1.00
C108   C     0.27716  -0.35511   0.50000   0.00000  Uiso   1.00
O109   O     0.56641  -0.70635   0.50000   0.00000  Uiso   1.00
O110   O     0.70635  -0.72724   0.50000   0.00000  Uiso   1.00
O111   O     0.72724  -0.56641   0.50000   0.00000  Uiso   1.00
O112   O     0.43359  -0.29365   0.50000   0.00000  Uiso   1.00
O113   O     0.29365  -0.27276   0.50000   0.00000  Uiso   1.00
O114   O     0.27276  -0.43359   0.50000   0.00000  Uiso   1.00
loop_
_geom_bond_atom_site_label_1
_geom_bond_atom_site_label_2
_geom_bond_distance
_geom_bond_site_symmetry_2
_ccdc_geom_bond_type
N1     C7      1.338   .     S
N1     C8      1.367   .     S
N1     H51     1.091   .     S
N2     C14     1.338   .     S
N2     C15     1.367   .     S
N2     H59     1.091   .     S
N3     C21     1.338   .     S
N3     C22     1.367   .     S
N3     H67     1.091   .     S
N4     C28     1.338   .     S
N4     C29     1.367   .     S
N4     H75     1.091   .     S
N5     C35     1.338   .     S
N5     C36     1.367   .     S
N5     H83     1.091   .     S
N6     C42     1.338   .     S
N6     C43     1.367   .     S
N6     H91     1.091   .     S
C7     H49     1.091   .     S
C7     C104    1.302   .     D
C8     C9      1.385   .     D
C8     C13     1.381   .     S
C9     C10     1.359   .     S
C9     N50     1.509   .     S
C10    C11     1.389   .     D
C10    H53     1.099   .     S
C11    C12     1.394   .     S
C11    C32     1.446   .     S
C12    C13     1.368   .     D
C12    H54     1.096   .     S
C13    H52     1.104   .     S
C14    H57     1.091   .     S
C14    C106    1.302   .     D
C15    C16     1.385   .     D
C15    C20     1.381   .     S
C16    C17     1.359   .     S
C16    N58     1.509   .     S
C17    C18     1.389   .     D
C17    H61     1.099   .     S
C18    C19     1.394   .     S
C18    C39     1.446   1_565 S
C19    C20     1.368   .     D
C19    H62     1.096   .     S
C20    H60     1.104   .     S
C21    H65     1.091   .     S
C21    C108    1.302   .     D
C22    C23     1.385   .     D
C22    C27     1.381   .     S
C23    C24     1.359   .     S
C23    N66     1.509   .     S
C24    C25     1.389   .     D
C24    H69     1.099   .     S
C25    C26     1.394   .     S
C25    C46     1.446   1_455 S
C26    C27     1.368   .     D
C26    H70     1.096   .     S
C27    H68     1.104   .     S
C28    H73     1.091   .     S
C28    C98     1.302   .     D
C29    C30     1.385   .     D
C29    C34     1.381   .     S
C30    C31     1.359   .     S
C30    N74     1.510   .     S
C31    C32     1.389   .     D
C31    H77     1.099   .     S
C32    C33     1.394   .     S
C33    C34     1.368   .     D
C33    H78     1.096   .     S
C34    H76     1.104   .     S
C35    H81     1.091   .     S
C35    C100    1.302   .     D
C36    C37     1.385   .     D
C36    C41     1.381   .     S
C37    C38     1.359   .     S
C37    N82     1.509   .     S
C38    C39     1.389   .     D
C38    H85     1.099   .     S
C39    C18     1.446   1_545 S
C39    C40     1.394   .     S
C40    C41     1.368   .     D
C40    H86     1.096   .     S
C41    H84     1.104   .     S
C42    H89     1.091   .     S
C42    C102    1.302   .     D
C43    C44     1.385   .     D
C43    C48     1.381   .     S
C44    C45     1.359   .     S
C44    N90     1.510   .     S
C45    C46     1.389   .     D
C45    H93     1.099   .     S
C46    C25     1.446   1_655 S
C46    C47     1.394   .     S
C47    C48     1.368   .     D
C47    H94     1.096   .     S
C48    H92     1.104   .     S
N50    H55     1.110   .     S
N50    H56     1.110   .     S
N58    H63     1.110   .     S
N58    H64     1.110   .     S
N66    H71     1.110   .     S
N66    H72     1.110   .     S
N74    H79     1.110   .     S
N74    H80     1.110   .     S
N82    H87     1.110   .     S
N82    H88     1.110   .     S
N90    H95     1.110   .     S
N90    H96     1.110   .     S
C97    C98     1.417   .     S
C97    C100    1.416   .     S
C97    O109    1.155   .     D
C98    C101    1.416   .     S
C99    C100    1.417   .     S
C99    C102    1.416   .     S
C99    O110    1.155   .     D
C101   C102    1.417   .     S
C101   O111    1.155   .     D
C103   C104    1.417   .     S
C103   C106    1.416   .     S
C103   O112    1.155   .     D
C104   C107    1.416   .     S
C105   C106    1.417   .     S
C105   C108    1.416   .     S
C105   O113    1.155   .     D
C107   C108    1.417   .     S
C107   O114    1.155   .     D
