data_525
_audit_creation_date              2023-09-08
_audit_creation_method            'Materials Studio'
_symmetry_space_group_name_H-M    'P1'
_symmetry_Int_Tables_number       1
_symmetry_cell_setting            triclinic
loop_
_symmetry_equiv_pos_as_xyz
  x,y,z
_cell_length_a                    29.2140
_cell_length_b                    29.2140
_cell_length_c                    3.6000
_cell_angle_alpha                 90.0000
_cell_angle_beta                  90.0000
_cell_angle_gamma                 120.0000
loop_
_atom_site_label
_atom_site_type_symbol
_atom_site_fract_x
_atom_site_fract_y
_atom_site_fract_z
_atom_site_U_iso_or_equiv
_atom_site_adp_type
_atom_site_occupancy
N1     N     0.42352   0.61468   0.50000   0.00000  Uiso   1.00
N2     N     0.38532   0.80884   0.50000   0.00000  Uiso   1.00
N3     N     0.19116   0.57648   0.50000   0.00000  Uiso   1.00
N4     N     0.57648   0.38532   0.50000   0.00000  Uiso   1.00
N5     N     0.61468   0.19116   0.50000   0.00000  Uiso   1.00
N6     N     0.80884   0.42352   0.50000   0.00000  Uiso   1.00
C7     C     0.37180   0.59845   0.50000   0.00000  Uiso   1.00
C8     C     0.44426   0.58185   0.50000   0.00000  Uiso   1.00
C9     C     0.41232   0.52737   0.50000   0.00000  Uiso   1.00
C10    C     0.43458   0.49614   0.50000   0.00000  Uiso   1.00
C11    C     0.48904   0.51738   0.50000   0.00000  Uiso   1.00
C12    C     0.52049   0.57227   0.50000   0.00000  Uiso   1.00
C13    C     0.49854   0.60410   0.50000   0.00000  Uiso   1.00
H14    H     0.36857   0.41657   0.24104   0.00000  Uiso   1.00
H15    H     0.36857   0.41657   0.75896   0.00000  Uiso   1.00
N16    N     0.35293   0.50280   0.50000   0.00000  Uiso   1.00
C17    C     0.31805   0.44347   0.50000   0.00000  Uiso   1.00
H18    H     0.33489   0.52839   0.50000   0.00000  Uiso   1.00
C19    C     0.34307   0.40798   0.50000   0.00000  Uiso   1.00
O20    O     0.25866   0.41899   0.50000   0.00000  Uiso   1.00
H21    H     0.31044   0.36475   0.50000   0.00000  Uiso   1.00
C22    C     0.40155   0.77335   0.50000   0.00000  Uiso   1.00
C23    C     0.41815   0.86240   0.50000   0.00000  Uiso   1.00
C24    C     0.47263   0.88495   0.50000   0.00000  Uiso   1.00
C25    C     0.50386   0.93843   0.50000   0.00000  Uiso   1.00
C26    C     0.48262   0.97167   0.50000   0.00000  Uiso   1.00
C27    C     0.42773   0.94822   0.50000   0.00000  Uiso   1.00
C28    C     0.39590   0.89444   0.50000   0.00000  Uiso   1.00
H29    H     0.58343   0.95200   0.24104   0.00000  Uiso   1.00
H30    H     0.58343   0.95200   0.75896   0.00000  Uiso   1.00
N31    N     0.49721   0.85014   0.50000   0.00000  Uiso   1.00
C32    C     0.55653   0.87458   0.50000   0.00000  Uiso   1.00
H33    H     0.47161   0.80650   0.50000   0.00000  Uiso   1.00
C34    C     0.59202   0.93509   0.50000   0.00000  Uiso   1.00
O35    O     0.58101   0.83966   0.50000   0.00000  Uiso   1.00
H36    H     0.63525   0.94569   0.50000   0.00000  Uiso   1.00
C37    C     0.22665   0.62820   0.50000   0.00000  Uiso   1.00
C38    C     0.13760   0.55574   0.50000   0.00000  Uiso   1.00
C39    C     0.11505   0.58768   0.50000   0.00000  Uiso   1.00
C40    C     0.06157   0.56543   0.50000   0.00000  Uiso   1.00
C41    C     0.02833   0.51096   0.50000   0.00000  Uiso   1.00
C42    C     0.05178   0.47951   0.50000   0.00000  Uiso   1.00
C43    C     0.10556   0.50146   0.50000   0.00000  Uiso   1.00
H44    H     0.04800   0.63143   0.24104   0.00000  Uiso   1.00
H45    H     0.04800   0.63143   0.75896   0.00000  Uiso   1.00
N46    N     0.14987   0.64707   0.50000   0.00000  Uiso   1.00
C47    C     0.12542   0.68195   0.50000   0.00000  Uiso   1.00
H48    H     0.19350   0.66511   0.50000   0.00000  Uiso   1.00
C49    C     0.06491   0.65693   0.50000   0.00000  Uiso   1.00
O50    O     0.16034   0.74134   0.50000   0.00000  Uiso   1.00
H51    H     0.05431   0.68956   0.50000   0.00000  Uiso   1.00
C52    C     0.62820   0.40155   0.50000   0.00000  Uiso   1.00
C53    C     0.55574   0.41815   0.50000   0.00000  Uiso   1.00
C54    C     0.58768   0.47263   0.50000   0.00000  Uiso   1.00
C55    C     0.56543   0.50386   0.50000   0.00000  Uiso   1.00
C56    C     0.51096   0.48262   0.50000   0.00000  Uiso   1.00
C57    C     0.47951   0.42773   0.50000   0.00000  Uiso   1.00
C58    C     0.50146   0.39590   0.50000   0.00000  Uiso   1.00
H59    H     0.63143   0.58343   0.24104   0.00000  Uiso   1.00
H60    H     0.63143   0.58343   0.75896   0.00000  Uiso   1.00
N61    N     0.64707   0.49721   0.50000   0.00000  Uiso   1.00
C62    C     0.68195   0.55653   0.50000   0.00000  Uiso   1.00
H63    H     0.66511   0.47161   0.50000   0.00000  Uiso   1.00
C64    C     0.65693   0.59202   0.50000   0.00000  Uiso   1.00
O65    O     0.74134   0.58101   0.50000   0.00000  Uiso   1.00
H66    H     0.68956   0.63525   0.50000   0.00000  Uiso   1.00
C67    C     0.59845   0.22665   0.50000   0.00000  Uiso   1.00
C68    C     0.58185   0.13760   0.50000   0.00000  Uiso   1.00
C69    C     0.52737   0.11505   0.50000   0.00000  Uiso   1.00
C70    C     0.49614   0.06157   0.50000   0.00000  Uiso   1.00
C71    C     0.51738   0.02833   0.50000   0.00000  Uiso   1.00
C72    C     0.57227   0.05178   0.50000   0.00000  Uiso   1.00
C73    C     0.60410   0.10556   0.50000   0.00000  Uiso   1.00
H74    H     0.41657   0.04800   0.24104   0.00000  Uiso   1.00
H75    H     0.41657   0.04800   0.75896   0.00000  Uiso   1.00
N76    N     0.50280   0.14987   0.50000   0.00000  Uiso   1.00
C77    C     0.44347   0.12542   0.50000   0.00000  Uiso   1.00
H78    H     0.52839   0.19350   0.50000   0.00000  Uiso   1.00
C79    C     0.40798   0.06491   0.50000   0.00000  Uiso   1.00
O80    O     0.41899   0.16034   0.50000   0.00000  Uiso   1.00
H81    H     0.36475   0.05431   0.50000   0.00000  Uiso   1.00
C82    C     0.77335   0.37180   0.50000   0.00000  Uiso   1.00
C83    C     0.86240   0.44426   0.50000   0.00000  Uiso   1.00
C84    C     0.88495   0.41232   0.50000   0.00000  Uiso   1.00
C85    C     0.93843   0.43458   0.50000   0.00000  Uiso   1.00
C86    C     0.97167   0.48904   0.50000   0.00000  Uiso   1.00
C87    C     0.94822   0.52049   0.50000   0.00000  Uiso   1.00
C88    C     0.89444   0.49854   0.50000   0.00000  Uiso   1.00
H89    H     0.95200   0.36857   0.24104   0.00000  Uiso   1.00
H90    H     0.95200   0.36857   0.75896   0.00000  Uiso   1.00
N91    N     0.85014   0.35293   0.50000   0.00000  Uiso   1.00
C92    C     0.87458   0.31805   0.50000   0.00000  Uiso   1.00
H93    H     0.80650   0.33489   0.50000   0.00000  Uiso   1.00
C94    C     0.93509   0.34307   0.50000   0.00000  Uiso   1.00
O95    O     0.83966   0.25866   0.50000   0.00000  Uiso   1.00
H96    H     0.94569   0.31044   0.50000   0.00000  Uiso   1.00
H97    H     0.34157   0.55440   0.50000   0.00000  Uiso   1.00
H98    H     0.45018   0.65818   0.50000   0.00000  Uiso   1.00
H99    H     0.52499   0.64892   0.50000   0.00000  Uiso   1.00
H100   H     0.40839   0.45129   0.50000   0.00000  Uiso   1.00
H101   H     0.56539   0.59145   0.50000   0.00000  Uiso   1.00
H102   H     0.44560   0.78717   0.50000   0.00000  Uiso   1.00
H103   H     0.34182   0.79199   0.50000   0.00000  Uiso   1.00
H104   H     0.35108   0.87607   0.50000   0.00000  Uiso   1.00
H105   H     0.54871   0.95710   0.50000   0.00000  Uiso   1.00
H106   H     0.40855   0.97394   0.50000   0.00000  Uiso   1.00
H107   H     0.21283   0.65843   0.50000   0.00000  Uiso   1.00
H108   H     0.20801   0.54982   0.50000   0.00000  Uiso   1.00
H109   H     0.12393   0.47501   0.50000   0.00000  Uiso   1.00
H110   H     0.04291   0.59161   0.50000   0.00000  Uiso   1.00
H111   H     0.02606   0.43461   0.50000   0.00000  Uiso   1.00
H112   H     0.65843   0.44560   0.50000   0.00000  Uiso   1.00
H113   H     0.54982   0.34182   0.50000   0.00000  Uiso   1.00
H114   H     0.47501   0.35108   0.50000   0.00000  Uiso   1.00
H115   H     0.59161   0.54871   0.50000   0.00000  Uiso   1.00
H116   H     0.43461   0.40855   0.50000   0.00000  Uiso   1.00
H117   H     0.55440   0.21283   0.50000   0.00000  Uiso   1.00
H118   H     0.65818   0.20801   0.50000   0.00000  Uiso   1.00
H119   H     0.64892   0.12393   0.50000   0.00000  Uiso   1.00
H120   H     0.45129   0.04291   0.50000   0.00000  Uiso   1.00
H121   H     0.59145   0.02606   0.50000   0.00000  Uiso   1.00
H122   H     0.78717   0.34157   0.50000   0.00000  Uiso   1.00
H123   H     0.79199   0.45018   0.50000   0.00000  Uiso   1.00
H124   H     0.87607   0.52499   0.50000   0.00000  Uiso   1.00
H125   H     0.95710   0.40839   0.50000   0.00000  Uiso   1.00
H126   H     0.97394   0.56539   0.50000   0.00000  Uiso   1.00
C127   C     0.61178   0.31203   0.50000   0.00000  Uiso   1.00
C128   C     0.64489   0.36773   0.50000   0.00000  Uiso   1.00
C129   C     0.68797   0.29975   0.50000   0.00000  Uiso   1.00
C130   C     0.63228   0.27716   0.50000   0.00000  Uiso   1.00
C131   C     0.70025   0.38822   0.50000   0.00000  Uiso   1.00
C132   C     0.72284   0.35511   0.50000   0.00000  Uiso   1.00
C133   C     0.38822   0.68797   0.50000   0.00000  Uiso   1.00
C134   C     0.35511   0.63228   0.50000   0.00000  Uiso   1.00
C135   C     0.31203   0.70025   0.50000   0.00000  Uiso   1.00
C136   C     0.36773   0.72284   0.50000   0.00000  Uiso   1.00
C137   C     0.29975   0.61178   0.50000   0.00000  Uiso   1.00
C138   C     0.27716   0.64489   0.50000   0.00000  Uiso   1.00
O139   O     0.56641   0.29365   0.50000   0.00000  Uiso   1.00
O140   O     0.70635   0.27276   0.50000   0.00000  Uiso   1.00
O141   O     0.72724   0.43359   0.50000   0.00000  Uiso   1.00
O142   O     0.43359   0.70635   0.50000   0.00000  Uiso   1.00
O143   O     0.29365   0.72724   0.50000   0.00000  Uiso   1.00
O144   O     0.27276   0.56641   0.50000   0.00000  Uiso   1.00
loop_
_geom_bond_atom_site_label_1
_geom_bond_atom_site_label_2
_geom_bond_distance
_geom_bond_site_symmetry_2
_ccdc_geom_bond_type
N1     C7      1.338   .     S
N1     C8      1.367   .     S
N1     H98     1.110   .     S
N2     C22     1.338   .     S
N2     C23     1.367   .     S
N2     H103    1.110   .     S
N3     C37     1.338   .     S
N3     C38     1.367   .     S
N3     H108    1.110   .     S
N4     C52     1.338   .     S
N4     C53     1.367   .     S
N4     H113    1.110   .     S
N5     C67     1.338   .     S
N5     C68     1.367   .     S
N5     H118    1.110   .     S
N6     C82     1.338   .     S
N6     C83     1.367   .     S
N6     H123    1.110   .     S
C7     H97     1.140   .     S
C7     C134    1.302   .     D
C8     C9      1.385   .     D
C8     C13     1.381   .     S
C9     C10     1.359   .     S
C9     N16     1.510   .     S
C10    C11     1.389   .     D
C10    H100    1.140   .     S
C11    C12     1.394   .     S
C11    C56     1.446   .     S
C12    C13     1.368   .     D
C12    H101    1.140   .     S
C13    H99     1.140   .     S
H14    C19     1.140   .     S
H15    C19     1.140   .     S
N16    C17     1.509   .     S
N16    H18     1.110   .     S
C17    C19     1.539   .     S
C17    O20     1.510   .     D
H18    H97     0.684   .     S
C19    H21     1.140   .     S
C22    H102    1.140   .     S
C22    C136    1.302   .     D
C23    C24     1.385   .     D
C23    C28     1.381   .     S
C24    C25     1.359   .     S
C24    N31     1.510   .     S
C25    C26     1.389   .     D
C25    H105    1.140   .     S
C26    C27     1.394   .     S
C26    C71     1.446   1_565 S
C27    C28     1.368   .     D
C27    H106    1.140   .     S
C28    H104    1.140   .     S
H29    C34     1.140   .     S
H30    C34     1.140   .     S
N31    C32     1.509   .     S
N31    H33     1.110   .     S
C32    C34     1.539   .     S
C32    O35     1.510   .     D
H33    H102    0.684   .     S
C34    H36     1.140   .     S
C37    H107    1.140   .     S
C37    C138    1.302   .     D
C38    C39     1.385   .     D
C38    C43     1.381   .     S
C39    C40     1.359   .     S
C39    N46     1.510   .     S
C40    C41     1.389   .     D
C40    H110    1.140   .     S
C41    C42     1.394   .     S
C41    C86     1.446   1_455 S
C42    C43     1.368   .     D
C42    H111    1.140   .     S
C43    H109    1.140   .     S
H44    C49     1.140   .     S
H45    C49     1.140   .     S
N46    C47     1.509   .     S
N46    H48     1.109   .     S
C47    C49     1.539   .     S
C47    O50     1.510   .     D
H48    H107    0.684   .     S
C49    H51     1.140   .     S
C52    H112    1.140   .     S
C52    C128    1.302   .     D
C53    C54     1.385   .     D
C53    C58     1.381   .     S
C54    C55     1.359   .     S
C54    N61     1.510   .     S
C55    C56     1.389   .     D
C55    H115    1.140   .     S
C56    C57     1.394   .     S
C57    C58     1.368   .     D
C57    H116    1.140   .     S
C58    H114    1.140   .     S
H59    C64     1.140   .     S
H60    C64     1.140   .     S
N61    C62     1.509   .     S
N61    H63     1.110   .     S
C62    C64     1.539   .     S
C62    O65     1.510   .     D
H63    H112    0.684   .     S
C64    H66     1.140   .     S
C67    H117    1.140   .     S
C67    C130    1.302   .     D
C68    C69     1.385   .     D
C68    C73     1.381   .     S
C69    C70     1.359   .     S
C69    N76     1.510   .     S
C70    C71     1.389   .     D
C70    H120    1.140   .     S
C71    C26     1.446   1_545 S
C71    C72     1.394   .     S
C72    C73     1.368   .     D
C72    H121    1.140   .     S
C73    H119    1.140   .     S
H74    C79     1.140   .     S
H75    C79     1.140   .     S
N76    C77     1.509   .     S
N76    H78     1.110   .     S
C77    C79     1.539   .     S
C77    O80     1.510   .     D
H78    H117    0.684   .     S
C79    H81     1.140   .     S
C82    H122    1.140   .     S
C82    C132    1.302   .     D
C83    C84     1.385   .     D
C83    C88     1.381   .     S
C84    C85     1.359   .     S
C84    N91     1.510   .     S
C85    C86     1.389   .     D
C85    H125    1.140   .     S
C86    C41     1.446   1_655 S
C86    C87     1.394   .     S
C87    C88     1.368   .     D
C87    H126    1.140   .     S
C88    H124    1.140   .     S
H89    C94     1.140   .     S
H90    C94     1.140   .     S
N91    C92     1.509   .     S
N91    H93     1.110   .     S
C92    C94     1.539   .     S
C92    O95     1.510   .     D
H93    H122    0.684   .     S
C94    H96     1.140   .     S
C127   C128    1.417   .     S
C127   C130    1.416   .     S
C127   O139    1.155   .     D
C128   C131    1.416   .     S
C129   C130    1.417   .     S
C129   C132    1.416   .     S
C129   O140    1.155   .     D
C131   C132    1.417   .     S
C131   O141    1.155   .     D
C133   C134    1.417   .     S
C133   C136    1.416   .     S
C133   O142    1.155   .     D
C134   C137    1.416   .     S
C135   C136    1.417   .     S
C135   C138    1.416   .     S
C135   O143    1.155   .     D
C137   C138    1.417   .     S
C137   O144    1.155   .     D
