data_526
_audit_creation_date              2023-09-08
_audit_creation_method            'Materials Studio'
_symmetry_space_group_name_H-M    'P6'
_symmetry_Int_Tables_number       168
_symmetry_cell_setting            hexagonal
loop_
_symmetry_equiv_pos_as_xyz
  x,y,z
  -y,x-y,z
  -x+y,-x,z
  -x,-y,z
  y,-x+y,z
  x-y,x,z
_cell_length_a                    29.2140
_cell_length_b                    29.2140
_cell_length_c                    3.6000
_cell_angle_alpha                 90.0000
_cell_angle_beta                  90.0000
_cell_angle_gamma                 120.0000
loop_
_atom_site_label
_atom_site_type_symbol
_atom_site_fract_x
_atom_site_fract_y
_atom_site_fract_z
_atom_site_U_iso_or_equiv
_atom_site_adp_type
_atom_site_occupancy
N1     N    -0.42352  -0.80884  -0.38889   0.00000  Uiso   1.00
C2     C    -0.37180  -0.77335  -0.38889   0.00000  Uiso   1.00
C3     C    -0.44426  -0.86240  -0.38889   0.00000  Uiso   1.00
C4     C    -0.41232  -0.88495  -0.38889   0.00000  Uiso   1.00
C5     C    -0.43458  -0.93843  -0.38889   0.00000  Uiso   1.00
C6     C    -0.48904  -0.97167  -0.38889   0.00000  Uiso   1.00
C7     C    -0.52049  -0.94822  -0.38889   0.00000  Uiso   1.00
C8     C    -0.49854  -0.89444  -0.38889   0.00000  Uiso   1.00
H9     H    -0.34200  -0.78545  -0.38889   0.00000  Uiso   1.00
H10    H    -0.44635  -0.78858  -0.38889   0.00000  Uiso   1.00
H11    H    -0.52337  -0.87580  -0.38889   0.00000  Uiso   1.00
H12    H    -0.40815  -0.95506  -0.38889   0.00000  Uiso   1.00
H13    H    -0.56366  -0.97275  -0.38889   0.00000  Uiso   1.00
N14    N    -0.35564  -0.85457  -0.38750   0.00000  Uiso   1.00
O15    O    -0.33435  -0.81687  -0.59334   0.00000  Uiso   1.00
O16    O    -0.32929  -0.86487  -0.18168   0.00000  Uiso   1.00
C97    C    -0.61178  -1.29975  -0.38889   0.00000  Uiso   1.00
C98    C    -0.64489  -1.27716  -0.38889   0.00000  Uiso   1.00
O99    O    -0.56641  -1.27276  -0.38889   0.00000  Uiso   1.00
loop_
_geom_bond_atom_site_label_1
_geom_bond_atom_site_label_2
_geom_bond_distance
_geom_bond_site_symmetry_2
_ccdc_geom_bond_type
N1     C2      1.338   .     S
N1     C3      1.367   .     S
N1     H10     1.091   .     S
C2     H9      1.091   .     S
C2     C98     1.302   4_435 D
C3     C4      1.385   .     D
C3     C8      1.381   .     S
C4     C5      1.359   .     S
C4     N14     1.435   .     S
C5     C6      1.389   .     D
C5     H12     1.099   .     S
C6     C7      1.394   .     S
C6     C6      1.446   4_435 S
C7     C8      1.368   .     D
C7     H13     1.096   .     S
C8     H11     1.104   .     S
N14    O15     1.210   .     D
N14    O16     1.210   .     S
C97    C98     1.418   .     S
C97    O99     1.155   .     D
C97    C98     1.416   3_535 S
C98    C2      1.302   4_435 D
C98    C97     1.416   2_335 S
