data_527
_audit_creation_date              2023-09-08
_audit_creation_method            'Materials Studio'
_symmetry_space_group_name_H-M    'P1'
_symmetry_Int_Tables_number       1
_symmetry_cell_setting            triclinic
loop_
_symmetry_equiv_pos_as_xyz
  x,y,z
_cell_length_a                    29.6712
_cell_length_b                    30.7116
_cell_length_c                    6.7694
_cell_angle_alpha                 89.6435
_cell_angle_beta                  90.5336
_cell_angle_gamma                 119.3597
loop_
_atom_site_label
_atom_site_type_symbol
_atom_site_fract_x
_atom_site_fract_y
_atom_site_fract_z
_atom_site_U_iso_or_equiv
_atom_site_adp_type
_atom_site_occupancy
C1     C     0.02545   0.01125   0.99437   0.00000  Uiso   1.00
C2     C     0.05019   0.98160   0.99655   0.00000  Uiso   1.00
C3     C     0.10324   0.00468   0.99963   0.00000  Uiso   1.00
C4     C     0.13443   0.05841   0.00072   0.00000  Uiso   1.00
C5     C     0.10995   0.08795   0.99774   0.00000  Uiso   1.00
C6     C     0.05689   0.06470   0.99466   0.00000  Uiso   1.00
C7     C     0.96923   0.98688   0.99230   0.00000  Uiso   1.00
C8     C     0.93849   0.93333   0.99146   0.00000  Uiso   1.00
C9     C     0.88541   0.90925   0.98980   0.00000  Uiso   1.00
C10    C     0.86020   0.93804   0.98893   0.00000  Uiso   1.00
C11    C     0.89063   0.99194   0.98998   0.00000  Uiso   1.00
C12    C     0.94382   0.01589   0.99159   0.00000  Uiso   1.00
H13    H     0.02844   0.93976   0.99614   0.00000  Uiso   1.00
H14    H     0.13227   0.12969   0.99797   0.00000  Uiso   1.00
H15    H     0.04016   0.08984   0.99247   0.00000  Uiso   1.00
H16    H     0.95571   0.90861   0.99199   0.00000  Uiso   1.00
H17    H     0.86368   0.86748   0.98916   0.00000  Uiso   1.00
H18    H     0.96520   0.05773   0.99241   0.00000  Uiso   1.00
N19    N     0.18702   0.07830   0.00500   0.00000  Uiso   1.00
N20    N     0.80743   0.91687   0.98681   0.00000  Uiso   1.00
C21    C     0.77248   0.86689   0.98724   0.00000  Uiso   1.00
H22    H     0.78584   0.83875   0.99020   0.00000  Uiso   1.00
C23    C     0.22287   0.12803   0.00659   0.00000  Uiso   1.00
H24    H     0.21029   0.15683   0.00439   0.00000  Uiso   1.00
C25    C     0.27476   0.14459   0.01018   0.00000  Uiso   1.00
C26    C     0.29464   0.10857   0.01105   0.00000  Uiso   1.00
C27    C     0.30901   0.20026   0.00973   0.00000  Uiso   1.00
C28    C     0.35049   0.12963   0.00653   0.00000  Uiso   1.00
C29    C     0.36441   0.21962   0.00937   0.00000  Uiso   1.00
C30    C     0.38588   0.18497   0.00786   0.00000  Uiso   1.00
C31    C     0.72029   0.84933   0.98452   0.00000  Uiso   1.00
C32    C     0.69999   0.88490   0.98090   0.00000  Uiso   1.00
C33    C     0.68626   0.79368   0.98707   0.00000  Uiso   1.00
C34    C     0.64428   0.86389   0.97808   0.00000  Uiso   1.00
C35    C     0.63067   0.77413   0.98573   0.00000  Uiso   1.00
C36    C     0.60887   0.80863   0.97900   0.00000  Uiso   1.00
O37    O     0.26555   0.06158   0.01430   0.00000  Uiso   1.00
O38    O     0.29083   0.22958   0.00957   0.00000  Uiso   1.00
O39    O     0.43308   0.20257   0.00748   0.00000  Uiso   1.00
O40    O     0.56171   0.79065   0.97454   0.00000  Uiso   1.00
O41    O     0.72872   0.93206   0.98020   0.00000  Uiso   1.00
O42    O     0.70401   0.76400   0.99055   0.00000  Uiso   1.00
H43    H     0.20127   0.05271   0.00722   0.00000  Uiso   1.00
H44    H     0.79244   0.94190   0.98479   0.00000  Uiso   1.00
C45    C     0.39927   0.27149   0.00837   0.00000  Uiso   1.00
H46    H     0.44025   0.28334   0.00793   0.00000  Uiso   1.00
C47    C     0.36813   0.09490   0.99814   0.00000  Uiso   1.00
H48    H     0.33987   0.05388   0.99684   0.00000  Uiso   1.00
C49    C     0.62726   0.89918   0.97622   0.00000  Uiso   1.00
H50    H     0.65603   0.94005   0.97656   0.00000  Uiso   1.00
C51    C     0.59591   0.72232   0.99102   0.00000  Uiso   1.00
H52    H     0.55490   0.71039   0.98960   0.00000  Uiso   1.00
N53    N     0.38545   0.30774   0.00781   0.00000  Uiso   1.00
N54    N     0.57753   0.88591   0.97458   0.00000  Uiso   1.00
C55    C     0.41829   0.36015   0.00752   0.00000  Uiso   1.00
C56    C     0.47179   0.38310   0.00867   0.00000  Uiso   1.00
C57    C     0.39652   0.39255   0.00620   0.00000  Uiso   1.00
C58    C     0.50204   0.43602   0.00899   0.00000  Uiso   1.00
H59    H     0.49052   0.35977   0.00933   0.00000  Uiso   1.00
C60    C     0.42703   0.44551   0.00667   0.00000  Uiso   1.00
C61    C     0.48094   0.46875   0.00823   0.00000  Uiso   1.00
H62    H     0.54349   0.45148   0.00992   0.00000  Uiso   1.00
H63    H     0.40787   0.46850   0.00556   0.00000  Uiso   1.00
C64    C     0.51358   0.52476   0.00798   0.00000  Uiso   1.00
C65    C     0.49268   0.55766   0.00699   0.00000  Uiso   1.00
C66    C     0.56744   0.54787   0.00798   0.00000  Uiso   1.00
C67    C     0.52309   0.61053   0.00424   0.00000  Uiso   1.00
H68    H     0.45122   0.54231   0.00817   0.00000  Uiso   1.00
C69    C     0.59800   0.60075   0.00541   0.00000  Uiso   1.00
H70    H     0.58655   0.52483   0.00956   0.00000  Uiso   1.00
C71    C     0.57660   0.63340   0.00252   0.00000  Uiso   1.00
H72    H     0.50448   0.63398   0.00337   0.00000  Uiso   1.00
C73    C     0.55760   0.91888   0.97415   0.00000  Uiso   1.00
C74    C     0.58722   0.97237   0.97401   0.00000  Uiso   1.00
C75    C     0.50380   0.89736   0.97401   0.00000  Uiso   1.00
C76    C     0.56415   0.00275   0.97336   0.00000  Uiso   1.00
H77    H     0.62901   0.99106   0.97444   0.00000  Uiso   1.00
C78    C     0.48088   0.92789   0.97351   0.00000  Uiso   1.00
C79    C     0.51066   0.98181   0.97294   0.00000  Uiso   1.00
H80    H     0.58949   0.04414   0.97306   0.00000  Uiso   1.00
H81    H     0.43901   0.90867   0.97391   0.00000  Uiso   1.00
C82    C     0.48658   0.01435   0.97334   0.00000  Uiso   1.00
C83    C     0.43306   0.99304   0.97058   0.00000  Uiso   1.00
C84    C     0.51601   0.06821   0.97741   0.00000  Uiso   1.00
C85    C     0.40954   0.02297   0.97517   0.00000  Uiso   1.00
H86    H     0.40790   0.95161   0.96500   0.00000  Uiso   1.00
C87    C     0.49265   0.09835   0.98132   0.00000  Uiso   1.00
H88    H     0.55786   0.08760   0.97838   0.00000  Uiso   1.00
C89    C     0.43880   0.07642   0.98229   0.00000  Uiso   1.00
H90    H     0.36775   0.00398   0.97329   0.00000  Uiso   1.00
N91    N     0.60953   0.68585   0.99772   0.00000  Uiso   1.00
N92    N     0.41813   0.10881   0.99068   0.00000  Uiso   1.00
O93    O     0.12764   0.97582   0.00200   0.00000  Uiso   1.00
H94    H     0.10240   0.93950   0.00039   0.00000  Uiso   1.00
O95    O     0.86517   0.01953   0.98936   0.00000  Uiso   1.00
H96    H     0.88943   0.05611   0.99044   0.00000  Uiso   1.00
O97    O     0.47493   0.84480   0.97468   0.00000  Uiso   1.00
H98    H     0.43858   0.83424   0.97491   0.00000  Uiso   1.00
O99    O     0.52114   0.15092   0.98546   0.00000  Uiso   1.00
H100   H     0.55751   0.16153   0.98436   0.00000  Uiso   1.00
O101   O     0.34414   0.36952   0.00430   0.00000  Uiso   1.00
H102   H     0.33330   0.39523   0.00252   0.00000  Uiso   1.00
O103   O     0.65077   0.62330   0.00504   0.00000  Uiso   1.00
H104   H     0.66058   0.59679   0.00809   0.00000  Uiso   1.00
H105   H     0.34606   0.29458   0.00780   0.00000  Uiso   1.00
H106   H     0.55191   0.84658   0.97443   0.00000  Uiso   1.00
H107   H     0.44339   0.14829   0.99375   0.00000  Uiso   1.00
H108   H     0.64894   0.69913   0.99797   0.00000  Uiso   1.00
C109   C     0.06480   0.08463   0.49487   0.00000  Uiso   1.00
C110   C     0.09016   0.05557   0.49739   0.00000  Uiso   1.00
C111   C     0.14334   0.07946   0.50045   0.00000  Uiso   1.00
C112   C     0.17381   0.13336   0.50135   0.00000  Uiso   1.00
C113   C     0.14866   0.16219   0.49780   0.00000  Uiso   1.00
C114   C     0.09558   0.13817   0.49458   0.00000  Uiso   1.00
C115   C     0.00858   0.06027   0.49303   0.00000  Uiso   1.00
C116   C     0.97717   0.00681   0.49233   0.00000  Uiso   1.00
C117   C     0.92411   0.98352   0.49105   0.00000  Uiso   1.00
C118   C     0.89959   0.01303   0.49035   0.00000  Uiso   1.00
C119   C     0.93074   0.06676   0.49116   0.00000  Uiso   1.00
C120   C     0.98380   0.08989   0.49248   0.00000  Uiso   1.00
H121   H     0.06874   0.01373   0.49718   0.00000  Uiso   1.00
H122   H     0.17043   0.20396   0.49763   0.00000  Uiso   1.00
H123   H     0.07840   0.16292   0.49187   0.00000  Uiso   1.00
H124   H     0.99393   0.98170   0.49270   0.00000  Uiso   1.00
H125   H     0.90183   0.94178   0.49059   0.00000  Uiso   1.00
H126   H     0.00554   0.13172   0.49311   0.00000  Uiso   1.00
N127   N     0.22657   0.15444   0.50573   0.00000  Uiso   1.00
N128   N     0.84698   0.99306   0.48866   0.00000  Uiso   1.00
C129   C     0.81123   0.94330   0.48693   0.00000  Uiso   1.00
H130   H     0.82390   0.91458   0.48786   0.00000  Uiso   1.00
C131   C     0.26160   0.20441   0.50590   0.00000  Uiso   1.00
H132   H     0.24831   0.23261   0.50239   0.00000  Uiso   1.00
C133   C     0.31377   0.22186   0.50927   0.00000  Uiso   1.00
C134   C     0.33395   0.18619   0.51182   0.00000  Uiso   1.00
C135   C     0.34790   0.27750   0.50790   0.00000  Uiso   1.00
C136   C     0.38964   0.20707   0.50840   0.00000  Uiso   1.00
C137   C     0.40346   0.29692   0.50791   0.00000  Uiso   1.00
C138   C     0.42515   0.26230   0.50697   0.00000  Uiso   1.00
C139   C     0.75931   0.92660   0.48396   0.00000  Uiso   1.00
C140   C     0.73928   0.96250   0.48237   0.00000  Uiso   1.00
C141   C     0.72519   0.87092   0.48325   0.00000  Uiso   1.00
C142   C     0.68340   0.94129   0.47871   0.00000  Uiso   1.00
C143   C     0.66977   0.85140   0.48034   0.00000  Uiso   1.00
C144   C     0.64815   0.88592   0.47682   0.00000  Uiso   1.00
O145   O     0.30514   0.13906   0.51560   0.00000  Uiso   1.00
O146   O     0.33024   0.30726   0.50669   0.00000  Uiso   1.00
O147   O     0.47230   0.28019   0.50490   0.00000  Uiso   1.00
O148   O     0.60094   0.86821   0.47304   0.00000  Uiso   1.00
O149   O     0.76827   0.00952   0.48389   0.00000  Uiso   1.00
O150   O     0.74349   0.84170   0.48533   0.00000  Uiso   1.00
H151   H     0.24148   0.12935   0.50868   0.00000  Uiso   1.00
H152   H     0.83264   0.01858   0.48803   0.00000  Uiso   1.00
C153   C     0.43833   0.34872   0.50753   0.00000  Uiso   1.00
H154   H     0.47932   0.36053   0.50729   0.00000  Uiso   1.00
C155   C     0.40656   0.17171   0.50398   0.00000  Uiso   1.00
H156   H     0.37775   0.13084   0.50530   0.00000  Uiso   1.00
C157   C     0.66561   0.97594   0.47809   0.00000  Uiso   1.00
H158   H     0.69381   0.01697   0.48053   0.00000  Uiso   1.00
C159   C     0.63503   0.79950   0.48293   0.00000  Uiso   1.00
H160   H     0.59402   0.78751   0.48134   0.00000  Uiso   1.00
N161   N     0.42485   0.38531   0.50745   0.00000  Uiso   1.00
N162   N     0.61557   0.96198   0.47501   0.00000  Uiso   1.00
C163   C     0.45789   0.43775   0.50785   0.00000  Uiso   1.00
C164   C     0.51140   0.46055   0.50901   0.00000  Uiso   1.00
C165   C     0.43658   0.47048   0.50719   0.00000  Uiso   1.00
C166   C     0.54189   0.51341   0.50882   0.00000  Uiso   1.00
H167   H     0.52994   0.43703   0.50986   0.00000  Uiso   1.00
C168   C     0.46721   0.52335   0.50717   0.00000  Uiso   1.00
C169   C     0.52107   0.54639   0.50754   0.00000  Uiso   1.00
H170   H     0.58335   0.52871   0.50958   0.00000  Uiso   1.00
H171   H     0.44816   0.54644   0.50660   0.00000  Uiso   1.00
C172   C     0.55373   0.60239   0.50500   0.00000  Uiso   1.00
C173   C     0.53257   0.63507   0.50146   0.00000  Uiso   1.00
C174   C     0.60764   0.62568   0.50465   0.00000  Uiso   1.00
C175   C     0.56276   0.68796   0.49593   0.00000  Uiso   1.00
H176   H     0.49112   0.61958   0.50260   0.00000  Uiso   1.00
C177   C     0.63810   0.67863   0.49938   0.00000  Uiso   1.00
H178   H     0.62683   0.60272   0.50846   0.00000  Uiso   1.00
C179   C     0.61626   0.71096   0.49398   0.00000  Uiso   1.00
H180   H     0.54398   0.71125   0.49321   0.00000  Uiso   1.00
C181   C     0.59485   0.99438   0.47445   0.00000  Uiso   1.00
C182   C     0.62410   0.04786   0.47463   0.00000  Uiso   1.00
C183   C     0.54100   0.97245   0.47371   0.00000  Uiso   1.00
C184   C     0.60058   0.07780   0.47485   0.00000  Uiso   1.00
H185   H     0.66590   0.06688   0.47494   0.00000  Uiso   1.00
C186   C     0.51763   0.00259   0.47384   0.00000  Uiso   1.00
C187   C     0.54705   0.05646   0.47493   0.00000  Uiso   1.00
H188   H     0.62574   0.11926   0.47523   0.00000  Uiso   1.00
H189   H     0.47578   0.98319   0.47356   0.00000  Uiso   1.00
C190   C     0.52298   0.08901   0.47769   0.00000  Uiso   1.00
C191   C     0.46950   0.06809   0.47863   0.00000  Uiso   1.00
C192   C     0.55279   0.14292   0.48076   0.00000  Uiso   1.00
C193   C     0.44646   0.09848   0.48428   0.00000  Uiso   1.00
H194   H     0.44414   0.02671   0.47487   0.00000  Uiso   1.00
C195   C     0.52991   0.17346   0.48635   0.00000  Uiso   1.00
H196   H     0.59466   0.16213   0.47917   0.00000  Uiso   1.00
C197   C     0.47612   0.15196   0.48946   0.00000  Uiso   1.00
H198   H     0.40467   0.07982   0.48483   0.00000  Uiso   1.00
N199   N     0.64900   0.76337   0.48796   0.00000  Uiso   1.00
N200   N     0.45624   0.18493   0.49717   0.00000  Uiso   1.00
O201   O     0.16873   0.05181   0.50291   0.00000  Uiso   1.00
H202   H     0.14443   0.01524   0.50095   0.00000  Uiso   1.00
O203   O     0.90629   0.09558   0.49058   0.00000  Uiso   1.00
H204   H     0.93151   0.13191   0.49131   0.00000  Uiso   1.00
O205   O     0.51252   0.91986   0.47337   0.00000  Uiso   1.00
H206   H     0.47615   0.90925   0.47325   0.00000  Uiso   1.00
O207   O     0.55881   0.22600   0.48988   0.00000  Uiso   1.00
H208   H     0.59514   0.23656   0.48574   0.00000  Uiso   1.00
O209   O     0.38382   0.44802   0.50636   0.00000  Uiso   1.00
H210   H     0.37408   0.47459   0.50529   0.00000  Uiso   1.00
O211   O     0.69048   0.70172   0.49881   0.00000  Uiso   1.00
H212   H     0.70138   0.67608   0.50531   0.00000  Uiso   1.00
H213   H     0.38546   0.37214   0.50699   0.00000  Uiso   1.00
H214   H     0.59037   0.92248   0.47351   0.00000  Uiso   1.00
H215   H     0.48188   0.22425   0.49690   0.00000  Uiso   1.00
H216   H     0.68842   0.77664   0.48867   0.00000  Uiso   1.00
loop_
_geom_bond_atom_site_label_1
_geom_bond_atom_site_label_2
_geom_bond_distance
_geom_bond_site_symmetry_2
_ccdc_geom_bond_type
C1     C2      1.422   1_545 D
C1     C6      1.436   .     S
C1     C7      1.455   1_445 S
C2     C1      1.422   1_565 D
C2     C3      1.373   1_565 S
C2     H13     1.120   .     S
C3     C2      1.373   1_545 S
C3     C4      1.443   1_556 D
C3     O93     1.392   1_546 S
C4     C3      1.443   1_554 D
C4     C5      1.413   1_554 S
C4     N19     1.369   .     S
C5     C4      1.413   1_556 S
C5     C6      1.373   .     D
C5     H14     1.118   .     S
C6     H15     1.104   .     S
C7     C1      1.455   1_665 S
C7     C8      1.437   .     D
C7     C12     1.422   1_565 S
C8     C9      1.373   .     S
C8     H16     1.104   .     S
C9     C10     1.411   .     D
C9     H17     1.118   .     S
C10    C11     1.446   .     S
C10    N20     1.370   .     S
C11    C12     1.376   1_565 D
C11    O95     1.384   1_565 S
C12    C11     1.376   1_545 D
C12    C7      1.422   1_545 S
C12    H18     1.120   .     S
N19    C23     1.368   .     S
N19    H43     1.059   .     S
N20    C21     1.368   .     S
N20    H44     1.060   .     S
C21    H22     1.114   .     S
C21    C31     1.367   .     D
C23    H24     1.116   .     S
C23    C25     1.364   .     D
C25    C26     1.487   .     S
C25    C27     1.501   .     S
C26    C28     1.454   .     S
C26    O37     1.268   .     D
C27    C29     1.448   .     S
C27    O38     1.256   .     D
C28    C30     1.497   .     S
C28    C47     1.401   1_554 D
C29    C30     1.484   .     S
C29    C45     1.411   .     D
C30    O39     1.229   .     D
C31    C32     1.484   .     S
C31    C33     1.500   .     S
C32    C34     1.450   .     S
C32    O41     1.270   .     D
C33    C35     1.453   .     S
C33    O42     1.257   .     D
C34    C36     1.495   .     S
C34    C49     1.402   .     D
C35    C36     1.488   .     S
C35    C51     1.410   .     D
C36    O40     1.227   .     D
C45    H46     1.085   .     S
C45    N53     1.362   .     S
C47    C28     1.401   1_556 D
C47    H48     1.120   .     S
C47    N92     1.329   .     S
C49    H50     1.120   .     S
C49    N54     1.324   .     S
C51    H52     1.085   .     S
C51    N91     1.365   .     S
N53    C55     1.415   .     S
N53    H105    1.033   .     S
N54    C73     1.401   .     S
N54    H106    1.066   .     S
C55    C56     1.385   .     D
C55    C57     1.427   .     S
C56    C58     1.420   .     S
C56    H59     1.101   .     S
C57    C60     1.422   .     D
C57    O101    1.356   .     S
C58    C61     1.421   .     D
C58    H62     1.080   .     S
C60    C61     1.396   .     S
C60    H63     1.102   .     S
C61    C64     1.504   .     S
C64    C65     1.421   .     S
C64    C66     1.395   .     D
C65    C67     1.419   .     D
C65    H68     1.080   .     S
C66    C69     1.420   .     S
C66    H70     1.103   .     S
C67    C71     1.386   .     S
C67    H72     1.102   .     S
C69    C71     1.426   .     D
C69    O103    1.367   .     S
C71    N91     1.417   1_554 S
C73    C74     1.434   .     D
C73    C75     1.397   .     S
C74    C76     1.402   1_565 S
C74    H77     1.081   .     S
C75    C78     1.402   .     D
C75    O97     1.408   .     S
C76    C74     1.402   1_545 S
C76    C79     1.390   1_545 D
C76    H80     1.115   .     S
C78    C79     1.445   .     S
C78    H81     1.083   .     S
C79    C76     1.390   1_565 D
C79    C82     1.486   1_565 S
C82    C79     1.486   1_545 S
C82    C83     1.390   1_545 D
C82    C84     1.443   .     S
C83    C82     1.390   1_565 D
C83    C85     1.401   1_565 S
C83    H86     1.116   .     S
C84    C87     1.403   .     D
C84    H88     1.082   .     S
C85    C83     1.401   1_545 S
C85    C89     1.433   .     D
C85    H90     1.081   .     S
C87    C89     1.397   .     S
C87    O99     1.408   .     S
C89    N92     1.403   .     S
N91    C71     1.417   1_556 S
N91    H108    1.032   .     S
N92    H107    1.068   .     S
O93    C3      1.392   1_564 S
O93    H94     0.993   .     S
O95    C11     1.384   1_545 S
O95    H96     0.994   .     S
O97    H98     0.962   .     S
O99    H100    0.962   .     S
O101   H102    0.988   .     S
O103   H104    0.990   .     S
C109   C110    1.422   .     D
C109   C114    1.437   .     S
C109   C115    1.455   .     S
C110   C111    1.376   .     S
C110   H121    1.120   .     S
C111   C112    1.446   .     D
C111   O201    1.384   .     S
C112   C113    1.410   .     S
C112   N127    1.370   .     S
C113   C114    1.373   .     D
C113   H122    1.118   .     S
C114   H123    1.103   .     S
C115   C116    1.437   1_455 D
C115   C120    1.423   1_455 S
C116   C115    1.437   1_655 D
C116   C117    1.373   1_545 S
C116   H124    1.104   1_545 S
C117   C116    1.373   1_565 S
C117   C118    1.413   1_565 D
C117   H125    1.118   .     S
C118   C117    1.413   1_545 D
C118   C119    1.443   .     S
C118   N128    1.369   1_545 S
C119   C120    1.373   .     D
C119   O203    1.393   .     S
C120   C115    1.423   1_655 S
C120   H126    1.120   1_655 S
H124   C116    1.104   1_565 S
H126   C120    1.120   1_455 S
N127   C131    1.368   .     S
N127   H151    1.060   .     S
N128   C118    1.369   1_565 S
N128   C129    1.368   .     S
N128   H152    1.059   1_565 S
C129   H130    1.116   .     S
C129   C139    1.364   .     D
C131   H132    1.114   .     S
C131   C133    1.367   .     D
C133   C134    1.484   .     S
C133   C135    1.500   .     S
C134   C136    1.450   .     S
C134   O145    1.270   .     D
C135   C137    1.452   .     S
C135   O146    1.257   .     D
C136   C138    1.495   .     S
C136   C155    1.403   .     D
C137   C138    1.489   .     S
C137   C153    1.410   .     D
C138   O147    1.227   .     D
C139   C140    1.487   .     S
C139   C141    1.501   .     S
C140   C142    1.454   .     S
C140   O149    1.268   1_565 D
C141   C143    1.448   .     S
C141   O150    1.256   .     D
C142   C144    1.497   .     S
C142   C157    1.401   .     D
C143   C144    1.484   .     S
C143   C159    1.412   .     D
C144   O148    1.229   .     D
O149   C140    1.268   1_545 D
H152   N128    1.059   1_545 S
C153   H154    1.085   .     S
C153   N161    1.365   .     S
C155   H156    1.120   .     S
C155   N200    1.324   .     S
C157   H158    1.120   1_565 S
C157   N162    1.328   .     S
H158   C157    1.120   1_545 S
C159   H160    1.085   .     S
C159   N199    1.362   .     S
N161   C163    1.417   .     S
N161   H213    1.032   .     S
N162   C181    1.403   .     S
N162   H214    1.068   .     S
C163   C164    1.386   .     D
C163   C165    1.426   .     S
C164   C166    1.419   .     S
C164   H167    1.102   .     S
C165   C168    1.420   .     D
C165   O209    1.367   .     S
C166   C169    1.422   .     D
C166   H170    1.080   .     S
C168   C169    1.395   .     S
C168   H171    1.102   .     S
C169   C172    1.504   .     S
C172   C173    1.421   .     S
C172   C174    1.396   .     D
C173   C175    1.420   .     D
C173   H176    1.080   .     S
C174   C177    1.422   .     S
C174   H178    1.102   .     S
C175   C179    1.386   .     S
C175   H180    1.101   .     S
C177   C179    1.427   .     D
C177   O211    1.356   .     S
C179   N199    1.415   .     S
C181   C182    1.433   1_565 D
C181   C183    1.397   .     S
C182   C181    1.433   1_545 D
C182   C184    1.401   .     S
C182   H185    1.081   .     S
C183   C186    1.403   1_565 D
C183   O205    1.409   .     S
C184   C187    1.390   .     D
C184   H188    1.116   .     S
C186   C183    1.403   1_545 D
C186   C187    1.443   .     S
C186   H189    1.082   1_545 S
C187   C190    1.487   .     S
H189   C186    1.082   1_565 S
C190   C191    1.390   .     D
C190   C192    1.445   .     S
C191   C193    1.402   .     S
C191   H194    1.115   .     S
C192   C195    1.403   .     D
C192   H196    1.083   .     S
C193   C197    1.434   .     D
C193   H198    1.081   .     S
C195   C197    1.397   .     S
C195   O207    1.408   .     S
C197   N200    1.401   .     S
N199   H216    1.033   .     S
N200   H215    1.066   .     S
O201   H202    0.994   .     S
O203   H204    0.993   .     S
O205   H206    0.962   .     S
O207   H208    0.962   .     S
O209   H210    0.990   .     S
O211   H212    0.988   .     S
