data_528
_audit_creation_date              2023-09-08
_audit_creation_method            'Materials Studio'
_symmetry_space_group_name_H-M    'P1'
_symmetry_Int_Tables_number       1
_symmetry_cell_setting            triclinic
loop_
_symmetry_equiv_pos_as_xyz
  x,y,z
_cell_length_a                    30.0891
_cell_length_b                    30.2535
_cell_length_c                    6.7237
_cell_angle_alpha                 89.6736
_cell_angle_beta                  89.9639
_cell_angle_gamma                 118.4402
loop_
_atom_site_label
_atom_site_type_symbol
_atom_site_fract_x
_atom_site_fract_y
_atom_site_fract_z
_atom_site_U_iso_or_equiv
_atom_site_adp_type
_atom_site_occupancy
C1     C     0.02561   0.01340   0.99466   0.00000  Uiso   1.00
C2     C     0.05137   0.98449   0.99719   0.00000  Uiso   1.00
C3     C     0.10435   0.00820   0.00050   0.00000  Uiso   1.00
C4     C     0.13443   0.06204   0.00162   0.00000  Uiso   1.00
C5     C     0.10897   0.09086   0.99925   0.00000  Uiso   1.00
C6     C     0.05587   0.06686   0.99584   0.00000  Uiso   1.00
C7     C     0.96931   0.98767   0.99144   0.00000  Uiso   1.00
C8     C     0.94012   0.93408   0.98981   0.00000  Uiso   1.00
C9     C     0.88703   0.90887   0.98758   0.00000  Uiso   1.00
C10    C     0.86063   0.93666   0.98682   0.00000  Uiso   1.00
C11    C     0.88945   0.99071   0.98791   0.00000  Uiso   1.00
C12    C     0.94262   0.01568   0.99024   0.00000  Uiso   1.00
H13    H     0.02972   0.94287   0.99670   0.00000  Uiso   1.00
H14    H     0.13050   0.13258   0.99999   0.00000  Uiso   1.00
H15    H     0.03824   0.09138   0.99399   0.00000  Uiso   1.00
H16    H     0.95846   0.91019   0.99030   0.00000  Uiso   1.00
H17    H     0.86633   0.86713   0.98648   0.00000  Uiso   1.00
H18    H     0.96367   0.05735   0.99131   0.00000  Uiso   1.00
N19    N     0.18706   0.08228   0.00475   0.00000  Uiso   1.00
N20    N     0.80788   0.91486   0.98498   0.00000  Uiso   1.00
C21    C     0.77300   0.86511   0.98663   0.00000  Uiso   1.00
H22    H     0.78614   0.83665   0.98963   0.00000  Uiso   1.00
C23    C     0.22297   0.13177   0.00684   0.00000  Uiso   1.00
H24    H     0.21064   0.16090   0.00723   0.00000  Uiso   1.00
C25    C     0.27479   0.14753   0.00824   0.00000  Uiso   1.00
C26    C     0.29435   0.11103   0.00609   0.00000  Uiso   1.00
C27    C     0.30943   0.20294   0.00993   0.00000  Uiso   1.00
C28    C     0.35008   0.13121   0.00245   0.00000  Uiso   1.00
C29    C     0.36466   0.22148   0.00933   0.00000  Uiso   1.00
C30    C     0.38566   0.18631   0.00567   0.00000  Uiso   1.00
C31    C     0.72091   0.84856   0.98502   0.00000  Uiso   1.00
C32    C     0.70146   0.88502   0.98126   0.00000  Uiso   1.00
C33    C     0.68609   0.79326   0.98823   0.00000  Uiso   1.00
C34    C     0.64602   0.86534   0.97902   0.00000  Uiso   1.00
C35    C     0.63072   0.77497   0.98757   0.00000  Uiso   1.00
C36    C     0.60991   0.81049   0.98149   0.00000  Uiso   1.00
O37    O     0.26501   0.06412   0.00664   0.00000  Uiso   1.00
O38    O     0.29162   0.23281   0.01179   0.00000  Uiso   1.00
O39    O     0.43285   0.20344   0.00508   0.00000  Uiso   1.00
O40    O     0.56284   0.79360   0.97856   0.00000  Uiso   1.00
O41    O     0.73056   0.93205   0.97979   0.00000  Uiso   1.00
O42    O     0.70316   0.76277   0.99156   0.00000  Uiso   1.00
H43    H     0.20142   0.05662   0.00477   0.00000  Uiso   1.00
H44    H     0.79268   0.93990   0.98291   0.00000  Uiso   1.00
C45    C     0.39991   0.27314   0.01037   0.00000  Uiso   1.00
H46    H     0.44078   0.28442   0.00945   0.00000  Uiso   1.00
C47    C     0.36762   0.09612   0.99435   0.00000  Uiso   1.00
H48    H     0.33941   0.05521   0.99181   0.00000  Uiso   1.00
C49    C     0.63007   0.90169   0.97536   0.00000  Uiso   1.00
H50    H     0.65934   0.94224   0.97434   0.00000  Uiso   1.00
C51    C     0.59529   0.72343   0.99200   0.00000  Uiso   1.00
H52    H     0.55446   0.71235   0.99101   0.00000  Uiso   1.00
N53    N     0.38634   0.30966   0.01213   0.00000  Uiso   1.00
N54    N     0.58065   0.88941   0.97333   0.00000  Uiso   1.00
C55    C     0.41896   0.36197   0.01202   0.00000  Uiso   1.00
C56    C     0.47236   0.38464   0.01314   0.00000  Uiso   1.00
C57    C     0.39662   0.39415   0.01025   0.00000  Uiso   1.00
C58    C     0.50229   0.43747   0.01210   0.00000  Uiso   1.00
H59    H     0.49124   0.36126   0.01479   0.00000  Uiso   1.00
C60    C     0.42689   0.44701   0.00938   0.00000  Uiso   1.00
C61    C     0.48075   0.47002   0.01005   0.00000  Uiso   1.00
H62    H     0.54373   0.45290   0.01301   0.00000  Uiso   1.00
H63    H     0.40847   0.47076   0.00797   0.00000  Uiso   1.00
C64    C     0.51297   0.52600   0.00801   0.00000  Uiso   1.00
C65    C     0.49175   0.55882   0.00605   0.00000  Uiso   1.00
C66    C     0.56679   0.54881   0.00742   0.00000  Uiso   1.00
C67    C     0.52197   0.61161   0.00267   0.00000  Uiso   1.00
H68    H     0.45030   0.54357   0.00692   0.00000  Uiso   1.00
C69    C     0.59721   0.60156   0.00440   0.00000  Uiso   1.00
H70    H     0.58505   0.52493   0.00902   0.00000  Uiso   1.00
C71    C     0.57539   0.63413   0.00139   0.00000  Uiso   1.00
H72    H     0.50330   0.63520   0.00101   0.00000  Uiso   1.00
C73    C     0.56074   0.92255   0.97150   0.00000  Uiso   1.00
C74    C     0.59011   0.97591   0.96823   0.00000  Uiso   1.00
C75    C     0.50691   0.90071   0.97338   0.00000  Uiso   1.00
C76    C     0.56661   0.00614   0.96754   0.00000  Uiso   1.00
H77    H     0.63187   0.99455   0.96595   0.00000  Uiso   1.00
C78    C     0.48369   0.93115   0.97319   0.00000  Uiso   1.00
C79    C     0.51314   0.98493   0.97041   0.00000  Uiso   1.00
H80    H     0.59152   0.04750   0.96411   0.00000  Uiso   1.00
H81    H     0.44200   0.91282   0.97609   0.00000  Uiso   1.00
C82    C     0.48808   0.01682   0.97141   0.00000  Uiso   1.00
C83    C     0.43455   0.99501   0.96547   0.00000  Uiso   1.00
C84    C     0.51692   0.07055   0.97918   0.00000  Uiso   1.00
C85    C     0.41039   0.02458   0.97077   0.00000  Uiso   1.00
H86    H     0.40994   0.95363   0.95653   0.00000  Uiso   1.00
C87    C     0.49305   0.10044   0.98290   0.00000  Uiso   1.00
H88    H     0.55856   0.08910   0.98363   0.00000  Uiso   1.00
C89    C     0.43904   0.07788   0.98104   0.00000  Uiso   1.00
H90    H     0.36862   0.00541   0.96657   0.00000  Uiso   1.00
N91    N     0.60832   0.68642   0.99727   0.00000  Uiso   1.00
N92    N     0.41761   0.10983   0.98910   0.00000  Uiso   1.00
O93    O     0.13252   0.98203   0.00342   0.00000  Uiso   1.00
O94    O     0.85971   0.01472   0.98658   0.00000  Uiso   1.00
O95    O     0.48048   0.84746   0.97605   0.00000  Uiso   1.00
O96    O     0.51894   0.15356   0.98987   0.00000  Uiso   1.00
O97    O     0.34363   0.36837   0.00952   0.00000  Uiso   1.00
O98    O     0.65070   0.62697   0.00352   0.00000  Uiso   1.00
H99    H     0.34697   0.29682   0.01226   0.00000  Uiso   1.00
H100   H     0.55483   0.85024   0.97474   0.00000  Uiso   1.00
H101   H     0.44259   0.14927   0.99334   0.00000  Uiso   1.00
H102   H     0.64765   0.69914   0.99749   0.00000  Uiso   1.00
C103   C     0.42566   0.82202   0.97561   0.00000  Uiso   1.00
H104   H     0.41028   0.83139   0.11059   0.00000  Uiso   1.00
H105   H     0.41049   0.83119   0.83971   0.00000  Uiso   1.00
H106   H     0.41270   0.78093   0.97625   0.00000  Uiso   1.00
C107   C     0.57392   0.17932   0.98616   0.00000  Uiso   1.00
H108   H     0.58981   0.16998   0.11895   0.00000  Uiso   1.00
H109   H     0.58869   0.17013   0.84951   0.00000  Uiso   1.00
H110   H     0.58660   0.22036   0.98730   0.00000  Uiso   1.00
C111   C     0.88466   0.06960   0.98827   0.00000  Uiso   1.00
H112   H     0.90806   0.08555   0.12412   0.00000  Uiso   1.00
H113   H     0.90906   0.08611   0.85504   0.00000  Uiso   1.00
H114   H     0.85426   0.07998   0.98690   0.00000  Uiso   1.00
C115   C     0.10495   0.92720   0.99923   0.00000  Uiso   1.00
H116   H     0.08010   0.91126   0.13240   0.00000  Uiso   1.00
H117   H     0.08173   0.91259   0.86146   0.00000  Uiso   1.00
H118   H     0.13371   0.91451   0.00066   0.00000  Uiso   1.00
C119   C     0.31762   0.39785   0.00111   0.00000  Uiso   1.00
H120   H     0.32589   0.42257   0.13457   0.00000  Uiso   1.00
H121   H     0.32756   0.42139   0.86366   0.00000  Uiso   1.00
H122   H     0.27659   0.37047   0.99859   0.00000  Uiso   1.00
C123   C     0.67574   0.59652   0.01086   0.00000  Uiso   1.00
H124   H     0.66585   0.57315   0.14888   0.00000  Uiso   1.00
H125   H     0.66665   0.57150   0.87786   0.00000  Uiso   1.00
H126   H     0.71699   0.62323   0.01149   0.00000  Uiso   1.00
C127   C     0.07425   0.10321   0.49605   0.00000  Uiso   1.00
C128   C     0.10091   0.07517   0.49943   0.00000  Uiso   1.00
C129   C     0.15407   0.10011   0.50286   0.00000  Uiso   1.00
C130   C     0.18292   0.15415   0.50333   0.00000  Uiso   1.00
C131   C     0.15657   0.18198   0.49922   0.00000  Uiso   1.00
C132   C     0.10348   0.15680   0.49558   0.00000  Uiso   1.00
C133   C     0.01795   0.07749   0.49324   0.00000  Uiso   1.00
C134   C     0.98772   0.02402   0.49188   0.00000  Uiso   1.00
C135   C     0.93462   0.99999   0.48963   0.00000  Uiso   1.00
C136   C     0.90913   0.02878   0.48850   0.00000  Uiso   1.00
C137   C     0.93918   0.08262   0.48958   0.00000  Uiso   1.00
C138   C     0.99217   0.10637   0.49202   0.00000  Uiso   1.00
H139   H     0.07983   0.03350   0.49978   0.00000  Uiso   1.00
H140   H     0.17730   0.22372   0.49873   0.00000  Uiso   1.00
H141   H     0.08517   0.18070   0.49224   0.00000  Uiso   1.00
H142   H     0.00538   0.99952   0.49246   0.00000  Uiso   1.00
H143   H     0.91312   0.95827   0.48863   0.00000  Uiso   1.00
H144   H     0.01379   0.14799   0.49311   0.00000  Uiso   1.00
N145   N     0.23566   0.17588   0.50734   0.00000  Uiso   1.00
N146   N     0.85649   0.00846   0.48608   0.00000  Uiso   1.00
C147   C     0.82066   0.95894   0.48558   0.00000  Uiso   1.00
H148   H     0.83310   0.92989   0.48791   0.00000  Uiso   1.00
C149   C     0.27063   0.22560   0.50891   0.00000  Uiso   1.00
H150   H     0.25759   0.25415   0.50823   0.00000  Uiso   1.00
C151   C     0.32269   0.24201   0.51088   0.00000  Uiso   1.00
C152   C     0.34199   0.20541   0.51029   0.00000  Uiso   1.00
C153   C     0.35764   0.29728   0.51181   0.00000  Uiso   1.00
C154   C     0.39740   0.22494   0.50801   0.00000  Uiso   1.00
C155   C     0.41298   0.31542   0.51142   0.00000  Uiso   1.00
C156   C     0.43364   0.27976   0.50894   0.00000  Uiso   1.00
C157   C     0.76882   0.94303   0.48237   0.00000  Uiso   1.00
C158   C     0.74911   0.97940   0.47884   0.00000  Uiso   1.00
C159   C     0.73432   0.88759   0.48321   0.00000  Uiso   1.00
C160   C     0.69336   0.95906   0.47533   0.00000  Uiso   1.00
C161   C     0.67906   0.86888   0.48077   0.00000  Uiso   1.00
C162   C     0.65790   0.90393   0.47653   0.00000  Uiso   1.00
O163   O     0.31279   0.15840   0.51092   0.00000  Uiso   1.00
O164   O     0.34069   0.32789   0.51273   0.00000  Uiso   1.00
O165   O     0.48070   0.29653   0.50723   0.00000  Uiso   1.00
O166   O     0.61070   0.88667   0.47439   0.00000  Uiso   1.00
O167   O     0.77834   0.02633   0.47878   0.00000  Uiso   1.00
O168   O     0.75226   0.85784   0.48619   0.00000  Uiso   1.00
H169   H     0.25077   0.15076   0.50842   0.00000  Uiso   1.00
H170   H     0.84205   0.03406   0.48428   0.00000  Uiso   1.00
C171   C     0.44853   0.36694   0.51148   0.00000  Uiso   1.00
H172   H     0.48934   0.37790   0.51081   0.00000  Uiso   1.00
C173   C     0.41322   0.18849   0.50316   0.00000  Uiso   1.00
H174   H     0.38390   0.14796   0.50237   0.00000  Uiso   1.00
C175   C     0.67568   0.99407   0.47195   0.00000  Uiso   1.00
H176   H     0.70382   0.03500   0.47202   0.00000  Uiso   1.00
C177   C     0.64395   0.81719   0.48346   0.00000  Uiso   1.00
H178   H     0.60305   0.80578   0.48202   0.00000  Uiso   1.00
N179   N     0.43564   0.40406   0.51187   0.00000  Uiso   1.00
N180   N     0.62566   0.98029   0.46885   0.00000  Uiso   1.00
C181   C     0.46865   0.45634   0.51053   0.00000  Uiso   1.00
C182   C     0.52207   0.47881   0.51062   0.00000  Uiso   1.00
C183   C     0.44689   0.48896   0.50852   0.00000  Uiso   1.00
C184   C     0.55235   0.53160   0.50840   0.00000  Uiso   1.00
H185   H     0.54069   0.45517   0.51223   0.00000  Uiso   1.00
C186   C     0.47736   0.54170   0.50669   0.00000  Uiso   1.00
C187   C     0.53118   0.56447   0.50629   0.00000  Uiso   1.00
H188   H     0.59379   0.54681   0.50833   0.00000  Uiso   1.00
H189   H     0.45914   0.56562   0.50544   0.00000  Uiso   1.00
C190   C     0.56341   0.62043   0.50286   0.00000  Uiso   1.00
C191   C     0.54183   0.65295   0.49948   0.00000  Uiso   1.00
C192   C     0.61727   0.64348   0.50211   0.00000  Uiso   1.00
C193   C     0.57171   0.70576   0.49443   0.00000  Uiso   1.00
H194   H     0.50038   0.63751   0.50055   0.00000  Uiso   1.00
C195   C     0.64750   0.69634   0.49735   0.00000  Uiso   1.00
H196   H     0.63571   0.61976   0.50494   0.00000  Uiso   1.00
C197   C     0.62511   0.72847   0.49279   0.00000  Uiso   1.00
H198   H     0.55279   0.72910   0.49214   0.00000  Uiso   1.00
C199   C     0.60418   0.01223   0.46838   0.00000  Uiso   1.00
C200   C     0.63283   0.06560   0.46668   0.00000  Uiso   1.00
C201   C     0.55017   0.98965   0.47050   0.00000  Uiso   1.00
C202   C     0.60867   0.09518   0.46913   0.00000  Uiso   1.00
H203   H     0.67461   0.08483   0.46381   0.00000  Uiso   1.00
C204   C     0.52630   0.01954   0.47319   0.00000  Uiso   1.00
C205   C     0.55513   0.07331   0.47370   0.00000  Uiso   1.00
H206   H     0.63330   0.13662   0.46764   0.00000  Uiso   1.00
H207   H     0.48464   0.00094   0.47608   0.00000  Uiso   1.00
C208   C     0.53006   0.10518   0.47927   0.00000  Uiso   1.00
C209   C     0.47659   0.08398   0.47952   0.00000  Uiso   1.00
C210   C     0.55952   0.15895   0.48494   0.00000  Uiso   1.00
C211   C     0.45309   0.11419   0.48573   0.00000  Uiso   1.00
H212   H     0.45166   0.04263   0.47456   0.00000  Uiso   1.00
C213   C     0.53631   0.18937   0.49033   0.00000  Uiso   1.00
H214   H     0.60122   0.17729   0.48521   0.00000  Uiso   1.00
C215   C     0.48248   0.16754   0.49177   0.00000  Uiso   1.00
H216   H     0.41133   0.09557   0.48578   0.00000  Uiso   1.00
N217   N     0.65766   0.78078   0.48803   0.00000  Uiso   1.00
N218   N     0.46262   0.20069   0.49882   0.00000  Uiso   1.00
O219   O     0.18376   0.07605   0.50676   0.00000  Uiso   1.00
O220   O     0.91096   0.10875   0.48811   0.00000  Uiso   1.00
O221   O     0.52429   0.93650   0.47074   0.00000  Uiso   1.00
O222   O     0.56275   0.24261   0.49624   0.00000  Uiso   1.00
O223   O     0.39340   0.46362   0.50852   0.00000  Uiso   1.00
O224   O     0.70049   0.72215   0.49559   0.00000  Uiso   1.00
H225   H     0.39632   0.39143   0.51196   0.00000  Uiso   1.00
H226   H     0.60073   0.94081   0.46959   0.00000  Uiso   1.00
H227   H     0.48847   0.23985   0.50029   0.00000  Uiso   1.00
H228   H     0.69704   0.79371   0.48884   0.00000  Uiso   1.00
C229   C     0.46931   0.91076   0.47310   0.00000  Uiso   1.00
H230   H     0.45431   0.92002   0.60895   0.00000  Uiso   1.00
H231   H     0.45365   0.92004   0.33946   0.00000  Uiso   1.00
H232   H     0.45661   0.86972   0.47269   0.00000  Uiso   1.00
C233   C     0.61754   0.26809   0.48851   0.00000  Uiso   1.00
H234   H     0.63400   0.25858   0.61956   0.00000  Uiso   1.00
H235   H     0.63162   0.25911   0.34896   0.00000  Uiso   1.00
H236   H     0.63048   0.30918   0.49129   0.00000  Uiso   1.00
C237   C     0.93851   0.16359   0.48820   0.00000  Uiso   1.00
H238   H     0.96227   0.17888   0.62430   0.00000  Uiso   1.00
H239   H     0.96282   0.17889   0.35329   0.00000  Uiso   1.00
H240   H     0.90973   0.17625   0.48701   0.00000  Uiso   1.00
C241   C     0.15878   0.02118   0.50284   0.00000  Uiso   1.00
H242   H     0.13364   0.00430   0.63393   0.00000  Uiso   1.00
H243   H     0.13615   0.00565   0.36500   0.00000  Uiso   1.00
H244   H     0.18915   0.01076   0.50677   0.00000  Uiso   1.00
C245   C     0.36846   0.49415   0.50071   0.00000  Uiso   1.00
H246   H     0.37731   0.51899   0.63414   0.00000  Uiso   1.00
H247   H     0.37866   0.51771   0.36315   0.00000  Uiso   1.00
H248   H     0.32719   0.46749   0.49872   0.00000  Uiso   1.00
C249   C     0.72655   0.69282   0.51158   0.00000  Uiso   1.00
H250   H     0.71685   0.67076   0.65283   0.00000  Uiso   1.00
H251   H     0.71811   0.66671   0.38254   0.00000  Uiso   1.00
H252   H     0.76758   0.72024   0.51152   0.00000  Uiso   1.00
loop_
_geom_bond_atom_site_label_1
_geom_bond_atom_site_label_2
_geom_bond_distance
_geom_bond_site_symmetry_2
_ccdc_geom_bond_type
C1     C2      1.418   1_545 D
C1     C6      1.429   .     S
C1     C7      1.490   1_445 S
C2     C1      1.418   1_565 D
C2     C3      1.403   1_566 S
C2     H13     1.108   .     S
C3     C2      1.403   1_544 S
C3     C4      1.438   .     D
C3     O93     1.409   1_545 S
C4     C5      1.408   1_554 S
C4     N19     1.400   .     S
C5     C4      1.408   1_556 S
C5     C6      1.406   .     D
C5     H14     1.111   .     S
C6     H15     1.098   .     S
C7     C1      1.490   1_665 S
C7     C8      1.430   .     D
C7     C12     1.418   1_565 S
C8     C9      1.405   .     S
C8     H16     1.099   .     S
C9     C10     1.405   .     D
C9     H17     1.111   .     S
C10    C11     1.441   .     S
C10    N20     1.399   .     S
C11    C12     1.407   1_565 D
C11    O94     1.396   1_565 S
C12    C11     1.407   1_545 D
C12    C7      1.418   1_545 S
C12    H18     1.109   .     S
N19    C23     1.367   .     S
N19    H43     1.053   .     S
N20    C21     1.365   .     S
N20    H44     1.055   .     S
C21    H22     1.105   .     S
C21    C31     1.400   .     D
C23    H24     1.107   .     S
C23    C25     1.397   .     D
C25    C26     1.478   .     S
C25    C27     1.494   .     S
C26    C28     1.487   .     S
C26    O37     1.265   .     D
C27    C29     1.479   .     S
C27    O38     1.251   .     D
C28    C30     1.492   .     S
C28    C47     1.394   1_554 D
C29    C30     1.474   .     S
C29    C45     1.410   .     D
C30    O39     1.258   .     D
C31    C32     1.475   .     S
C31    C33     1.492   .     S
C32    C34     1.480   .     S
C32    O41     1.267   .     D
C33    C35     1.485   .     S
C33    O42     1.251   .     D
C34    C36     1.489   .     S
C34    C49     1.394   .     D
C35    C36     1.480   .     S
C35    C51     1.409   .     D
C36    O40     1.256   .     D
C45    H46     1.109   .     S
C45    N53     1.348   .     S
C47    C28     1.394   1_556 D
C47    H48     1.119   .     S
C47    N92     1.357   .     S
C49    H50     1.119   .     S
C49    N54     1.350   .     S
C51    H52     1.109   .     S
C51    N91     1.351   .     S
N53    C55     1.410   .     S
N53    H99     1.056   .     S
N54    C73     1.391   .     S
N54    H100    1.063   .     S
C55    C56     1.415   .     D
C55    C57     1.422   .     S
C56    C58     1.412   .     S
C56    H59     1.098   .     S
C57    C60     1.414   .     D
C57    O97     1.402   .     S
C58    C61     1.413   .     D
C58    H62     1.104   .     S
C60    C61     1.427   .     S
C60    H63     1.097   .     S
C61    C64     1.498   .     S
C64    C65     1.413   .     S
C64    C66     1.426   .     D
C65    C67     1.412   .     D
C65    H68     1.105   .     S
C66    C69     1.412   .     S
C66    H70     1.096   .     S
C67    C71     1.416   .     S
C67    H72     1.099   .     S
C69    C71     1.421   .     D
C69    O98     1.415   .     S
C71    N91     1.411   1_554 S
C73    C74     1.424   .     D
C73    C75     1.429   .     S
C74    C76     1.397   1_565 S
C74    H77     1.105   .     S
C75    C78     1.396   .     D
C75    O95     1.417   .     S
C76    C74     1.397   1_545 S
C76    C79     1.420   1_545 D
C76    H80     1.111   .     S
C78    C79     1.435   .     S
C78    H81     1.104   .     S
C79    C76     1.420   1_565 D
C79    C82     1.481   1_565 S
C82    C79     1.481   1_545 S
C82    C83     1.421   1_545 D
C82    C84     1.434   .     S
C83    C82     1.421   1_565 D
C83    C85     1.396   1_565 S
C83    H86     1.112   .     S
C84    C87     1.398   .     D
C84    H88     1.103   .     S
C85    C83     1.396   1_545 S
C85    C89     1.423   .     D
C85    H90     1.106   .     S
C87    C89     1.432   .     S
C87    O96     1.414   .     S
C89    N92     1.395   .     S
N91    C71     1.411   1_556 S
N91    H102    1.056   .     S
N92    H101    1.066   .     S
O93    C3      1.409   1_565 S
O93    C115    1.460   1_554 S
O94    C11     1.396   1_545 S
O94    C111    1.461   .     S
O95    C103    1.451   .     S
O96    C107    1.455   .     S
O97    C119    1.441   .     S
O98    C123    1.442   .     S
C103   H104    1.116   1_556 S
C103   H105    1.113   .     S
C103   H106    1.112   .     S
H104   C103    1.116   1_554 S
C107   H108    1.110   1_556 S
C107   H109    1.113   .     S
C107   H110    1.112   .     S
H108   C107    1.110   1_554 S
C111   H112    1.116   1_556 S
C111   H113    1.112   .     S
C111   H114    1.100   .     S
H112   C111    1.116   1_554 S
C115   O93     1.460   1_556 S
C115   H116    1.115   1_556 S
C115   H117    1.119   .     S
C115   H118    1.101   1_556 S
H116   C115    1.115   1_554 S
H118   C115    1.101   1_554 S
C119   H120    1.121   .     S
C119   H121    1.114   1_554 S
C119   H122    1.112   1_554 S
H121   C119    1.114   1_556 S
H122   C119    1.112   1_556 S
C123   H124    1.114   .     S
C123   H125    1.122   1_554 S
C123   H126    1.113   .     S
H125   C123    1.122   1_556 S
C127   C128    1.418   .     D
C127   C132    1.430   .     S
C127   C133    1.490   .     S
C128   C129    1.407   .     S
C128   H139    1.109   .     S
C129   C130    1.440   .     D
C129   O219    1.396   .     S
C130   C131    1.405   .     S
C130   N145    1.399   .     S
C131   C132    1.405   .     D
C131   H140    1.111   .     S
C132   H141    1.098   .     S
C133   C134    1.429   1_455 D
C133   C138    1.418   1_455 S
C134   C133    1.429   1_655 D
C134   C135    1.405   1_545 S
C134   H142    1.099   1_645 S
C135   C134    1.405   1_565 S
C135   C136    1.408   1_565 D
C135   H143    1.111   .     S
C136   C135    1.408   1_545 D
C136   C137    1.438   .     S
C136   N146    1.400   .     S
C137   C138    1.403   .     D
C137   O220    1.409   .     S
C138   C133    1.418   1_655 S
C138   H144    1.108   1_655 S
H142   C134    1.099   1_465 S
H144   C138    1.108   1_455 S
N145   C149    1.365   .     S
N145   H169    1.055   .     S
N146   C147    1.367   1_545 S
N146   H170    1.053   .     S
C147   N146    1.367   1_565 S
C147   H148    1.107   .     S
C147   C157    1.397   .     D
C149   H150    1.106   .     S
C149   C151    1.400   .     D
C151   C152    1.475   .     S
C151   C153    1.492   .     S
C152   C154    1.480   .     S
C152   O163    1.267   .     D
C153   C155    1.484   .     S
C153   O164    1.252   .     D
C154   C156    1.489   .     S
C154   C173    1.394   .     D
C155   C156    1.480   .     S
C155   C171    1.409   .     D
C156   O165    1.256   .     D
C157   C158    1.478   .     S
C157   C159    1.494   .     S
C158   C160    1.487   .     S
C158   O167    1.265   1_565 D
C159   C161    1.480   .     S
C159   O168    1.251   .     D
C160   C162    1.492   .     S
C160   C175    1.393   .     D
C161   C162    1.474   .     S
C161   C177    1.410   .     D
C162   O166    1.258   .     D
O167   C158    1.265   1_545 D
C171   H172    1.109   .     S
C171   N179    1.351   .     S
C173   H174    1.119   .     S
C173   N218    1.350   .     S
C175   H176    1.119   1_565 S
C175   N180    1.357   .     S
H176   C175    1.119   1_545 S
C177   H178    1.109   .     S
C177   N217    1.348   .     S
N179   C181    1.411   .     S
N179   H225    1.056   .     S
N180   C199    1.395   1_565 S
N180   H226    1.066   .     S
C181   C182    1.416   .     D
C181   C183    1.421   .     S
C182   C184    1.412   .     S
C182   H185    1.099   .     S
C183   C186    1.412   .     D
C183   O223    1.415   .     S
C184   C187    1.414   .     D
C184   H188    1.105   .     S
C186   C187    1.426   .     S
C186   H189    1.096   .     S
C187   C190    1.498   .     S
C190   C191    1.414   .     S
C190   C192    1.427   .     D
C191   C193    1.412   .     D
C191   H194    1.104   .     S
C192   C195    1.414   .     S
C192   H196    1.096   .     S
C193   C197    1.415   .     S
C193   H198    1.098   .     S
C195   C197    1.422   .     D
C195   O224    1.402   .     S
C197   N217    1.410   .     S
C199   N180    1.395   1_545 S
C199   C200    1.423   .     D
C199   C201    1.432   1_545 S
C200   C202    1.396   .     S
C200   H203    1.106   .     S
C201   C199    1.432   1_565 S
C201   C204    1.397   1_565 D
C201   O221    1.414   .     S
C202   C205    1.421   .     D
C202   H206    1.112   .     S
C204   C201    1.397   1_545 D
C204   C205    1.433   .     S
C204   H207    1.103   .     S
C205   C208    1.481   .     S
C208   C209    1.420   .     D
C208   C210    1.436   .     S
C209   C211    1.397   .     S
C209   H212    1.112   .     S
C210   C213    1.396   .     D
C210   H214    1.104   .     S
C211   C215    1.425   .     D
C211   H216    1.105   .     S
C213   C215    1.429   .     S
C213   O222    1.417   .     S
C215   N218    1.392   .     S
N217   H228    1.056   .     S
N218   H227    1.064   .     S
O219   C241    1.461   .     S
O220   C237    1.459   .     S
O221   C229    1.455   .     S
O222   C233    1.450   .     S
O223   C245    1.442   .     S
O224   C249    1.441   .     S
C229   H230    1.113   .     S
C229   H231    1.110   .     S
C229   H232    1.112   .     S
C233   H234    1.113   .     S
C233   H235    1.116   .     S
C233   H236    1.112   .     S
C237   H238    1.119   .     S
C237   H239    1.115   .     S
C237   H240    1.101   .     S
C241   H242    1.112   .     S
C241   H243    1.116   .     S
C241   H244    1.100   .     S
C245   H246    1.122   .     S
C245   H247    1.114   .     S
C245   H248    1.113   .     S
C249   H250    1.113   .     S
C249   H251    1.122   .     S
C249   H252    1.112   .     S
