data_529
_audit_creation_date              2023-09-08
_audit_creation_method            'Materials Studio'
_symmetry_space_group_name_H-M    'P1'
_symmetry_Int_Tables_number       1
_symmetry_cell_setting            triclinic
loop_
_symmetry_equiv_pos_as_xyz
  x,y,z
_cell_length_a                    27.5000
_cell_length_b                    27.5000
_cell_length_c                    6.8000
_cell_angle_alpha                 90.0000
_cell_angle_beta                  90.0000
_cell_angle_gamma                 120.0000
loop_
_atom_site_label
_atom_site_type_symbol
_atom_site_fract_x
_atom_site_fract_y
_atom_site_fract_z
_atom_site_U_iso_or_equiv
_atom_site_adp_type
_atom_site_occupancy
C1     C     0.36415   0.64415   0.23756   0.00000  Uiso   1.00
C2     C     0.38904   0.69786   0.23644   0.00000  Uiso   1.00
O3     O     0.44360   0.72938   0.23513   0.00000  Uiso   1.00
C4     C     0.39804   0.62389   0.23703   0.00000  Uiso   1.00
N5     N     0.37778   0.56975   0.23805   0.00000  Uiso   1.00
N6     N     0.61501   0.42795   0.23441   0.00000  Uiso   1.00
C7     C     0.63410   0.35748   0.23495   0.00000  Uiso   1.00
C8     C     0.59740   0.37771   0.23583   0.00000  Uiso   1.00
C9     C     0.60839   0.29941   0.23592   0.00000  Uiso   1.00
O10    O     0.55424   0.26552   0.23746   0.00000  Uiso   1.00
H11    H     0.66124   0.45468   0.26084   0.00000  Uiso   1.00
H12    H     0.34596   0.54762   0.26670   0.00000  Uiso   1.00
H13    H     0.44533   0.65128   0.26344   0.00000  Uiso   1.00
H14    H     0.56453   0.35492   0.26369   0.00000  Uiso   1.00
N15    N     0.50836   0.44813   0.76264   0.00000  Uiso   1.00
C16    C     0.59312   0.45351   0.76496   0.00000  Uiso   1.00
N17    N     0.44360   0.48701   0.77285   0.00000  Uiso   1.00
C18    C     0.53787   0.42485   0.76195   0.00000  Uiso   1.00
C19    C     0.42183   0.55632   0.76466   0.00000  Uiso   1.00
C20    C     0.51218   0.57682   0.76438   0.00000  Uiso   1.00
C21    C     0.58676   0.53225   0.76969   0.00000  Uiso   1.00
C22    C     0.47561   0.59321   0.75977   0.00000  Uiso   1.00
C23    C     0.61719   0.50860   0.76716   0.00000  Uiso   1.00
C24    C     0.53180   0.50168   0.76795   0.00000  Uiso   1.00
C25    C     0.49599   0.52314   0.76967   0.00000  Uiso   1.00
C26    C     0.40733   0.50256   0.77112   0.00000  Uiso   1.00
H27    H     0.60303   0.56918   0.77250   0.00000  Uiso   1.00
H28    H     0.65412   0.52940   0.76694   0.00000  Uiso   1.00
H29    H     0.37140   0.47690   0.77432   0.00000  Uiso   1.00
H30    H     0.48689   0.62934   0.75342   0.00000  Uiso   1.00
H31    H     0.54831   0.60189   0.76397   0.00000  Uiso   1.00
H32    H     0.51790   0.37957   0.74121   0.00000  Uiso   1.00
C33    C     0.35585   0.72000   0.23756   0.00000  Uiso   1.00
C34    C     0.30214   0.69118   0.23644   0.00000  Uiso   1.00
O35    O     0.27062   0.71422   0.23513   0.00000  Uiso   1.00
C36    C     0.37611   0.77415   0.23703   0.00000  Uiso   1.00
N37    N     0.43025   0.80803   0.23805   0.00000  Uiso   1.00
N38    N     0.57205   0.18706   0.23441   0.00000  Uiso   1.00
C39    C     0.64252   0.27662   0.23495   0.00000  Uiso   1.00
C40    C     0.62229   0.21969   0.23583   0.00000  Uiso   1.00
C41    C     0.70059   0.30898   0.23592   0.00000  Uiso   1.00
O42    O     0.73448   0.28872   0.23746   0.00000  Uiso   1.00
H43    H     0.54532   0.20656   0.26084   0.00000  Uiso   1.00
H44    H     0.45238   0.79834   0.26670   0.00000  Uiso   1.00
H45    H     0.34872   0.79405   0.26344   0.00000  Uiso   1.00
H46    H     0.64508   0.20961   0.26369   0.00000  Uiso   1.00
N47    N     0.55187   0.06023   0.76264   0.00000  Uiso   1.00
C48    C     0.54649   0.13961   0.76496   0.00000  Uiso   1.00
N49    N     0.51299   0.95659   0.77285   0.00000  Uiso   1.00
C50    C     0.57515   0.11302   0.76195   0.00000  Uiso   1.00
C51    C     0.44368   0.86551   0.76466   0.00000  Uiso   1.00
C52    C     0.42318   0.93536   0.76438   0.00000  Uiso   1.00
C53    C     0.46775   0.05451   0.76969   0.00000  Uiso   1.00
C54    C     0.40679   0.88240   0.75977   0.00000  Uiso   1.00
C55    C     0.49140   0.10859   0.76716   0.00000  Uiso   1.00
C56    C     0.49832   0.03012   0.76795   0.00000  Uiso   1.00
C57    C     0.47686   0.97285   0.76967   0.00000  Uiso   1.00
C58    C     0.49744   0.90477   0.77112   0.00000  Uiso   1.00
H59    H     0.43082   0.03385   0.77250   0.00000  Uiso   1.00
H60    H     0.47060   0.12472   0.76694   0.00000  Uiso   1.00
H61    H     0.52310   0.89450   0.77432   0.00000  Uiso   1.00
H62    H     0.37066   0.85755   0.75342   0.00000  Uiso   1.00
H63    H     0.39811   0.94642   0.76397   0.00000  Uiso   1.00
H64    H     0.62043   0.13833   0.74121   0.00000  Uiso   1.00
C65    C     0.28000   0.63585   0.23756   0.00000  Uiso   1.00
C66    C     0.30882   0.61096   0.23644   0.00000  Uiso   1.00
O67    O     0.28578   0.55640   0.23513   0.00000  Uiso   1.00
C68    C     0.22585   0.60196   0.23703   0.00000  Uiso   1.00
N69    N     0.19197   0.62222   0.23805   0.00000  Uiso   1.00
N70    N     0.81294   0.38499   0.23441   0.00000  Uiso   1.00
C71    C     0.72338   0.36590   0.23495   0.00000  Uiso   1.00
C72    C     0.78031   0.40260   0.23583   0.00000  Uiso   1.00
C73    C     0.69102   0.39161   0.23592   0.00000  Uiso   1.00
O74    O     0.71128   0.44576   0.23746   0.00000  Uiso   1.00
H75    H     0.79344   0.33876   0.26084   0.00000  Uiso   1.00
H76    H     0.20166   0.65404   0.26670   0.00000  Uiso   1.00
H77    H     0.20595   0.55467   0.26344   0.00000  Uiso   1.00
H78    H     0.79039   0.43547   0.26369   0.00000  Uiso   1.00
N79    N     0.93977   0.49164   0.76264   0.00000  Uiso   1.00
C80    C     0.86039   0.40688   0.76496   0.00000  Uiso   1.00
N81    N     0.04341   0.55640   0.77285   0.00000  Uiso   1.00
C82    C     0.88698   0.46213   0.76195   0.00000  Uiso   1.00
C83    C     0.13449   0.57817   0.76466   0.00000  Uiso   1.00
C84    C     0.06464   0.48782   0.76438   0.00000  Uiso   1.00
C85    C     0.94549   0.41324   0.76969   0.00000  Uiso   1.00
C86    C     0.11760   0.52439   0.75977   0.00000  Uiso   1.00
C87    C     0.89141   0.38281   0.76716   0.00000  Uiso   1.00
C88    C     0.96988   0.46820   0.76795   0.00000  Uiso   1.00
C89    C     0.02715   0.50401   0.76967   0.00000  Uiso   1.00
C90    C     0.09523   0.59267   0.77112   0.00000  Uiso   1.00
H91    H     0.96615   0.39697   0.77250   0.00000  Uiso   1.00
H92    H     0.87528   0.34588   0.76694   0.00000  Uiso   1.00
H93    H     0.10550   0.62860   0.77432   0.00000  Uiso   1.00
H94    H     0.14245   0.51311   0.75342   0.00000  Uiso   1.00
H95    H     0.05358   0.45169   0.76397   0.00000  Uiso   1.00
H96    H     0.86167   0.48210   0.74121   0.00000  Uiso   1.00
C97    C     0.63585   0.35585   0.73756   0.00000  Uiso   1.00
C98    C     0.61096   0.30214   0.73644   0.00000  Uiso   1.00
O99    O     0.55640   0.27062   0.73513   0.00000  Uiso   1.00
C100   C     0.60196   0.37611   0.73703   0.00000  Uiso   1.00
N101   N     0.62222   0.43025   0.73805   0.00000  Uiso   1.00
N102   N     0.38499   0.57205   0.73441   0.00000  Uiso   1.00
C103   C     0.36590   0.64252   0.73495   0.00000  Uiso   1.00
C104   C     0.40260   0.62229   0.73583   0.00000  Uiso   1.00
C105   C     0.39161   0.70059   0.73592   0.00000  Uiso   1.00
O106   O     0.44576   0.73448   0.73746   0.00000  Uiso   1.00
H107   H     0.33876   0.54532   0.76084   0.00000  Uiso   1.00
H108   H     0.65404   0.45238   0.76670   0.00000  Uiso   1.00
H109   H     0.55467   0.34872   0.76344   0.00000  Uiso   1.00
H110   H     0.43547   0.64508   0.76369   0.00000  Uiso   1.00
N111   N     0.49164   0.55187   0.26264   0.00000  Uiso   1.00
C112   C     0.40688   0.54649   0.26496   0.00000  Uiso   1.00
N113   N     0.55640   0.51299   0.27285   0.00000  Uiso   1.00
C114   C     0.46213   0.57515   0.26195   0.00000  Uiso   1.00
C115   C     0.57817   0.44368   0.26466   0.00000  Uiso   1.00
C116   C     0.48782   0.42318   0.26438   0.00000  Uiso   1.00
C117   C     0.41324   0.46775   0.26969   0.00000  Uiso   1.00
C118   C     0.52439   0.40679   0.25977   0.00000  Uiso   1.00
C119   C     0.38281   0.49140   0.26716   0.00000  Uiso   1.00
C120   C     0.46820   0.49832   0.26795   0.00000  Uiso   1.00
C121   C     0.50401   0.47686   0.26967   0.00000  Uiso   1.00
C122   C     0.59267   0.49744   0.27112   0.00000  Uiso   1.00
H123   H     0.39697   0.43082   0.27250   0.00000  Uiso   1.00
H124   H     0.34588   0.47060   0.26694   0.00000  Uiso   1.00
H125   H     0.62860   0.52310   0.27432   0.00000  Uiso   1.00
H126   H     0.51311   0.37066   0.25342   0.00000  Uiso   1.00
H127   H     0.45169   0.39811   0.26397   0.00000  Uiso   1.00
H128   H     0.48210   0.62043   0.24121   0.00000  Uiso   1.00
C129   C     0.64415   0.28000   0.73756   0.00000  Uiso   1.00
C130   C     0.69786   0.30882   0.73644   0.00000  Uiso   1.00
O131   O     0.72938   0.28578   0.73513   0.00000  Uiso   1.00
C132   C     0.62389   0.22585   0.73703   0.00000  Uiso   1.00
N133   N     0.56975   0.19197   0.73805   0.00000  Uiso   1.00
N134   N     0.42795   0.81294   0.73441   0.00000  Uiso   1.00
C135   C     0.35748   0.72338   0.73495   0.00000  Uiso   1.00
C136   C     0.37771   0.78031   0.73583   0.00000  Uiso   1.00
C137   C     0.29941   0.69102   0.73592   0.00000  Uiso   1.00
O138   O     0.26552   0.71128   0.73746   0.00000  Uiso   1.00
H139   H     0.45468   0.79344   0.76084   0.00000  Uiso   1.00
H140   H     0.54762   0.20166   0.76670   0.00000  Uiso   1.00
H141   H     0.65128   0.20595   0.76344   0.00000  Uiso   1.00
H142   H     0.35492   0.79039   0.76369   0.00000  Uiso   1.00
N143   N     0.44813   0.93977   0.26264   0.00000  Uiso   1.00
C144   C     0.45351   0.86039   0.26496   0.00000  Uiso   1.00
N145   N     0.48701   0.04341   0.27285   0.00000  Uiso   1.00
C146   C     0.42485   0.88698   0.26195   0.00000  Uiso   1.00
C147   C     0.55632   0.13449   0.26466   0.00000  Uiso   1.00
C148   C     0.57682   0.06464   0.26438   0.00000  Uiso   1.00
C149   C     0.53225   0.94549   0.26969   0.00000  Uiso   1.00
C150   C     0.59321   0.11760   0.25977   0.00000  Uiso   1.00
C151   C     0.50860   0.89141   0.26716   0.00000  Uiso   1.00
C152   C     0.50168   0.96988   0.26795   0.00000  Uiso   1.00
C153   C     0.52314   0.02715   0.26967   0.00000  Uiso   1.00
C154   C     0.50256   0.09523   0.27112   0.00000  Uiso   1.00
H155   H     0.56918   0.96615   0.27250   0.00000  Uiso   1.00
H156   H     0.52940   0.87528   0.26694   0.00000  Uiso   1.00
H157   H     0.47690   0.10550   0.27432   0.00000  Uiso   1.00
H158   H     0.62934   0.14245   0.25342   0.00000  Uiso   1.00
H159   H     0.60189   0.05358   0.26397   0.00000  Uiso   1.00
H160   H     0.37957   0.86167   0.24121   0.00000  Uiso   1.00
C161   C     0.72000   0.36415   0.73756   0.00000  Uiso   1.00
C162   C     0.69118   0.38904   0.73644   0.00000  Uiso   1.00
O163   O     0.71422   0.44360   0.73513   0.00000  Uiso   1.00
C164   C     0.77415   0.39804   0.73703   0.00000  Uiso   1.00
N165   N     0.80803   0.37778   0.73805   0.00000  Uiso   1.00
N166   N     0.18706   0.61501   0.73441   0.00000  Uiso   1.00
C167   C     0.27662   0.63410   0.73495   0.00000  Uiso   1.00
C168   C     0.21969   0.59740   0.73583   0.00000  Uiso   1.00
C169   C     0.30898   0.60839   0.73592   0.00000  Uiso   1.00
O170   O     0.28872   0.55424   0.73746   0.00000  Uiso   1.00
H171   H     0.20656   0.66124   0.76084   0.00000  Uiso   1.00
H172   H     0.79834   0.34596   0.76670   0.00000  Uiso   1.00
H173   H     0.79405   0.44533   0.76344   0.00000  Uiso   1.00
H174   H     0.20961   0.56453   0.76369   0.00000  Uiso   1.00
N175   N     0.06023   0.50836   0.26264   0.00000  Uiso   1.00
C176   C     0.13961   0.59312   0.26496   0.00000  Uiso   1.00
N177   N     0.95659   0.44360   0.27285   0.00000  Uiso   1.00
C178   C     0.11302   0.53787   0.26195   0.00000  Uiso   1.00
C179   C     0.86551   0.42183   0.26466   0.00000  Uiso   1.00
C180   C     0.93536   0.51218   0.26438   0.00000  Uiso   1.00
C181   C     0.05451   0.58676   0.26969   0.00000  Uiso   1.00
C182   C     0.88240   0.47561   0.25977   0.00000  Uiso   1.00
C183   C     0.10859   0.61719   0.26716   0.00000  Uiso   1.00
C184   C     0.03012   0.53180   0.26795   0.00000  Uiso   1.00
C185   C     0.97285   0.49599   0.26967   0.00000  Uiso   1.00
C186   C     0.90477   0.40733   0.27112   0.00000  Uiso   1.00
H187   H     0.03385   0.60303   0.27250   0.00000  Uiso   1.00
H188   H     0.12472   0.65412   0.26694   0.00000  Uiso   1.00
H189   H     0.89450   0.37140   0.27432   0.00000  Uiso   1.00
H190   H     0.85755   0.48689   0.25342   0.00000  Uiso   1.00
H191   H     0.94642   0.54831   0.26397   0.00000  Uiso   1.00
H192   H     0.13833   0.51790   0.24121   0.00000  Uiso   1.00
loop_
_geom_bond_atom_site_label_1
_geom_bond_atom_site_label_2
_geom_bond_distance
_geom_bond_site_symmetry_2
_ccdc_geom_bond_type
C1     C2      1.280   .     S
C1     C4      1.303   .     D
C1     C66     1.326   .     S
C2     O3      1.305   .     D
C2     C33     1.326   .     S
C4     N5      1.303   .     S
C4     H13     1.145   .     S
N5     H12     0.801   .     S
N5     C112    1.263   .     S
N6     C8      1.214   .     S
N6     H11     1.120   .     S
N6     C115    1.302   .     S
C7     C8      1.375   .     D
C7     C9      1.386   .     S
C7     C73     1.365   .     S
C8     H14     0.824   .     S
C9     O10     1.303   .     D
C9     C39     1.365   .     S
N15    C18     1.260   .     D
N15    C24     1.279   .     S
C16    C18     1.316   .     S
C16    C23     1.316   .     D
C16    N101    1.263   .     S
N17    C25     1.277   .     S
N17    C26     1.267   .     D
C18    H32     1.090   .     S
C19    C22     1.310   .     D
C19    C26     1.326   .     S
C19    N102    1.302   .     S
C20    C22     1.292   .     S
C20    C25     1.312   .     D
C20    H31     0.882   .     S
C21    C23     1.291   .     S
C21    C24     1.312   .     D
C21    H27     0.882   .     S
C22    H30     0.882   .     S
C23    H28     0.882   .     S
C24    C25     1.378   .     S
C26    H29     0.882   .     S
C33    C34     1.280   .     S
C33    C36     1.303   .     D
C34    O35     1.305   .     D
C34    C65     1.326   .     S
C36    N37     1.303   .     S
C36    H45     1.145   .     S
N37    H44     0.801   .     S
N37    C144    1.263   .     S
N38    C40     1.214   .     S
N38    H43     1.120   .     S
N38    C147    1.302   .     S
C39    C40     1.375   .     D
C39    C41     1.386   .     S
C40    H46     0.824   .     S
C41    O42     1.303   .     D
C41    C71     1.365   .     S
N47    C50     1.260   .     S
N47    C56     1.279   .     D
C48    C50     1.316   .     D
C48    C55     1.316   .     S
C48    N133    1.263   .     S
N49    C57     1.277   .     S
N49    C58     1.267   .     D
C50    H64     1.090   .     S
C51    C54     1.310   .     D
C51    C58     1.326   .     S
C51    N134    1.302   .     S
C52    C54     1.292   .     S
C52    C57     1.312   .     D
C52    H63     0.882   .     S
C53    C55     1.291   .     D
C53    C56     1.312   .     S
C53    H59     0.882   .     S
C54    H62     0.882   .     S
C55    H60     0.882   .     S
C56    C57     1.378   1_545 S
C57    C56     1.378   1_565 S
C58    H61     0.882   .     S
C65    C66     1.280   .     S
C65    C68     1.303   .     D
C66    O67     1.305   .     D
C68    N69     1.303   .     S
C68    H77     1.145   .     S
N69    H76     0.801   .     S
N69    C176    1.263   .     S
N70    C72     1.214   .     S
N70    H75     1.120   .     S
N70    C179    1.302   .     S
C71    C72     1.375   .     D
C71    C73     1.386   .     S
C72    H78     0.824   .     S
C73    O74     1.303   .     D
N79    C82     1.260   .     D
N79    C88     1.279   .     S
C80    C82     1.316   .     S
C80    C87     1.316   .     D
C80    N165    1.263   .     S
N81    C89     1.277   .     S
N81    C90     1.267   .     D
C82    H96     1.090   .     S
C83    C86     1.310   .     D
C83    C90     1.326   .     S
C83    N166    1.302   .     S
C84    C86     1.292   .     S
C84    C89     1.312   .     D
C84    H95     0.882   .     S
C85    C87     1.291   .     S
C85    C88     1.312   .     D
C85    H91     0.882   .     S
C86    H94     0.882   .     S
C87    H92     0.882   .     S
C88    C89     1.378   1_655 S
C89    C88     1.378   1_455 S
C90    H93     0.882   .     S
C97    C98     1.280   .     S
C97    C100    1.303   .     D
C97    C162    1.326   .     S
C98    O99     1.305   .     D
C98    C129    1.326   .     S
C100   N101    1.303   .     S
C100   H109    1.145   .     S
N101   H108    0.801   .     S
N102   C104    1.214   .     S
N102   H107    1.120   .     S
C103   C104    1.375   .     D
C103   C105    1.386   .     S
C103   C169    1.365   .     S
C104   H110    0.824   .     S
C105   O106    1.303   .     D
C105   C135    1.365   .     S
N111   C114    1.260   .     S
N111   C120    1.279   .     D
C112   C114    1.316   .     D
C112   C119    1.316   .     S
N113   C121    1.277   .     S
N113   C122    1.267   .     D
C114   H128    1.090   .     S
C115   C118    1.310   .     D
C115   C122    1.326   .     S
C116   C118    1.292   .     S
C116   C121    1.312   .     D
C116   H127    0.882   .     S
C117   C119    1.291   .     D
C117   C120    1.312   .     S
C117   H123    0.882   .     S
C118   H126    0.882   .     S
C119   H124    0.882   .     S
C120   C121    1.378   .     S
C122   H125    0.882   .     S
C129   C130    1.280   .     S
C129   C132    1.303   .     D
C130   O131    1.305   .     D
C130   C161    1.326   .     S
C132   N133    1.303   .     S
C132   H141    1.145   .     S
N133   H140    0.801   .     S
N134   C136    1.214   .     S
N134   H139    1.120   .     S
C135   C136    1.375   .     D
C135   C137    1.386   .     S
C136   H142    0.824   .     S
C137   O138    1.303   .     D
C137   C167    1.365   .     S
N143   C146    1.260   .     S
N143   C152    1.279   .     D
C144   C146    1.316   .     D
C144   C151    1.316   .     S
N145   C153    1.277   .     S
N145   C154    1.267   .     D
C146   H160    1.090   .     S
C147   C150    1.310   .     D
C147   C154    1.326   .     S
C148   C150    1.292   .     S
C148   C153    1.312   .     D
C148   H159    0.882   .     S
C149   C151    1.291   .     D
C149   C152    1.312   .     S
C149   H155    0.882   .     S
C150   H158    0.882   .     S
C151   H156    0.882   .     S
C152   C153    1.378   1_565 S
C153   C152    1.378   1_545 S
C154   H157    0.882   .     S
C161   C162    1.280   .     S
C161   C164    1.303   .     D
C162   O163    1.305   .     D
C164   N165    1.303   .     S
C164   H173    1.145   .     S
N165   H172    0.801   .     S
N166   C168    1.214   .     S
N166   H171    1.120   .     S
C167   C168    1.375   .     D
C167   C169    1.386   .     S
C168   H174    0.824   .     S
C169   O170    1.303   .     D
N175   C178    1.260   .     S
N175   C184    1.279   .     D
C176   C178    1.316   .     D
C176   C183    1.316   .     S
N177   C185    1.277   .     S
N177   C186    1.267   .     D
C178   H192    1.090   .     S
C179   C182    1.310   .     D
C179   C186    1.326   .     S
C180   C182    1.292   .     S
C180   C185    1.312   .     D
C180   H191    0.882   .     S
C181   C183    1.291   .     D
C181   C184    1.312   .     S
C181   H187    0.882   .     S
C182   H190    0.882   .     S
C183   H188    0.882   .     S
C184   C185    1.378   1_455 S
C185   C184    1.378   1_655 S
C186   H189    0.882   .     S
