data_53
_audit_creation_date              2023-09-08
_audit_creation_method            'Materials Studio'
_symmetry_space_group_name_H-M    'P1'
_symmetry_Int_Tables_number       1
_symmetry_cell_setting            triclinic
loop_
_symmetry_equiv_pos_as_xyz
  x,y,z
_cell_length_a                    15.2905
_cell_length_b                    15.2905
_cell_length_c                    3.4579
_cell_angle_alpha                 90.0000
_cell_angle_beta                  90.0000
_cell_angle_gamma                 120.0000
loop_
_atom_site_label
_atom_site_type_symbol
_atom_site_fract_x
_atom_site_fract_y
_atom_site_fract_z
_atom_site_U_iso_or_equiv
_atom_site_adp_type
_atom_site_occupancy
B1     B     0.44040   0.72020   0.00000   0.00000  Uiso   1.00
H2     H     0.52720   0.76360   0.00000   0.00000  Uiso   1.00
B3     B     0.27980   0.72020   0.00000   0.00000  Uiso   1.00
H4     H     0.23640   0.76360   0.00000   0.00000  Uiso   1.00
B5     B     0.27980   0.55960   0.00000   0.00000  Uiso   1.00
H6     H     0.23640   0.47280   0.00000   0.00000  Uiso   1.00
C7     C     0.56170   0.28085   0.00000   0.00000  Uiso   1.00
C8     C     0.71915   0.28085   0.00000   0.00000  Uiso   1.00
C9     C     0.71915   0.43830   0.00000   0.00000  Uiso   1.00
C10    C     0.61260   0.22520   0.00000   0.00000  Uiso   1.00
H11    H     0.75910   0.51820   0.00000   0.00000  Uiso   1.00
C12    C     0.77480   0.38740   0.00000   0.00000  Uiso   1.00
H13    H     0.48180   0.24090   0.00000   0.00000  Uiso   1.00
C14    C     0.61260   0.38740   0.00000   0.00000  Uiso   1.00
H15    H     0.75910   0.24090   0.00000   0.00000  Uiso   1.00
C16    C     0.55230   0.60440   0.00000   0.00000  Uiso   1.00
C17    C     0.60490   0.55150   0.00000   0.00000  Uiso   1.00
H18    H     0.40190   0.31430   0.00000   0.00000  Uiso   1.00
H19    H     0.31510   0.39990   0.00000   0.00000  Uiso   1.00
C20    C     0.39560   0.94790   0.00000   0.00000  Uiso   1.00
C21    C     0.44850   0.05340   0.00000   0.00000  Uiso   1.00
H22    H     0.68570   0.08760   0.00000   0.00000  Uiso   1.00
H23    H     0.60010   0.91520   0.00000   0.00000  Uiso   1.00
C24    C     0.05210   0.44770   0.00000   0.00000  Uiso   1.00
C25    C     0.94660   0.39510   0.00000   0.00000  Uiso   1.00
H26    H     0.91240   0.59810   0.00000   0.00000  Uiso   1.00
H27    H     0.08480   0.68490   0.00000   0.00000  Uiso   1.00
C28    C     0.39560   0.44770   0.00000   0.00000  Uiso   1.00
C29    C     0.44850   0.39510   0.00000   0.00000  Uiso   1.00
H30    H     0.68570   0.59810   0.00000   0.00000  Uiso   1.00
H31    H     0.60010   0.68490   0.00000   0.00000  Uiso   1.00
C32    C     0.05210   0.60440   0.00000   0.00000  Uiso   1.00
C33    C     0.94660   0.55150   0.00000   0.00000  Uiso   1.00
H34    H     0.91240   0.31430   0.00000   0.00000  Uiso   1.00
H35    H     0.08480   0.39990   0.00000   0.00000  Uiso   1.00
C36    C     0.55230   0.94790   0.00000   0.00000  Uiso   1.00
C37    C     0.60490   0.05340   0.00000   0.00000  Uiso   1.00
H38    H     0.40190   0.08760   0.00000   0.00000  Uiso   1.00
H39    H     0.31510   0.91520   0.00000   0.00000  Uiso   1.00
C40    C     0.55490   0.44510   0.00000   0.00000  Uiso   1.00
C41    C     0.44510   0.55490   0.00000   0.00000  Uiso   1.00
C42    C     0.55490   0.10980   0.00000   0.00000  Uiso   1.00
C43    C     0.44510   0.89020   0.00000   0.00000  Uiso   1.00
C44    C     0.89020   0.44510   0.00000   0.00000  Uiso   1.00
C45    C     0.10980   0.55490   0.00000   0.00000  Uiso   1.00
N46    N     0.38900   0.77800   0.00000   0.00000  Uiso   1.00
N47    N     0.22200   0.61100   0.00000   0.00000  Uiso   1.00
N48    N     0.38900   0.61100   0.00000   0.00000  Uiso   1.00
loop_
_geom_bond_atom_site_label_1
_geom_bond_atom_site_label_2
_geom_bond_distance
_geom_bond_site_symmetry_2
_ccdc_geom_bond_type
B1     H2      1.149   .     S
B1     N46     1.447   .     S
B1     N48     1.447   .     S
B3     H4      1.149   .     S
B3     N46     1.447   .     S
B3     N47     1.447   .     S
B5     H6      1.149   .     S
B5     N47     1.447   .     S
B5     N48     1.447   .     S
C7     C10     1.411   .     S
C7     H13     1.058   .     S
C7     C14     1.411   .     D
C8     C10     1.411   .     D
C8     C12     1.411   .     S
C8     H15     1.058   .     S
C9     H11     1.058   .     S
C9     C12     1.411   .     D
C9     C14     1.411   .     S
C10    C42     1.528   .     S
C12    C44     1.528   .     S
C14    C40     1.528   .     S
C16    C17     1.397   .     D
C16    H31     1.072   .     S
C16    C41     1.421   .     S
C17    H30     1.074   .     S
C17    C40     1.410   .     S
H18    C29     1.074   .     S
H19    C28     1.072   .     S
C20    C21     1.397   1_565 S
C20    H39     1.072   .     S
C20    C43     1.421   .     D
C21    C20     1.397   1_545 S
C21    H38     1.074   .     S
C21    C42     1.410   .     D
H22    C37     1.074   .     S
H23    C36     1.072   .     S
C24    C25     1.397   1_455 D
C24    H35     1.072   .     S
C24    C45     1.421   .     S
C25    C24     1.397   1_655 D
C25    H34     1.074   .     S
C25    C44     1.410   .     S
H26    C33     1.074   .     S
H27    C32     1.072   .     S
C28    C29     1.397   .     S
C28    C41     1.421   .     D
C29    C40     1.410   .     D
C32    C33     1.397   1_455 S
C32    C45     1.421   .     D
C33    C32     1.397   1_655 S
C33    C44     1.410   .     D
C36    C37     1.397   1_565 D
C36    C43     1.421   .     S
C37    C36     1.397   1_545 D
C37    C42     1.410   .     S
C41    N48     1.486   .     S
C43    N46     1.486   .     S
C45    N47     1.486   .     S
