data_530
_audit_creation_date              2023-09-08
_audit_creation_method            'Materials Studio'
_symmetry_space_group_name_H-M    'P1'
_symmetry_Int_Tables_number       1
_symmetry_cell_setting            triclinic
loop_
_symmetry_equiv_pos_as_xyz
  x,y,z
_cell_length_a                    29.3000
_cell_length_b                    29.3000
_cell_length_c                    3.5000
_cell_angle_alpha                 90.0000
_cell_angle_beta                  90.0000
_cell_angle_gamma                 120.0000
loop_
_atom_site_label
_atom_site_type_symbol
_atom_site_fract_x
_atom_site_fract_y
_atom_site_fract_z
_atom_site_U_iso_or_equiv
_atom_site_adp_type
_atom_site_occupancy
C1     C     0.42729   0.47248   0.50000   0.00000  Uiso   1.00
C2     C     0.48145   0.50862   0.50000   0.00000  Uiso   1.00
C3     C     0.39288   0.49131   0.50000   0.00000  Uiso   1.00
C4     C     0.41284   0.54544   0.50000   0.00000  Uiso   1.00
C5     C     0.46782   0.58018   0.50000   0.00000  Uiso   1.00
C6     C     0.39422   0.61820   0.50000   0.00000  Uiso   1.00
C7     C     0.30634   0.60928   0.50000   0.00000  Uiso   1.00
C8     C     0.27575   0.63620   0.50000   0.00000  Uiso   1.00
N9     N     0.50015   0.56080   0.50000   0.00000  Uiso   1.00
N10    N     0.37648   0.56340   0.50000   0.00000  Uiso   1.00
O11    O     0.43869   0.72151   0.50000   0.00000  Uiso   1.00
H12    H     0.41197   0.43033   0.50000   0.00000  Uiso   1.00
H13    H     0.35085   0.46396   0.50000   0.00000  Uiso   1.00
H14    H     0.48753   0.62226   0.50000   0.00000  Uiso   1.00
H15    H     0.43545   0.64534   0.50000   0.00000  Uiso   1.00
H16    H     0.33720   0.53400   0.50000   0.00000  Uiso   1.00
C17    C     0.52752   0.95482   0.50000   0.00000  Uiso   1.00
C18    C     0.49138   0.97283   0.50000   0.00000  Uiso   1.00
C19    C     0.50869   0.90157   0.50000   0.00000  Uiso   1.00
C20    C     0.45456   0.86739   0.50000   0.00000  Uiso   1.00
C21    C     0.41982   0.88764   0.50000   0.00000  Uiso   1.00
C22    C     0.38180   0.77602   0.50000   0.00000  Uiso   1.00
C23    C     0.39072   0.69706   0.50000   0.00000  Uiso   1.00
C24    C     0.36380   0.63955   0.50000   0.00000  Uiso   1.00
N25    N     0.43920   0.93936   0.50000   0.00000  Uiso   1.00
N26    N     0.43660   0.81308   0.50000   0.00000  Uiso   1.00
O27    O     0.27849   0.71718   0.50000   0.00000  Uiso   1.00
H28    H     0.56967   0.98165   0.50000   0.00000  Uiso   1.00
H29    H     0.53604   0.88688   0.50000   0.00000  Uiso   1.00
H30    H     0.37774   0.86527   0.50000   0.00000  Uiso   1.00
H31    H     0.35466   0.79011   0.50000   0.00000  Uiso   1.00
H32    H     0.46600   0.80320   0.50000   0.00000  Uiso   1.00
C33    C     0.04518   0.57271   0.50000   0.00000  Uiso   1.00
C34    C     0.02717   0.51855   0.50000   0.00000  Uiso   1.00
C35    C     0.09843   0.60712   0.50000   0.00000  Uiso   1.00
C36    C     0.13261   0.58716   0.50000   0.00000  Uiso   1.00
C37    C     0.11236   0.53218   0.50000   0.00000  Uiso   1.00
C38    C     0.22398   0.60578   0.50000   0.00000  Uiso   1.00
C39    C     0.30294   0.69366   0.50000   0.00000  Uiso   1.00
C40    C     0.36045   0.72425   0.50000   0.00000  Uiso   1.00
N41    N     0.06064   0.49985   0.50000   0.00000  Uiso   1.00
N42    N     0.18692   0.62352   0.50000   0.00000  Uiso   1.00
O43    O     0.28282   0.56131   0.50000   0.00000  Uiso   1.00
H44    H     0.01835   0.58803   0.50000   0.00000  Uiso   1.00
H45    H     0.11312   0.64916   0.50000   0.00000  Uiso   1.00
H46    H     0.13473   0.51247   0.50000   0.00000  Uiso   1.00
H47    H     0.20989   0.56455   0.50000   0.00000  Uiso   1.00
H48    H     0.19680   0.66280   0.50000   0.00000  Uiso   1.00
C49    C     0.57271   0.52752   0.50000   0.00000  Uiso   1.00
C50    C     0.51855   0.49138   0.50000   0.00000  Uiso   1.00
C51    C     0.60712   0.50869   0.50000   0.00000  Uiso   1.00
C52    C     0.58716   0.45456   0.50000   0.00000  Uiso   1.00
C53    C     0.53218   0.41982   0.50000   0.00000  Uiso   1.00
C54    C     0.60578   0.38180   0.50000   0.00000  Uiso   1.00
C55    C     0.69366   0.39072   0.50000   0.00000  Uiso   1.00
C56    C     0.72425   0.36380   0.50000   0.00000  Uiso   1.00
N57    N     0.49985   0.43920   0.50000   0.00000  Uiso   1.00
N58    N     0.62352   0.43660   0.50000   0.00000  Uiso   1.00
O59    O     0.56131   0.27849   0.50000   0.00000  Uiso   1.00
H60    H     0.58803   0.56967   0.50000   0.00000  Uiso   1.00
H61    H     0.64916   0.53604   0.50000   0.00000  Uiso   1.00
H62    H     0.51247   0.37774   0.50000   0.00000  Uiso   1.00
H63    H     0.56455   0.35466   0.50000   0.00000  Uiso   1.00
H64    H     0.66280   0.46600   0.50000   0.00000  Uiso   1.00
C65    C     0.47248   0.04518   0.50000   0.00000  Uiso   1.00
C66    C     0.50862   0.02718   0.50000   0.00000  Uiso   1.00
C67    C     0.49131   0.09843   0.50000   0.00000  Uiso   1.00
C68    C     0.54544   0.13261   0.50000   0.00000  Uiso   1.00
C69    C     0.58018   0.11236   0.50000   0.00000  Uiso   1.00
C70    C     0.61820   0.22398   0.50000   0.00000  Uiso   1.00
C71    C     0.60928   0.30294   0.50000   0.00000  Uiso   1.00
C72    C     0.63620   0.36045   0.50000   0.00000  Uiso   1.00
N73    N     0.56080   0.06064   0.50000   0.00000  Uiso   1.00
N74    N     0.56340   0.18692   0.50000   0.00000  Uiso   1.00
O75    O     0.72151   0.28282   0.50000   0.00000  Uiso   1.00
H76    H     0.43033   0.01835   0.50000   0.00000  Uiso   1.00
H77    H     0.46396   0.11312   0.50000   0.00000  Uiso   1.00
H78    H     0.62226   0.13473   0.50000   0.00000  Uiso   1.00
H79    H     0.64534   0.20989   0.50000   0.00000  Uiso   1.00
H80    H     0.53400   0.19680   0.50000   0.00000  Uiso   1.00
C81    C     0.95482   0.42729   0.50000   0.00000  Uiso   1.00
C82    C     0.97283   0.48145   0.50000   0.00000  Uiso   1.00
C83    C     0.90157   0.39288   0.50000   0.00000  Uiso   1.00
C84    C     0.86739   0.41284   0.50000   0.00000  Uiso   1.00
C85    C     0.88764   0.46782   0.50000   0.00000  Uiso   1.00
C86    C     0.77602   0.39422   0.50000   0.00000  Uiso   1.00
C87    C     0.69706   0.30634   0.50000   0.00000  Uiso   1.00
C88    C     0.63955   0.27575   0.50000   0.00000  Uiso   1.00
N89    N     0.93936   0.50015   0.50000   0.00000  Uiso   1.00
N90    N     0.81308   0.37648   0.50000   0.00000  Uiso   1.00
O91    O     0.71718   0.43869   0.50000   0.00000  Uiso   1.00
H92    H     0.98165   0.41197   0.50000   0.00000  Uiso   1.00
H93    H     0.88688   0.35084   0.50000   0.00000  Uiso   1.00
H94    H     0.86527   0.48753   0.50000   0.00000  Uiso   1.00
H95    H     0.79011   0.43545   0.50000   0.00000  Uiso   1.00
H96    H     0.80320   0.33720   0.50000   0.00000  Uiso   1.00
loop_
_geom_bond_atom_site_label_1
_geom_bond_atom_site_label_2
_geom_bond_distance
_geom_bond_site_symmetry_2
_ccdc_geom_bond_type
C1     C2      1.400   .     D
C1     C3      1.370   .     S
C1     H12     1.083   .     S
C2     N9      1.341   .     S
C2     C50     1.409   .     S
C3     C4      1.389   .     D
C3     H13     1.083   .     S
C4     C5      1.411   .     S
C4     N10     1.404   .     S
C5     N9      1.326   .     D
C5     H14     1.069   .     S
C6     N10     1.419   .     S
C6     H15     1.063   .     S
C6     C24     1.320   .     D
C7     C8      1.460   .     S
C7     C24     1.459   .     S
C7     O43     1.217   .     D
C8     C38     1.320   .     D
C8     C39     1.459   .     S
N10    H16     1.037   .     S
O11    C23     1.217   .     D
C17    C18     1.400   .     D
C17    C19     1.370   .     S
C17    H28     1.083   .     S
C18    N25     1.341   .     S
C18    C66     1.409   1_565 S
C19    C20     1.389   .     D
C19    H29     1.083   .     S
C20    C21     1.411   .     S
C20    N26     1.404   .     S
C21    N25     1.326   .     D
C21    H30     1.069   .     S
C22    N26     1.419   .     S
C22    H31     1.063   .     S
C22    C40     1.320   .     D
C23    C24     1.460   .     S
C23    C40     1.459   .     S
N26    H32     1.037   .     S
O27    C39     1.217   .     D
C33    C34     1.400   .     D
C33    C35     1.370   .     S
C33    H44     1.083   .     S
C34    N41     1.341   .     S
C34    C82     1.409   1_455 S
C35    C36     1.389   .     D
C35    H45     1.083   .     S
C36    C37     1.411   .     S
C36    N42     1.404   .     S
C37    N41     1.326   .     D
C37    H46     1.069   .     S
C38    N42     1.419   .     S
C38    H47     1.063   .     S
C39    C40     1.460   .     S
N42    H48     1.037   .     S
C49    C50     1.400   .     D
C49    C51     1.370   .     S
C49    H60     1.083   .     S
C50    N57     1.341   .     S
C51    C52     1.389   .     D
C51    H61     1.083   .     S
C52    C53     1.411   .     S
C52    N58     1.404   .     S
C53    N57     1.326   .     D
C53    H62     1.069   .     S
C54    N58     1.419   .     S
C54    H63     1.063   .     S
C54    C72     1.320   .     D
C55    C56     1.460   .     S
C55    C72     1.459   .     S
C55    O91     1.217   .     D
C56    C86     1.320   .     D
C56    C87     1.459   .     S
N58    H64     1.037   .     S
O59    C71     1.217   .     D
C65    C66     1.400   .     D
C65    C67     1.370   .     S
C65    H76     1.083   .     S
C66    C18     1.409   1_545 S
C66    N73     1.341   .     S
C67    C68     1.389   .     D
C67    H77     1.083   .     S
C68    C69     1.411   .     S
C68    N74     1.404   .     S
C69    N73     1.326   .     D
C69    H78     1.069   .     S
C70    N74     1.419   .     S
C70    H79     1.063   .     S
C70    C88     1.320   .     D
C71    C72     1.460   .     S
C71    C88     1.459   .     S
N74    H80     1.037   .     S
O75    C87     1.217   .     D
C81    C82     1.400   .     D
C81    C83     1.370   .     S
C81    H92     1.083   .     S
C82    C34     1.409   1_655 S
C82    N89     1.341   .     S
C83    C84     1.389   .     D
C83    H93     1.083   .     S
C84    C85     1.411   .     S
C84    N90     1.404   .     S
C85    N89     1.326   .     D
C85    H94     1.069   .     S
C86    N90     1.419   .     S
C86    H95     1.063   .     S
C87    C88     1.460   .     S
N90    H96     1.037   .     S
