data_531
_audit_creation_date              2023-09-08
_audit_creation_method            'Materials Studio'
_symmetry_space_group_name_H-M    'P1'
_symmetry_Int_Tables_number       1
_symmetry_cell_setting            triclinic
loop_
_symmetry_equiv_pos_as_xyz
  x,y,z
_cell_length_a                    35.9258
_cell_length_b                    35.9258
_cell_length_c                    4.4226
_cell_angle_alpha                 90.0000
_cell_angle_beta                  90.0000
_cell_angle_gamma                 120.0000
loop_
_atom_site_label
_atom_site_type_symbol
_atom_site_fract_x
_atom_site_fract_y
_atom_site_fract_z
_atom_site_U_iso_or_equiv
_atom_site_adp_type
_atom_site_occupancy
C1     C     0.46056   0.47457   0.00000   0.00000  Uiso   1.00
C2     C     0.47429   0.51664   0.00000   0.00000  Uiso   1.00
C3     C     0.51658   0.54456   0.00000   0.00000  Uiso   1.00
C4     C     0.44412   0.53066   0.00000   0.00000  Uiso   1.00
N5     N     0.45606   0.56948   0.00000   0.00000  Uiso   1.00
C6     C     0.37752   0.69288   0.00000   0.00000  Uiso   1.00
C7     C     0.35529   0.71382   0.00000   0.00000  Uiso   1.00
C8     C     0.84786   0.43064   0.00000   0.00000  Uiso   1.00
C9     C     0.76049   0.38359   0.00000   0.00000  Uiso   1.00
C10    C     0.82769   0.38776   0.00000   0.00000  Uiso   1.00
C11    C     0.82449   0.44979   0.00000   0.00000  Uiso   1.00
C12    C     0.78497   0.36476   0.00000   0.00000  Uiso   1.00
C13    C     0.78180   0.42702   0.00000   0.00000  Uiso   1.00
H14    H     0.42812   0.45249   0.00000   0.00000  Uiso   1.00
H15    H     0.52810   0.57721   0.00000   0.00000  Uiso   1.00
H16    H     0.41205   0.50779   0.00000   0.00000  Uiso   1.00
H17    H     0.40989   0.71026   0.00000   0.00000  Uiso   1.00
H18    H     0.84431   0.37137   0.00000   0.00000  Uiso   1.00
H19    H     0.83956   0.48289   0.00000   0.00000  Uiso   1.00
H20    H     0.77245   0.33218   0.00000   0.00000  Uiso   1.00
H21    H     0.76678   0.44482   0.00000   0.00000  Uiso   1.00
C22    C     0.52543   0.98599   0.00000   0.00000  Uiso   1.00
C23    C     0.48336   0.95765   0.00000   0.00000  Uiso   1.00
C24    C     0.45544   0.97202   0.00000   0.00000  Uiso   1.00
C25    C     0.46934   0.91346   0.00000   0.00000  Uiso   1.00
N26    N     0.43052   0.88658   0.00000   0.00000  Uiso   1.00
C27    C     0.30712   0.68464   0.00000   0.00000  Uiso   1.00
C28    C     0.28618   0.64147   0.00000   0.00000  Uiso   1.00
C29    C     0.56936   0.41722   0.00000   0.00000  Uiso   1.00
C30    C     0.61641   0.37690   0.00000   0.00000  Uiso   1.00
C31    C     0.61224   0.43993   0.00000   0.00000  Uiso   1.00
C32    C     0.55021   0.37470   0.00000   0.00000  Uiso   1.00
C33    C     0.63524   0.42021   0.00000   0.00000  Uiso   1.00
C34    C     0.57298   0.35478   0.00000   0.00000  Uiso   1.00
H35    H     0.54751   0.97563   0.00000   0.00000  Uiso   1.00
H36    H     0.42279   0.95089   0.00000   0.00000  Uiso   1.00
H37    H     0.49221   0.90426   0.00000   0.00000  Uiso   1.00
H38    H     0.28974   0.69963   0.00000   0.00000  Uiso   1.00
H39    H     0.62863   0.47294   0.00000   0.00000  Uiso   1.00
H40    H     0.51711   0.35667   0.00000   0.00000  Uiso   1.00
H41    H     0.66782   0.44027   0.00000   0.00000  Uiso   1.00
H42    H     0.55518   0.32196   0.00000   0.00000  Uiso   1.00
C43    C     0.01401   0.53944   0.00000   0.00000  Uiso   1.00
C44    C     0.04235   0.52571   0.00000   0.00000  Uiso   1.00
C45    C     0.02798   0.48342   0.00000   0.00000  Uiso   1.00
C46    C     0.08654   0.55588   0.00000   0.00000  Uiso   1.00
N47    N     0.11342   0.54394   0.00000   0.00000  Uiso   1.00
C48    C     0.31536   0.62248   0.00000   0.00000  Uiso   1.00
C49    C     0.35853   0.64471   0.00000   0.00000  Uiso   1.00
C50    C     0.58278   0.15214   0.00000   0.00000  Uiso   1.00
C51    C     0.62310   0.23951   0.00000   0.00000  Uiso   1.00
C52    C     0.56007   0.17231   0.00000   0.00000  Uiso   1.00
C53    C     0.62530   0.17551   0.00000   0.00000  Uiso   1.00
C54    C     0.57979   0.21503   0.00000   0.00000  Uiso   1.00
C55    C     0.64522   0.21820   0.00000   0.00000  Uiso   1.00
H56    H     0.02437   0.57188   0.00000   0.00000  Uiso   1.00
H57    H     0.04911   0.47190   0.00000   0.00000  Uiso   1.00
H58    H     0.09574   0.58795   0.00000   0.00000  Uiso   1.00
H59    H     0.30037   0.59011   0.00000   0.00000  Uiso   1.00
H60    H     0.52706   0.15569   0.00000   0.00000  Uiso   1.00
H61    H     0.64333   0.16044   0.00000   0.00000  Uiso   1.00
H62    H     0.55973   0.22755   0.00000   0.00000  Uiso   1.00
H63    H     0.67804   0.23322   0.00000   0.00000  Uiso   1.00
C64    C     0.53944   0.52543   0.00000   0.00000  Uiso   1.00
C65    C     0.52571   0.48336   0.00000   0.00000  Uiso   1.00
C66    C     0.48342   0.45544   0.00000   0.00000  Uiso   1.00
C67    C     0.55588   0.46934   0.00000   0.00000  Uiso   1.00
N68    N     0.54394   0.43052   0.00000   0.00000  Uiso   1.00
C69    C     0.62248   0.30712   0.00000   0.00000  Uiso   1.00
C70    C     0.64471   0.28618   0.00000   0.00000  Uiso   1.00
C71    C     0.15214   0.56936   0.00000   0.00000  Uiso   1.00
C72    C     0.23951   0.61641   0.00000   0.00000  Uiso   1.00
C73    C     0.17231   0.61224   0.00000   0.00000  Uiso   1.00
C74    C     0.17551   0.55021   0.00000   0.00000  Uiso   1.00
C75    C     0.21503   0.63524   0.00000   0.00000  Uiso   1.00
C76    C     0.21820   0.57298   0.00000   0.00000  Uiso   1.00
H77    H     0.57188   0.54751   0.00000   0.00000  Uiso   1.00
H78    H     0.47190   0.42279   0.00000   0.00000  Uiso   1.00
H79    H     0.58795   0.49221   0.00000   0.00000  Uiso   1.00
H80    H     0.59011   0.28974   0.00000   0.00000  Uiso   1.00
H81    H     0.15569   0.62863   0.00000   0.00000  Uiso   1.00
H82    H     0.16044   0.51711   0.00000   0.00000  Uiso   1.00
H83    H     0.22755   0.66782   0.00000   0.00000  Uiso   1.00
H84    H     0.23322   0.55518   0.00000   0.00000  Uiso   1.00
C85    C     0.47457   0.01401   0.00000   0.00000  Uiso   1.00
C86    C     0.51664   0.04235   0.00000   0.00000  Uiso   1.00
C87    C     0.54456   0.02798   0.00000   0.00000  Uiso   1.00
C88    C     0.53066   0.08654   0.00000   0.00000  Uiso   1.00
N89    N     0.56948   0.11342   0.00000   0.00000  Uiso   1.00
C90    C     0.69288   0.31536   0.00000   0.00000  Uiso   1.00
C91    C     0.71382   0.35853   0.00000   0.00000  Uiso   1.00
C92    C     0.43064   0.58278   0.00000   0.00000  Uiso   1.00
C93    C     0.38359   0.62310   0.00000   0.00000  Uiso   1.00
C94    C     0.38776   0.56007   0.00000   0.00000  Uiso   1.00
C95    C     0.44979   0.62530   0.00000   0.00000  Uiso   1.00
C96    C     0.36476   0.57979   0.00000   0.00000  Uiso   1.00
C97    C     0.42702   0.64522   0.00000   0.00000  Uiso   1.00
H98    H     0.45249   0.02437   0.00000   0.00000  Uiso   1.00
H99    H     0.57721   0.04911   0.00000   0.00000  Uiso   1.00
H100   H     0.50779   0.09574   0.00000   0.00000  Uiso   1.00
H101   H     0.71026   0.30037   0.00000   0.00000  Uiso   1.00
H102   H     0.37137   0.52706   0.00000   0.00000  Uiso   1.00
H103   H     0.48289   0.64333   0.00000   0.00000  Uiso   1.00
H104   H     0.33218   0.55973   0.00000   0.00000  Uiso   1.00
H105   H     0.44482   0.67804   0.00000   0.00000  Uiso   1.00
C106   C     0.98599   0.46056   0.00000   0.00000  Uiso   1.00
C107   C     0.95765   0.47429   0.00000   0.00000  Uiso   1.00
C108   C     0.97202   0.51658   0.00000   0.00000  Uiso   1.00
C109   C     0.91346   0.44412   0.00000   0.00000  Uiso   1.00
N110   N     0.88658   0.45606   0.00000   0.00000  Uiso   1.00
C111   C     0.68464   0.37752   0.00000   0.00000  Uiso   1.00
C112   C     0.64147   0.35529   0.00000   0.00000  Uiso   1.00
C113   C     0.41722   0.84786   0.00000   0.00000  Uiso   1.00
C114   C     0.37690   0.76049   0.00000   0.00000  Uiso   1.00
C115   C     0.43993   0.82769   0.00000   0.00000  Uiso   1.00
C116   C     0.37470   0.82449   0.00000   0.00000  Uiso   1.00
C117   C     0.42021   0.78497   0.00000   0.00000  Uiso   1.00
C118   C     0.35478   0.78180   0.00000   0.00000  Uiso   1.00
H119   H     0.97563   0.42812   0.00000   0.00000  Uiso   1.00
H120   H     0.95089   0.52810   0.00000   0.00000  Uiso   1.00
H121   H     0.90426   0.41205   0.00000   0.00000  Uiso   1.00
H122   H     0.69963   0.40989   0.00000   0.00000  Uiso   1.00
H123   H     0.47294   0.84431   0.00000   0.00000  Uiso   1.00
H124   H     0.35667   0.83956   0.00000   0.00000  Uiso   1.00
H125   H     0.44027   0.77245   0.00000   0.00000  Uiso   1.00
H126   H     0.32196   0.76678   0.00000   0.00000  Uiso   1.00
loop_
_geom_bond_atom_site_label_1
_geom_bond_atom_site_label_2
_geom_bond_distance
_geom_bond_site_symmetry_2
_ccdc_geom_bond_type
C1     C2      1.335   .     D
C1     H14     1.031   .     S
C1     C66     1.308   .     S
C2     C3      1.338   .     S
C2     C4      1.405   .     S
C3     H15     1.030   .     S
C3     C64     1.308   .     D
C4     N5      1.237   .     D
C4     H16     1.028   .     S
N5     C92     1.224   .     S
C6     C7      1.343   .     D
C6     H17     1.008   .     S
C6     C49     1.510   .     S
C7     C27     1.510   .     S
C7     C114    1.453   .     S
C8     C10     1.335   .     D
C8     C11     1.325   .     S
C8     N110    1.224   .     S
C9     C12     1.351   .     D
C9     C13     1.351   .     S
C9     C91     1.453   .     S
C10    C12     1.330   .     S
C10    H18     1.027   .     S
C11    C13     1.329   .     D
C11    H19     1.031   .     S
C12    H20     1.023   .     S
C13    H21     1.022   .     S
C22    C23     1.335   .     S
C22    H35     1.031   .     S
C22    C87     1.308   1_565 D
C23    C24     1.338   .     D
C23    C25     1.405   .     S
C24    H36     1.030   .     S
C24    C85     1.308   1_565 S
C25    N26     1.237   .     D
C25    H37     1.028   .     S
N26    C113    1.224   .     S
C27    C28     1.343   .     D
C27    H38     1.008   .     S
C28    C48     1.510   .     S
C28    C72     1.453   .     S
C29    C31     1.335   .     D
C29    C32     1.325   .     S
C29    N68     1.224   .     S
C30    C33     1.351   .     D
C30    C34     1.351   .     S
C30    C112    1.453   .     S
C31    C33     1.330   .     S
C31    H39     1.027   .     S
C32    C34     1.329   .     D
C32    H40     1.031   .     S
C33    H41     1.023   .     S
C34    H42     1.022   .     S
C43    C44     1.335   .     D
C43    H56     1.031   .     S
C43    C108    1.308   1_455 S
C44    C45     1.338   .     S
C44    C46     1.405   .     S
C45    H57     1.030   .     S
C45    C106    1.308   1_455 D
C46    N47     1.237   .     D
C46    H58     1.028   .     S
N47    C71     1.224   .     S
C48    C49     1.343   .     D
C48    H59     1.008   .     S
C49    C93     1.453   .     S
C50    C52     1.335   .     S
C50    C53     1.325   .     D
C50    N89     1.224   .     S
C51    C54     1.351   .     S
C51    C55     1.351   .     D
C51    C70     1.453   .     S
C52    C54     1.330   .     D
C52    H60     1.027   .     S
C53    C55     1.329   .     S
C53    H61     1.031   .     S
C54    H62     1.023   .     S
C55    H63     1.022   .     S
C64    C65     1.335   .     S
C64    H77     1.031   .     S
C65    C66     1.338   .     D
C65    C67     1.405   .     S
C66    H78     1.030   .     S
C67    N68     1.237   .     D
C67    H79     1.028   .     S
C69    C70     1.343   .     S
C69    H80     1.008   .     S
C69    C112    1.510   .     D
C70    C90     1.510   .     D
C71    C73     1.335   .     D
C71    C74     1.325   .     S
C72    C75     1.351   .     D
C72    C76     1.351   .     S
C73    C75     1.330   .     S
C73    H81     1.027   .     S
C74    C76     1.329   .     D
C74    H82     1.031   .     S
C75    H83     1.023   .     S
C76    H84     1.022   .     S
C85    C24     1.308   1_545 S
C85    C86     1.335   .     D
C85    H98     1.031   .     S
C86    C87     1.338   .     S
C86    C88     1.405   .     S
C87    C22     1.308   1_545 D
C87    H99     1.030   .     S
C88    N89     1.237   .     D
C88    H100    1.028   .     S
C90    C91     1.343   .     S
C90    H101    1.008   .     S
C91    C111    1.510   .     D
C92    C94     1.335   .     D
C92    C95     1.325   .     S
C93    C96     1.351   .     D
C93    C97     1.351   .     S
C94    C96     1.330   .     S
C94    H102    1.027   .     S
C95    C97     1.329   .     D
C95    H103    1.031   .     S
C96    H104    1.023   .     S
C97    H105    1.022   .     S
C106   C45     1.308   1_655 D
C106   C107    1.335   .     S
C106   H119    1.031   .     S
C107   C108    1.338   .     D
C107   C109    1.405   .     S
C108   C43     1.308   1_655 S
C108   H120    1.030   .     S
C109   N110    1.237   .     D
C109   H121    1.028   .     S
C111   C112    1.343   .     S
C111   H122    1.008   .     S
C113   C115    1.335   .     S
C113   C116    1.325   .     D
C114   C117    1.351   .     S
C114   C118    1.351   .     D
C115   C117    1.330   .     D
C115   H123    1.027   .     S
C116   C118    1.329   .     S
C116   H124    1.031   .     S
C117   H125    1.023   .     S
C118   H126    1.022   .     S
