data_532
_audit_creation_date              2023-09-08
_audit_creation_method            'Materials Studio'
_symmetry_space_group_name_H-M    'P1'
_symmetry_Int_Tables_number       1
_symmetry_cell_setting            triclinic
loop_
_symmetry_equiv_pos_as_xyz
  x,y,z
_cell_length_a                    36.5346
_cell_length_b                    36.5346
_cell_length_c                    4.0541
_cell_angle_alpha                 90.0000
_cell_angle_beta                  90.0000
_cell_angle_gamma                 120.0000
loop_
_atom_site_label
_atom_site_type_symbol
_atom_site_fract_x
_atom_site_fract_y
_atom_site_fract_z
_atom_site_U_iso_or_equiv
_atom_site_adp_type
_atom_site_occupancy
O1     O     0.09757   0.60018  -0.12726   0.00000  Uiso   1.00
O2     O     0.39982   0.49739  -0.12726   0.00000  Uiso   1.00
O3     O     0.50261   0.90243  -0.12726   0.00000  Uiso   1.00
O4     O     0.90243   0.39982  -0.12726   0.00000  Uiso   1.00
O5     O     0.60018   0.50261  -0.12726   0.00000  Uiso   1.00
O6     O     0.49739   0.09757  -0.12726   0.00000  Uiso   1.00
C7     C     0.45751   0.47215  -0.15342   0.00000  Uiso   1.00
C8     C     0.52785   0.98536  -0.15342   0.00000  Uiso   1.00
C9     C     0.01464   0.54249  -0.15342   0.00000  Uiso   1.00
C10    C     0.54249   0.52785  -0.15342   0.00000  Uiso   1.00
C11    C     0.47215   0.01464  -0.15342   0.00000  Uiso   1.00
C12    C     0.98536   0.45751  -0.15342   0.00000  Uiso   1.00
C13    C     0.47055   0.51408  -0.15436   0.00000  Uiso   1.00
C14    C     0.48592   0.95647  -0.15436   0.00000  Uiso   1.00
C15    C     0.04353   0.52945  -0.15436   0.00000  Uiso   1.00
C16    C     0.52945   0.48592  -0.15436   0.00000  Uiso   1.00
C17    C     0.51408   0.04353  -0.15436   0.00000  Uiso   1.00
C18    C     0.95647   0.47055  -0.15436   0.00000  Uiso   1.00
C19    C     0.51261   0.54209  -0.16884   0.00000  Uiso   1.00
C20    C     0.45791   0.97052  -0.16884   0.00000  Uiso   1.00
C21    C     0.02948   0.48739  -0.16884   0.00000  Uiso   1.00
C22    C     0.48739   0.45791  -0.16884   0.00000  Uiso   1.00
C23    C     0.54209   0.02948  -0.16884   0.00000  Uiso   1.00
C24    C     0.97052   0.51261  -0.16884   0.00000  Uiso   1.00
C25    C     0.44017   0.52919  -0.17531   0.00000  Uiso   1.00
C26    C     0.47081   0.91098  -0.17531   0.00000  Uiso   1.00
C27    C     0.08902   0.55983  -0.17531   0.00000  Uiso   1.00
C28    C     0.55983   0.47081  -0.17531   0.00000  Uiso   1.00
C29    C     0.52919   0.08902  -0.17531   0.00000  Uiso   1.00
C30    C     0.91098   0.44017  -0.17531   0.00000  Uiso   1.00
N31    N     0.44942   0.56253   0.07669   0.00000  Uiso   1.00
N32    N     0.43747   0.88689   0.07669   0.00000  Uiso   1.00
N33    N     0.11311   0.55058   0.07669   0.00000  Uiso   1.00
N34    N     0.55058   0.43747   0.07669   0.00000  Uiso   1.00
N35    N     0.56253   0.11311   0.07669   0.00000  Uiso   1.00
N36    N     0.88689   0.44942   0.07669   0.00000  Uiso   1.00
C37    C     0.37708   0.69023   0.06145   0.00000  Uiso   1.00
C38    C     0.30977   0.68685   0.06145   0.00000  Uiso   1.00
C39    C     0.31315   0.62292   0.06145   0.00000  Uiso   1.00
C40    C     0.62292   0.30977   0.06145   0.00000  Uiso   1.00
C41    C     0.69023   0.31315   0.06145   0.00000  Uiso   1.00
C42    C     0.68685   0.37708   0.06145   0.00000  Uiso   1.00
C43    C     0.35518   0.71119   0.06202   0.00000  Uiso   1.00
C44    C     0.28881   0.64399   0.06202   0.00000  Uiso   1.00
C45    C     0.35601   0.64482   0.06202   0.00000  Uiso   1.00
C46    C     0.64482   0.28881   0.06202   0.00000  Uiso   1.00
C47    C     0.71119   0.35601   0.06202   0.00000  Uiso   1.00
C48    C     0.64399   0.35518   0.06202   0.00000  Uiso   1.00
C49    C     0.84330   0.42582   0.06937   0.00000  Uiso   1.00
C50    C     0.57418   0.41748   0.06937   0.00000  Uiso   1.00
C51    C     0.58252   0.15670   0.06937   0.00000  Uiso   1.00
C52    C     0.15670   0.57418   0.06937   0.00000  Uiso   1.00
C53    C     0.42582   0.58252   0.06937   0.00000  Uiso   1.00
C54    C     0.41748   0.84330   0.06937   0.00000  Uiso   1.00
C55    C     0.75693   0.38009   0.06424   0.00000  Uiso   1.00
C56    C     0.61991   0.37684   0.06424   0.00000  Uiso   1.00
C57    C     0.62316   0.24307   0.06424   0.00000  Uiso   1.00
C58    C     0.24307   0.61991   0.06424   0.00000  Uiso   1.00
C59    C     0.38009   0.62316   0.06424   0.00000  Uiso   1.00
C60    C     0.37684   0.75693   0.06424   0.00000  Uiso   1.00
C61    C     0.82281   0.38626   0.21231   0.00000  Uiso   1.00
C62    C     0.61374   0.43655   0.21231   0.00000  Uiso   1.00
C63    C     0.56345   0.17719   0.21231   0.00000  Uiso   1.00
C64    C     0.17719   0.61374   0.21231   0.00000  Uiso   1.00
C65    C     0.38626   0.56345   0.21231   0.00000  Uiso   1.00
C66    C     0.43655   0.82281   0.21231   0.00000  Uiso   1.00
C67    C     0.82077   0.44270  -0.07332   0.00000  Uiso   1.00
C68    C     0.55730   0.37807  -0.07332   0.00000  Uiso   1.00
C69    C     0.62193   0.17923  -0.07332   0.00000  Uiso   1.00
C70    C     0.17923   0.55730  -0.07332   0.00000  Uiso   1.00
C71    C     0.44270   0.62193  -0.07332   0.00000  Uiso   1.00
C72    C     0.37807   0.82077  -0.07332   0.00000  Uiso   1.00
C73    C     0.78010   0.36382   0.21471   0.00000  Uiso   1.00
C74    C     0.63618   0.41628   0.21471   0.00000  Uiso   1.00
C75    C     0.58372   0.21990   0.21471   0.00000  Uiso   1.00
C76    C     0.21990   0.63618   0.21471   0.00000  Uiso   1.00
C77    C     0.36382   0.58372   0.21471   0.00000  Uiso   1.00
C78    C     0.41628   0.78010   0.21471   0.00000  Uiso   1.00
C79    C     0.77808   0.41987  -0.08230   0.00000  Uiso   1.00
C80    C     0.58013   0.35821  -0.08230   0.00000  Uiso   1.00
C81    C     0.64179   0.22192  -0.08230   0.00000  Uiso   1.00
C82    C     0.22192   0.58013  -0.08230   0.00000  Uiso   1.00
C83    C     0.41987   0.64179  -0.08230   0.00000  Uiso   1.00
C84    C     0.35821   0.77808  -0.08230   0.00000  Uiso   1.00
H85    H     0.42534   0.44935  -0.15617   0.00000  Uiso   1.00
H86    H     0.55065   0.97599  -0.15617   0.00000  Uiso   1.00
H87    H     0.02401   0.57466  -0.15617   0.00000  Uiso   1.00
H88    H     0.57466   0.55065  -0.15617   0.00000  Uiso   1.00
H89    H     0.44935   0.02401  -0.15617   0.00000  Uiso   1.00
H90    H     0.97599   0.42534  -0.15617   0.00000  Uiso   1.00
H91    H     0.52385   0.57455  -0.19408   0.00000  Uiso   1.00
H92    H     0.42545   0.94930  -0.19408   0.00000  Uiso   1.00
H93    H     0.05070   0.47615  -0.19408   0.00000  Uiso   1.00
H94    H     0.47615   0.42545  -0.19408   0.00000  Uiso   1.00
H95    H     0.57455   0.05070  -0.19408   0.00000  Uiso   1.00
H96    H     0.94930   0.52385  -0.19408   0.00000  Uiso   1.00
H97    H     0.47873   0.57924   0.18643   0.00000  Uiso   1.00
H98    H     0.42076   0.89949   0.18643   0.00000  Uiso   1.00
H99    H     0.10051   0.52127   0.18643   0.00000  Uiso   1.00
H100   H     0.52127   0.42076   0.18643   0.00000  Uiso   1.00
H101   H     0.57924   0.10051   0.18643   0.00000  Uiso   1.00
H102   H     0.89949   0.47873   0.18643   0.00000  Uiso   1.00
H103   H     0.41004   0.70731   0.06051   0.00000  Uiso   1.00
H104   H     0.29269   0.70273   0.06051   0.00000  Uiso   1.00
H105   H     0.29727   0.58996   0.06051   0.00000  Uiso   1.00
H106   H     0.58996   0.29269   0.06051   0.00000  Uiso   1.00
H107   H     0.70731   0.29727   0.06051   0.00000  Uiso   1.00
H108   H     0.70273   0.41004   0.06051   0.00000  Uiso   1.00
H109   H     0.83987   0.37324   0.33200   0.00000  Uiso   1.00
H110   H     0.62676   0.46663   0.33200   0.00000  Uiso   1.00
H111   H     0.53337   0.16013   0.33200   0.00000  Uiso   1.00
H112   H     0.16013   0.62676   0.33200   0.00000  Uiso   1.00
H113   H     0.37324   0.53337   0.33200   0.00000  Uiso   1.00
H114   H     0.46663   0.83987   0.33200   0.00000  Uiso   1.00
H115   H     0.83640   0.47322  -0.18653   0.00000  Uiso   1.00
H116   H     0.52678   0.36318  -0.18653   0.00000  Uiso   1.00
H117   H     0.63682   0.16360  -0.18653   0.00000  Uiso   1.00
H118   H     0.16360   0.52678  -0.18653   0.00000  Uiso   1.00
H119   H     0.47322   0.63682  -0.18653   0.00000  Uiso   1.00
H120   H     0.36318   0.83640  -0.18653   0.00000  Uiso   1.00
H121   H     0.76555   0.33421   0.34401   0.00000  Uiso   1.00
H122   H     0.66579   0.43134   0.34401   0.00000  Uiso   1.00
H123   H     0.56866   0.23445   0.34401   0.00000  Uiso   1.00
H124   H     0.23445   0.66579   0.34401   0.00000  Uiso   1.00
H125   H     0.33421   0.56866   0.34401   0.00000  Uiso   1.00
H126   H     0.43134   0.76555   0.34401   0.00000  Uiso   1.00
H127   H     0.76201   0.43333  -0.21225   0.00000  Uiso   1.00
H128   H     0.56667   0.32868  -0.21225   0.00000  Uiso   1.00
H129   H     0.67132   0.23799  -0.21225   0.00000  Uiso   1.00
H130   H     0.23799   0.56667  -0.21225   0.00000  Uiso   1.00
H131   H     0.43333   0.67132  -0.21225   0.00000  Uiso   1.00
H132   H     0.32868   0.76201  -0.21225   0.00000  Uiso   1.00
loop_
_geom_bond_atom_site_label_1
_geom_bond_atom_site_label_2
_geom_bond_distance
_geom_bond_site_symmetry_2
_ccdc_geom_bond_type
O1     C27     1.359   .     D
O2     C25     1.359   .     D
O3     C26     1.359   .     D
O4     C30     1.359   .     D
O5     C28     1.359   .     D
O6     C29     1.359   .     D
C7     C13     1.358   .     D
C7     C22     1.426   .     S
C7     H85     1.047   .     S
C8     C14     1.358   .     S
C8     C23     1.426   1_565 D
C8     H86     1.047   .     S
C9     C15     1.358   .     D
C9     C24     1.426   1_455 S
C9     H87     1.047   .     S
C10    C16     1.358   .     S
C10    C19     1.426   .     D
C10    H88     1.047   .     S
C11    C17     1.358   .     D
C11    C20     1.426   1_545 S
C11    H89     1.047   .     S
C12    C18     1.358   .     S
C12    C21     1.426   1_655 D
C12    H90     1.047   .     S
C13    C19     1.356   .     S
C13    C25     1.469   .     S
C14    C20     1.356   .     D
C14    C26     1.469   .     S
C15    C21     1.356   .     S
C15    C27     1.469   .     S
C16    C22     1.356   .     D
C16    C28     1.469   .     S
C17    C23     1.356   .     S
C17    C29     1.469   .     S
C18    C24     1.356   .     D
C18    C30     1.469   .     S
C19    H91     1.048   .     S
C20    C11     1.426   1_565 S
C20    H92     1.048   .     S
C21    C12     1.426   1_455 D
C21    H93     1.048   .     S
C22    H94     1.048   .     S
C23    C8      1.426   1_545 D
C23    H95     1.048   .     S
C24    C9      1.426   1_655 S
C24    H96     1.048   .     S
C25    N31     1.493   .     S
C26    N32     1.493   .     S
C27    N33     1.493   .     S
C28    N34     1.493   .     S
C29    N35     1.493   .     S
C30    N36     1.493   .     S
N31    C53     1.381   .     S
N31    H97     1.031   .     S
N32    C54     1.381   .     S
N32    H98     1.031   .     S
N33    C52     1.381   .     S
N33    H99     1.031   .     S
N34    C50     1.381   .     S
N34    H100    1.031   .     S
N35    C51     1.381   .     S
N35    H101    1.031   .     S
N36    C49     1.381   .     S
N36    H102    1.031   .     S
C37    C43     1.356   .     D
C37    C45     1.438   .     S
C37    H103    1.043   .     S
C38    C43     1.438   .     S
C38    C44     1.356   .     D
C38    H104    1.043   .     S
C39    C44     1.438   .     S
C39    C45     1.356   .     D
C39    H105    1.043   .     S
C40    C46     1.356   .     D
C40    C48     1.438   .     S
C40    H106    1.043   .     S
C41    C46     1.438   .     S
C41    C47     1.356   .     D
C41    H107    1.043   .     S
C42    C47     1.438   .     S
C42    C48     1.356   .     D
C42    H108    1.043   .     S
C43    C60     1.448   .     S
C44    C58     1.448   .     S
C45    C59     1.448   .     S
C46    C57     1.448   .     S
C47    C55     1.448   .     S
C48    C56     1.448   .     S
C49    C61     1.380   .     D
C49    C67     1.378   .     S
C50    C62     1.380   .     D
C50    C68     1.378   .     S
C51    C63     1.380   .     D
C51    C69     1.378   .     S
C52    C64     1.380   .     D
C52    C70     1.378   .     S
C53    C65     1.380   .     D
C53    C71     1.378   .     S
C54    C66     1.380   .     D
C54    C72     1.378   .     S
C55    C73     1.395   .     D
C55    C79     1.393   .     S
C56    C74     1.395   .     D
C56    C80     1.393   .     S
C57    C75     1.395   .     D
C57    C81     1.393   .     S
C58    C76     1.395   .     D
C58    C82     1.393   .     S
C59    C77     1.395   .     D
C59    C83     1.393   .     S
C60    C78     1.395   .     D
C60    C84     1.393   .     S
C61    C73     1.352   .     S
C61    H109    1.071   .     S
C62    C74     1.352   .     S
C62    H110    1.071   .     S
C63    C75     1.352   .     S
C63    H111    1.071   .     S
C64    C76     1.352   .     S
C64    H112    1.071   .     S
C65    C77     1.352   .     S
C65    H113    1.071   .     S
C66    C78     1.352   .     S
C66    H114    1.071   .     S
C67    C79     1.352   .     D
C67    H115    1.069   .     S
C68    C80     1.352   .     D
C68    H116    1.069   .     S
C69    C81     1.352   .     D
C69    H117    1.069   .     S
C70    C82     1.352   .     D
C70    H118    1.069   .     S
C71    C83     1.352   .     D
C71    H119    1.069   .     S
C72    C84     1.352   .     D
C72    H120    1.069   .     S
C73    H121    1.074   .     S
C74    H122    1.074   .     S
C75    H123    1.074   .     S
C76    H124    1.074   .     S
C77    H125    1.074   .     S
C78    H126    1.074   .     S
C79    H127    1.074   .     S
C80    H128    1.074   .     S
C81    H129    1.074   .     S
C82    H130    1.074   .     S
C83    H131    1.074   .     S
C84    H132    1.074   .     S
