data_533
_audit_creation_date              2023-09-08
_audit_creation_method            'Materials Studio'
_symmetry_space_group_name_H-M    'P1'
_symmetry_Int_Tables_number       1
_symmetry_cell_setting            triclinic
loop_
_symmetry_equiv_pos_as_xyz
  x,y,z
_cell_length_a                    22.5560
_cell_length_b                    22.5560
_cell_length_c                    3.5000
_cell_angle_alpha                 90.0000
_cell_angle_beta                  90.0000
_cell_angle_gamma                 120.0000
loop_
_atom_site_label
_atom_site_type_symbol
_atom_site_fract_x
_atom_site_fract_y
_atom_site_fract_z
_atom_site_U_iso_or_equiv
_atom_site_adp_type
_atom_site_occupancy
O1     O     0.28355   0.52709   0.50000   0.00000  Uiso   1.00
N2     N     0.41129   0.55212   0.50000   0.00000  Uiso   1.00
C3     C     0.30695   0.59146   0.50000   0.00000  Uiso   1.00
C4     C     0.38113   0.64063   0.50000   0.00000  Uiso   1.00
C5     C     0.42797   0.61784   0.50000   0.00000  Uiso   1.00
C6     C     0.45481   0.52704   0.50000   0.00000  Uiso   1.00
C7     C     0.42936   0.45590   0.50000   0.00000  Uiso   1.00
C8     C     0.52674   0.57065   0.50000   0.00000  Uiso   1.00
H9     H     0.37353   0.42043   0.50000   0.00000  Uiso   1.00
H10    H     0.48370   0.65597   0.50000   0.00000  Uiso   1.00
H11    H     0.54893   0.62685   0.50000   0.00000  Uiso   1.00
H12    H     0.35757   0.51744   0.50000   0.00000  Uiso   1.00
O13    O     0.47291   0.75646   0.50000   0.00000  Uiso   1.00
N14    N     0.44788   0.85917   0.50000   0.00000  Uiso   1.00
C15    C     0.40854   0.71549   0.50000   0.00000  Uiso   1.00
C16    C     0.35937   0.74050   0.50000   0.00000  Uiso   1.00
C17    C     0.38216   0.81013   0.50000   0.00000  Uiso   1.00
C18    C     0.47296   0.92777   0.50000   0.00000  Uiso   1.00
C19    C     0.54410   0.97346   0.50000   0.00000  Uiso   1.00
C20    C     0.42935   0.95609   0.50000   0.00000  Uiso   1.00
H21    H     0.57957   0.95310   0.50000   0.00000  Uiso   1.00
H22    H     0.34403   0.82773   0.50000   0.00000  Uiso   1.00
H23    H     0.37315   0.92208   0.50000   0.00000  Uiso   1.00
H24    H     0.48256   0.84013   0.50000   0.00000  Uiso   1.00
O25    O     0.24354   0.71645   0.50000   0.00000  Uiso   1.00
N26    N     0.14083   0.58871   0.50000   0.00000  Uiso   1.00
C27    C     0.28451   0.69305   0.50000   0.00000  Uiso   1.00
C28    C     0.25950   0.61887   0.50000   0.00000  Uiso   1.00
C29    C     0.18987   0.57203   0.50000   0.00000  Uiso   1.00
C30    C     0.07223   0.54519   0.50000   0.00000  Uiso   1.00
C31    C     0.02654   0.57064   0.50000   0.00000  Uiso   1.00
C32    C     0.04391   0.47326   0.50000   0.00000  Uiso   1.00
H33    H     0.04690   0.62647   0.50000   0.00000  Uiso   1.00
H34    H     0.17227   0.51630   0.50000   0.00000  Uiso   1.00
H35    H     0.07792   0.45107   0.50000   0.00000  Uiso   1.00
H36    H     0.15987   0.64243   0.50000   0.00000  Uiso   1.00
O37    O     0.71645   0.47291   0.50000   0.00000  Uiso   1.00
N38    N     0.58871   0.44788   0.50000   0.00000  Uiso   1.00
C39    C     0.69305   0.40854   0.50000   0.00000  Uiso   1.00
C40    C     0.61887   0.35937   0.50000   0.00000  Uiso   1.00
C41    C     0.57203   0.38216   0.50000   0.00000  Uiso   1.00
C42    C     0.54519   0.47296   0.50000   0.00000  Uiso   1.00
C43    C     0.57064   0.54410   0.50000   0.00000  Uiso   1.00
C44    C     0.47326   0.42935   0.50000   0.00000  Uiso   1.00
H45    H     0.62647   0.57957   0.50000   0.00000  Uiso   1.00
H46    H     0.51630   0.34403   0.50000   0.00000  Uiso   1.00
H47    H     0.45107   0.37315   0.50000   0.00000  Uiso   1.00
H48    H     0.64243   0.48256   0.50000   0.00000  Uiso   1.00
O49    O     0.52709   0.24354   0.50000   0.00000  Uiso   1.00
N50    N     0.55212   0.14083   0.50000   0.00000  Uiso   1.00
C51    C     0.59146   0.28451   0.50000   0.00000  Uiso   1.00
C52    C     0.64063   0.25950   0.50000   0.00000  Uiso   1.00
C53    C     0.61784   0.18987   0.50000   0.00000  Uiso   1.00
C54    C     0.52704   0.07223   0.50000   0.00000  Uiso   1.00
C55    C     0.45590   0.02654   0.50000   0.00000  Uiso   1.00
C56    C     0.57065   0.04391   0.50000   0.00000  Uiso   1.00
H57    H     0.42043   0.04690   0.50000   0.00000  Uiso   1.00
H58    H     0.65597   0.17227   0.50000   0.00000  Uiso   1.00
H59    H     0.62685   0.07792   0.50000   0.00000  Uiso   1.00
H60    H     0.51744   0.15987   0.50000   0.00000  Uiso   1.00
O61    O     0.75646   0.28355   0.50000   0.00000  Uiso   1.00
N62    N     0.85917   0.41129   0.50000   0.00000  Uiso   1.00
C63    C     0.71549   0.30695   0.50000   0.00000  Uiso   1.00
C64    C     0.74050   0.38113   0.50000   0.00000  Uiso   1.00
C65    C     0.81013   0.42797   0.50000   0.00000  Uiso   1.00
C66    C     0.92777   0.45481   0.50000   0.00000  Uiso   1.00
C67    C     0.97346   0.42936   0.50000   0.00000  Uiso   1.00
C68    C     0.95609   0.52674   0.50000   0.00000  Uiso   1.00
H69    H     0.95310   0.37353   0.50000   0.00000  Uiso   1.00
H70    H     0.82773   0.48370   0.50000   0.00000  Uiso   1.00
H71    H     0.92208   0.54893   0.50000   0.00000  Uiso   1.00
H72    H     0.84013   0.35757   0.50000   0.00000  Uiso   1.00
loop_
_geom_bond_atom_site_label_1
_geom_bond_atom_site_label_2
_geom_bond_distance
_geom_bond_site_symmetry_2
_ccdc_geom_bond_type
O1     C3      1.273   .     D
N2     C5      1.335   .     S
N2     C6      1.356   .     S
N2     H12     1.064   .     S
C3     C4      1.474   .     S
C3     C28     1.480   .     S
C4     C5      1.387   .     D
C4     C15     1.480   .     S
C5     H10     1.113   .     S
C6     C7      1.408   .     S
C6     C8      1.416   .     D
C7     H9      1.104   .     S
C7     C44     1.390   .     D
C8     H11     1.106   .     S
C8     C43     1.390   .     S
O13    C15     1.273   .     D
N14    C17     1.335   .     S
N14    C18     1.356   .     S
N14    H24     1.064   .     S
C15    C16     1.474   .     S
C16    C17     1.387   .     D
C16    C27     1.480   .     S
C17    H22     1.113   .     S
C18    C19     1.408   .     D
C18    C20     1.416   .     S
C19    H21     1.104   .     S
C19    C56     1.390   1_565 S
C20    H23     1.106   .     S
C20    C55     1.390   1_565 D
O25    C27     1.273   .     D
N26    C29     1.335   .     S
N26    C30     1.356   .     S
N26    H36     1.064   .     S
C27    C28     1.474   .     S
C28    C29     1.387   .     D
C29    H34     1.113   .     S
C30    C31     1.408   .     S
C30    C32     1.416   .     D
C31    H33     1.104   .     S
C31    C68     1.390   1_455 D
C32    H35     1.106   .     S
C32    C67     1.390   1_455 S
O37    C39     1.273   .     D
N38    C41     1.335   .     S
N38    C42     1.356   .     S
N38    H48     1.064   .     S
C39    C40     1.474   .     S
C39    C64     1.480   .     S
C40    C41     1.387   .     D
C40    C51     1.480   .     S
C41    H46     1.113   .     S
C42    C43     1.408   .     D
C42    C44     1.416   .     S
C43    H45     1.104   .     S
C44    H47     1.106   .     S
O49    C51     1.273   .     D
N50    C53     1.335   .     S
N50    C54     1.356   .     S
N50    H60     1.064   .     S
C51    C52     1.474   .     S
C52    C53     1.387   .     D
C52    C63     1.480   .     S
C53    H58     1.113   .     S
C54    C55     1.408   .     S
C54    C56     1.416   .     D
C55    C20     1.390   1_545 D
C55    H57     1.104   .     S
C56    C19     1.390   1_545 S
C56    H59     1.106   .     S
O61    C63     1.273   .     D
N62    C65     1.335   .     S
N62    C66     1.356   .     S
N62    H72     1.064   .     S
C63    C64     1.474   .     S
C64    C65     1.387   .     D
C65    H70     1.113   .     S
C66    C67     1.408   .     D
C66    C68     1.416   .     S
C67    C32     1.390   1_655 S
C67    H69     1.104   .     S
C68    C31     1.390   1_655 D
C68    H71     1.106   .     S
