data_534
_audit_creation_date              2023-09-08
_audit_creation_method            'Materials Studio'
_symmetry_space_group_name_H-M    'P1'
_symmetry_Int_Tables_number       1
_symmetry_cell_setting            triclinic
loop_
_symmetry_equiv_pos_as_xyz
  x,y,z
_cell_length_a                    37.5330
_cell_length_b                    37.5330
_cell_length_c                    3.4900
_cell_angle_alpha                 90.0000
_cell_angle_beta                  90.0000
_cell_angle_gamma                 120.0000
loop_
_atom_site_label
_atom_site_type_symbol
_atom_site_fract_x
_atom_site_fract_y
_atom_site_fract_z
_atom_site_U_iso_or_equiv
_atom_site_adp_type
_atom_site_occupancy
C1     C     0.29120   0.64446   0.48212   0.00000  Uiso   1.00
N2     N     0.31391   0.62560   0.48228   0.00000  Uiso   1.00
C3     C     0.24781   0.62159   0.48001   0.00000  Uiso   1.00
C4     C     0.35906   0.58335   0.41166   0.00000  Uiso   1.00
C5     C     0.38180   0.56291   0.40700   0.00000  Uiso   1.00
C6     C     0.42461   0.58436   0.47712   0.00000  Uiso   1.00
C7     C     0.44408   0.62723   0.54194   0.00000  Uiso   1.00
C8     C     0.42143   0.64778   0.54362   0.00000  Uiso   1.00
C9     C     0.44925   0.56571   0.47588   0.00000  Uiso   1.00
C10    C     0.43999   0.52643   0.61576   0.00000  Uiso   1.00
C11    C     0.46974   0.51336   0.61964   0.00000  Uiso   1.00
C12    C     0.45814   0.47110   0.61994   0.00000  Uiso   1.00
C13    C     0.48739   0.45821   0.62963   0.00000  Uiso   1.00
H14    H     0.32809   0.56649   0.36039   0.00000  Uiso   1.00
H15    H     0.36660   0.53222   0.34578   0.00000  Uiso   1.00
H16    H     0.47511   0.64400   0.59121   0.00000  Uiso   1.00
H17    H     0.43680   0.67880   0.59408   0.00000  Uiso   1.00
H18    H     0.57225   0.55124   0.61457   0.00000  Uiso   1.00
H19    H     0.47765   0.58366   0.35749   0.00000  Uiso   1.00
H20    H     0.47636   0.42729   0.64697   0.00000  Uiso   1.00
C21    C     0.40310   0.50111   0.74965   0.00000  Uiso   1.00
N22    N     0.37078   0.47838   0.86250   0.00000  Uiso   1.00
C23    C     0.35554   0.64675   0.48212   0.00000  Uiso   1.00
N24    N     0.37441   0.68831   0.48228   0.00000  Uiso   1.00
C25    C     0.37841   0.62621   0.48001   0.00000  Uiso   1.00
C26    C     0.41665   0.77571   0.41166   0.00000  Uiso   1.00
C27    C     0.43709   0.81889   0.40700   0.00000  Uiso   1.00
C28    C     0.41564   0.84025   0.47712   0.00000  Uiso   1.00
C29    C     0.37277   0.81685   0.54194   0.00000  Uiso   1.00
C30    C     0.35222   0.77365   0.54362   0.00000  Uiso   1.00
C31    C     0.43429   0.88354   0.47588   0.00000  Uiso   1.00
C32    C     0.47357   0.91356   0.61576   0.00000  Uiso   1.00
C33    C     0.48664   0.95638   0.61964   0.00000  Uiso   1.00
C34    C     0.52890   0.98704   0.61994   0.00000  Uiso   1.00
C35    C     0.54179   0.02918   0.62963   0.00000  Uiso   1.00
H36    H     0.43351   0.76159   0.36039   0.00000  Uiso   1.00
H37    H     0.46778   0.83437   0.34578   0.00000  Uiso   1.00
H38    H     0.35600   0.83111   0.59121   0.00000  Uiso   1.00
H39    H     0.32120   0.75800   0.59408   0.00000  Uiso   1.00
H40    H     0.44876   0.02100   0.61457   0.00000  Uiso   1.00
H41    H     0.41635   0.89400   0.35749   0.00000  Uiso   1.00
H42    H     0.57271   0.04907   0.64697   0.00000  Uiso   1.00
C43    C     0.49889   0.90199   0.74965   0.00000  Uiso   1.00
N44    N     0.52162   0.89240   0.86250   0.00000  Uiso   1.00
C45    C     0.35325   0.70880   0.48212   0.00000  Uiso   1.00
N46    N     0.31169   0.68609   0.48228   0.00000  Uiso   1.00
C47    C     0.37379   0.75220   0.48001   0.00000  Uiso   1.00
C48    C     0.22429   0.64094   0.41166   0.00000  Uiso   1.00
C49    C     0.18111   0.61820   0.40700   0.00000  Uiso   1.00
C50    C     0.15975   0.57539   0.47712   0.00000  Uiso   1.00
C51    C     0.18315   0.55592   0.54194   0.00000  Uiso   1.00
C52    C     0.22635   0.57857   0.54362   0.00000  Uiso   1.00
C53    C     0.11646   0.55075   0.47588   0.00000  Uiso   1.00
C54    C     0.08644   0.56002   0.61576   0.00000  Uiso   1.00
C55    C     0.04362   0.53026   0.61964   0.00000  Uiso   1.00
C56    C     0.01296   0.54186   0.61994   0.00000  Uiso   1.00
C57    C     0.97082   0.51261   0.62963   0.00000  Uiso   1.00
H58    H     0.23841   0.67192   0.36039   0.00000  Uiso   1.00
H59    H     0.16563   0.63340   0.34578   0.00000  Uiso   1.00
H60    H     0.16889   0.52489   0.59121   0.00000  Uiso   1.00
H61    H     0.24201   0.56320   0.59408   0.00000  Uiso   1.00
H62    H     0.97900   0.42775   0.61457   0.00000  Uiso   1.00
H63    H     0.10600   0.52235   0.35749   0.00000  Uiso   1.00
H64    H     0.95093   0.52364   0.64697   0.00000  Uiso   1.00
C65    C     0.09801   0.59690   0.74965   0.00000  Uiso   1.00
N66    N     0.10760   0.62922   0.86250   0.00000  Uiso   1.00
C67    C     0.70880   0.35554   0.48212   0.00000  Uiso   1.00
N68    N     0.68609   0.37441   0.48228   0.00000  Uiso   1.00
C69    C     0.75220   0.37841   0.48001   0.00000  Uiso   1.00
C70    C     0.64094   0.41665   0.41166   0.00000  Uiso   1.00
C71    C     0.61820   0.43709   0.40700   0.00000  Uiso   1.00
C72    C     0.57539   0.41564   0.47712   0.00000  Uiso   1.00
C73    C     0.55592   0.37277   0.54194   0.00000  Uiso   1.00
C74    C     0.57857   0.35222   0.54362   0.00000  Uiso   1.00
C75    C     0.55075   0.43429   0.47588   0.00000  Uiso   1.00
C76    C     0.56002   0.47357   0.61576   0.00000  Uiso   1.00
C77    C     0.53026   0.48664   0.61964   0.00000  Uiso   1.00
C78    C     0.54186   0.52890   0.61994   0.00000  Uiso   1.00
C79    C     0.51261   0.54179   0.62963   0.00000  Uiso   1.00
H80    H     0.67192   0.43351   0.36039   0.00000  Uiso   1.00
H81    H     0.63340   0.46778   0.34578   0.00000  Uiso   1.00
H82    H     0.52489   0.35600   0.59121   0.00000  Uiso   1.00
H83    H     0.56320   0.32120   0.59408   0.00000  Uiso   1.00
H84    H     0.42775   0.44876   0.61457   0.00000  Uiso   1.00
H85    H     0.52235   0.41635   0.35749   0.00000  Uiso   1.00
H86    H     0.52364   0.57271   0.64697   0.00000  Uiso   1.00
C87    C     0.59690   0.49889   0.74965   0.00000  Uiso   1.00
N88    N     0.62922   0.52162   0.86250   0.00000  Uiso   1.00
C89    C     0.64446   0.35325   0.48212   0.00000  Uiso   1.00
N90    N     0.62560   0.31169   0.48228   0.00000  Uiso   1.00
C91    C     0.62159   0.37379   0.48001   0.00000  Uiso   1.00
C92    C     0.58335   0.22429   0.41166   0.00000  Uiso   1.00
C93    C     0.56291   0.18111   0.40700   0.00000  Uiso   1.00
C94    C     0.58436   0.15975   0.47712   0.00000  Uiso   1.00
C95    C     0.62723   0.18315   0.54194   0.00000  Uiso   1.00
C96    C     0.64778   0.22635   0.54362   0.00000  Uiso   1.00
C97    C     0.56571   0.11646   0.47588   0.00000  Uiso   1.00
C98    C     0.52643   0.08644   0.61576   0.00000  Uiso   1.00
C99    C     0.51336   0.04362   0.61964   0.00000  Uiso   1.00
C100   C     0.47110   0.01296   0.61994   0.00000  Uiso   1.00
C101   C     0.45821   0.97082   0.62963   0.00000  Uiso   1.00
H102   H     0.56649   0.23841   0.36039   0.00000  Uiso   1.00
H103   H     0.53222   0.16563   0.34578   0.00000  Uiso   1.00
H104   H     0.64400   0.16889   0.59121   0.00000  Uiso   1.00
H105   H     0.67880   0.24200   0.59408   0.00000  Uiso   1.00
H106   H     0.55124   0.97900   0.61457   0.00000  Uiso   1.00
H107   H     0.58366   0.10600   0.35749   0.00000  Uiso   1.00
H108   H     0.42729   0.95093   0.64697   0.00000  Uiso   1.00
C109   C     0.50111   0.09801   0.74965   0.00000  Uiso   1.00
N110   N     0.47838   0.10760   0.86250   0.00000  Uiso   1.00
C111   C     0.64675   0.29120   0.48212   0.00000  Uiso   1.00
N112   N     0.68831   0.31391   0.48228   0.00000  Uiso   1.00
C113   C     0.62621   0.24781   0.48001   0.00000  Uiso   1.00
C114   C     0.77571   0.35906   0.41166   0.00000  Uiso   1.00
C115   C     0.81889   0.38180   0.40700   0.00000  Uiso   1.00
C116   C     0.84025   0.42461   0.47712   0.00000  Uiso   1.00
C117   C     0.81685   0.44408   0.54194   0.00000  Uiso   1.00
C118   C     0.77365   0.42143   0.54362   0.00000  Uiso   1.00
C119   C     0.88354   0.44925   0.47588   0.00000  Uiso   1.00
C120   C     0.91356   0.43998   0.61576   0.00000  Uiso   1.00
C121   C     0.95638   0.46974   0.61964   0.00000  Uiso   1.00
C122   C     0.98704   0.45814   0.61994   0.00000  Uiso   1.00
C123   C     0.02918   0.48739   0.62963   0.00000  Uiso   1.00
H124   H     0.76159   0.32809   0.36039   0.00000  Uiso   1.00
H125   H     0.83437   0.36660   0.34578   0.00000  Uiso   1.00
H126   H     0.83111   0.47511   0.59121   0.00000  Uiso   1.00
H127   H     0.75800   0.43680   0.59408   0.00000  Uiso   1.00
H128   H     0.02100   0.57225   0.61457   0.00000  Uiso   1.00
H129   H     0.89400   0.47765   0.35749   0.00000  Uiso   1.00
H130   H     0.04907   0.47636   0.64697   0.00000  Uiso   1.00
C131   C     0.90199   0.40310   0.74965   0.00000  Uiso   1.00
N132   N     0.89240   0.37078   0.86250   0.00000  Uiso   1.00
loop_
_geom_bond_atom_site_label_1
_geom_bond_atom_site_label_2
_geom_bond_distance
_geom_bond_site_symmetry_2
_ccdc_geom_bond_type
C1     N2      1.353   .     D
C1     C3      1.411   .     S
C1     N46     1.353   .     S
N2     C23     1.353   .     S
C3     C48     1.416   .     D
C3     C52     1.416   .     S
C4     C5      1.404   .     S
C4     H14     1.024   .     S
C4     C25     1.416   .     D
C5     C6      1.413   .     D
C5     H15     1.020   .     S
C6     C7      1.414   .     S
C6     C9      1.412   .     S
C7     C8      1.405   .     D
C7     H16     1.024   .     S
C8     H17     1.024   .     S
C8     C25     1.416   .     S
C9     C10     1.421   .     D
C9     H19     1.021   .     S
C10    C11     1.427   .     S
C10    C21     1.312   .     S
C11    C12     1.420   .     D
C11    C79     1.418   .     S
C12    C13     1.404   .     S
C12    H84     1.024   .     S
C13    H20     1.021   .     S
C13    C77     1.418   .     D
H18    C78     1.024   .     S
C21    N22     1.149   .     T
C23    N24     1.353   .     D
C23    C25     1.411   .     S
N24    C45     1.353   .     S
C26    C27     1.404   .     S
C26    H36     1.024   .     S
C26    C47     1.416   .     D
C27    C28     1.413   .     D
C27    H37     1.020   .     S
C28    C29     1.414   .     S
C28    C31     1.412   .     S
C29    C30     1.405   .     D
C29    H38     1.024   .     S
C30    H39     1.024   .     S
C30    C47     1.416   .     S
C31    C32     1.421   .     D
C31    H41     1.021   .     S
C32    C33     1.427   .     S
C32    C43     1.312   .     S
C33    C34     1.420   .     D
C33    C101    1.418   .     S
C34    C35     1.404   1_565 S
C34    H106    1.024   .     S
C35    C34     1.404   1_545 S
C35    H42     1.021   .     S
C35    C99     1.418   .     D
H40    C100    1.024   .     S
C43    N44     1.149   .     T
C45    N46     1.353   .     D
C45    C47     1.411   .     S
C48    C49     1.404   .     S
C48    H58     1.024   .     S
C49    C50     1.413   .     D
C49    H59     1.020   .     S
C50    C51     1.414   .     S
C50    C53     1.412   .     S
C51    C52     1.405   .     D
C51    H60     1.024   .     S
C52    H61     1.024   .     S
C53    C54     1.421   .     D
C53    H63     1.021   .     S
C54    C55     1.427   .     S
C54    C65     1.312   .     S
C55    C56     1.420   .     D
C55    C123    1.418   .     S
C56    C57     1.404   1_455 S
C56    H128    1.024   .     S
C57    C56     1.404   1_655 S
C57    H64     1.021   .     S
C57    C121    1.418   .     D
H62    C122    1.024   .     S
C65    N66     1.149   .     T
C67    N68     1.353   .     D
C67    C69     1.411   .     S
C67    N112    1.353   .     S
N68    C89     1.353   .     S
C69    C114    1.416   .     D
C69    C118    1.416   .     S
C70    C71     1.404   .     S
C70    H80     1.024   .     S
C70    C91     1.416   .     D
C71    C72     1.413   .     D
C71    H81     1.020   .     S
C72    C73     1.414   .     S
C72    C75     1.412   .     S
C73    C74     1.405   .     D
C73    H82     1.024   .     S
C74    H83     1.024   .     S
C74    C91     1.416   .     S
C75    C76     1.421   .     D
C75    H85     1.021   .     S
C76    C77     1.427   .     S
C76    C87     1.312   .     S
C77    C78     1.420   .     S
C78    C79     1.404   .     D
C79    H86     1.021   .     S
C87    N88     1.149   .     T
C89    N90     1.353   .     D
C89    C91     1.411   .     S
N90    C111    1.353   .     S
C92    C93     1.404   .     S
C92    H102    1.024   .     S
C92    C113    1.416   .     D
C93    C94     1.413   .     D
C93    H103    1.020   .     S
C94    C95     1.414   .     S
C94    C97     1.412   .     S
C95    C96     1.405   .     D
C95    H104    1.024   .     S
C96    H105    1.024   .     S
C96    C113    1.416   .     S
C97    C98     1.421   .     D
C97    H107    1.021   .     S
C98    C99     1.427   .     S
C98    C109    1.312   .     S
C99    C100    1.420   .     S
C100   C101    1.404   1_545 D
C101   C100    1.404   1_565 D
C101   H108    1.021   .     S
C109   N110    1.149   .     T
C111   N112    1.353   .     D
C111   C113    1.411   .     S
C114   C115    1.404   .     S
C114   H124    1.024   .     S
C115   C116    1.413   .     D
C115   H125    1.020   .     S
C116   C117    1.414   .     S
C116   C119    1.412   .     S
C117   C118    1.405   .     D
C117   H126    1.024   .     S
C118   H127    1.024   .     S
C119   C120    1.421   .     D
C119   H129    1.021   .     S
C120   C121    1.427   .     S
C120   C131    1.312   .     S
C121   C122    1.420   .     S
C122   C123    1.404   1_655 D
C123   C122    1.404   1_455 D
C123   H130    1.021   .     S
C131   N132    1.149   .     T
