data_535
_audit_creation_date              2023-09-08
_audit_creation_method            'Materials Studio'
_symmetry_space_group_name_H-M    'P1'
_symmetry_Int_Tables_number       1
_symmetry_cell_setting            triclinic
loop_
_symmetry_equiv_pos_as_xyz
  x,y,z
_cell_length_a                    37.5330
_cell_length_b                    37.5330
_cell_length_c                    6.9800
_cell_angle_alpha                 90.0000
_cell_angle_beta                  90.0000
_cell_angle_gamma                 120.0000
loop_
_atom_site_label
_atom_site_type_symbol
_atom_site_fract_x
_atom_site_fract_y
_atom_site_fract_z
_atom_site_U_iso_or_equiv
_atom_site_adp_type
_atom_site_occupancy
C1     C     0.95787   0.97779   0.24106   0.00000  Uiso   1.00
N2     N     0.98058   0.95893   0.24114   0.00000  Uiso   1.00
C3     C     0.91447   0.95493   0.24001   0.00000  Uiso   1.00
C4     C     0.02573   0.91668   0.20583   0.00000  Uiso   1.00
C5     C     0.04847   0.89624   0.20350   0.00000  Uiso   1.00
C6     C     0.09128   0.91769   0.23856   0.00000  Uiso   1.00
C7     C     0.11074   0.96056   0.27097   0.00000  Uiso   1.00
C8     C     0.08810   0.98111   0.27181   0.00000  Uiso   1.00
C9     C     0.11591   0.89904   0.23794   0.00000  Uiso   1.00
C10    C     0.10665   0.85976   0.30788   0.00000  Uiso   1.00
C11    C     0.13640   0.84670   0.30982   0.00000  Uiso   1.00
C12    C     0.12480   0.80443   0.30997   0.00000  Uiso   1.00
C13    C     0.15406   0.79154   0.31482   0.00000  Uiso   1.00
H14    H     0.99475   0.89983   0.18019   0.00000  Uiso   1.00
H15    H     0.03326   0.86556   0.17289   0.00000  Uiso   1.00
H16    H     0.14178   0.97734   0.29561   0.00000  Uiso   1.00
H17    H     0.10346   0.01214   0.29704   0.00000  Uiso   1.00
H18    H     0.23892   0.88458   0.30729   0.00000  Uiso   1.00
H19    H     0.14432   0.91699   0.17874   0.00000  Uiso   1.00
H20    H     0.14302   0.76062   0.32348   0.00000  Uiso   1.00
C21    C     0.06977   0.83445   0.37483   0.00000  Uiso   1.00
N22    N     0.03745   0.81171   0.43125   0.00000  Uiso   1.00
C23    C     0.37547   0.68888   0.24106   0.00000  Uiso   1.00
N24    N     0.35276   0.70774   0.24114   0.00000  Uiso   1.00
C25    C     0.41886   0.71174   0.24001   0.00000  Uiso   1.00
C26    C     0.30761   0.74999   0.20583   0.00000  Uiso   1.00
C27    C     0.28487   0.77042   0.20350   0.00000  Uiso   1.00
C28    C     0.24206   0.74897   0.23856   0.00000  Uiso   1.00
C29    C     0.22259   0.70610   0.27097   0.00000  Uiso   1.00
C30    C     0.24524   0.68555   0.27181   0.00000  Uiso   1.00
C31    C     0.21742   0.76763   0.23794   0.00000  Uiso   1.00
C32    C     0.22668   0.80691   0.30788   0.00000  Uiso   1.00
C33    C     0.19693   0.81997   0.30982   0.00000  Uiso   1.00
C34    C     0.20853   0.86223   0.30997   0.00000  Uiso   1.00
C35    C     0.17928   0.87512   0.31482   0.00000  Uiso   1.00
H36    H     0.33858   0.76684   0.18019   0.00000  Uiso   1.00
H37    H     0.30007   0.80111   0.17289   0.00000  Uiso   1.00
H38    H     0.19156   0.68933   0.29561   0.00000  Uiso   1.00
H39    H     0.22987   0.65453   0.29704   0.00000  Uiso   1.00
H40    H     0.09442   0.78209   0.30729   0.00000  Uiso   1.00
H41    H     0.18902   0.74968   0.17874   0.00000  Uiso   1.00
H42    H     0.19031   0.90605   0.32348   0.00000  Uiso   1.00
C43    C     0.26357   0.83222   0.37483   0.00000  Uiso   1.00
N44    N     0.29589   0.85496   0.43125   0.00000  Uiso   1.00
C45    C     0.02221   0.98008   0.24106   0.00000  Uiso   1.00
N46    N     0.04107   0.02165   0.24114   0.00000  Uiso   1.00
C47    C     0.04507   0.95955   0.24001   0.00000  Uiso   1.00
C48    C     0.08332   0.10904   0.20583   0.00000  Uiso   1.00
C49    C     0.10376   0.15222   0.20350   0.00000  Uiso   1.00
C50    C     0.08231   0.17358   0.23856   0.00000  Uiso   1.00
C51    C     0.03944   0.15018   0.27097   0.00000  Uiso   1.00
C52    C     0.01889   0.10698   0.27181   0.00000  Uiso   1.00
C53    C     0.10096   0.21688   0.23794   0.00000  Uiso   1.00
C54    C     0.14024   0.24689   0.30788   0.00000  Uiso   1.00
C55    C     0.15331   0.28971   0.30982   0.00000  Uiso   1.00
C56    C     0.19557   0.32037   0.30997   0.00000  Uiso   1.00
C57    C     0.20846   0.36251   0.31482   0.00000  Uiso   1.00
H58    H     0.10017   0.09493   0.18019   0.00000  Uiso   1.00
H59    H     0.13444   0.16771   0.17289   0.00000  Uiso   1.00
H60    H     0.02266   0.16444   0.29561   0.00000  Uiso   1.00
H61    H     0.98786   0.09133   0.29704   0.00000  Uiso   1.00
H62    H     0.11542   0.35434   0.30729   0.00000  Uiso   1.00
H63    H     0.08301   0.22733   0.17874   0.00000  Uiso   1.00
H64    H     0.23938   0.38240   0.32348   0.00000  Uiso   1.00
C65    C     0.16555   0.23532   0.37483   0.00000  Uiso   1.00
N66    N     0.18829   0.22574   0.43125   0.00000  Uiso   1.00
C67    C     0.31112   0.68659   0.24106   0.00000  Uiso   1.00
N68    N     0.29226   0.64502   0.24114   0.00000  Uiso   1.00
C69    C     0.28826   0.70712   0.24001   0.00000  Uiso   1.00
C70    C     0.25001   0.55762   0.20583   0.00000  Uiso   1.00
C71    C     0.22958   0.51444   0.20350   0.00000  Uiso   1.00
C72    C     0.25103   0.49309   0.23856   0.00000  Uiso   1.00
C73    C     0.29390   0.51649   0.27097   0.00000  Uiso   1.00
C74    C     0.31445   0.55968   0.27181   0.00000  Uiso   1.00
C75    C     0.23237   0.44979   0.23794   0.00000  Uiso   1.00
C76    C     0.19310   0.41978   0.30788   0.00000  Uiso   1.00
C77    C     0.18003   0.37696   0.30982   0.00000  Uiso   1.00
C78    C     0.13777   0.34629   0.30997   0.00000  Uiso   1.00
C79    C     0.12488   0.30415   0.31482   0.00000  Uiso   1.00
H80    H     0.23316   0.57174   0.18019   0.00000  Uiso   1.00
H81    H     0.19889   0.49896   0.17289   0.00000  Uiso   1.00
H82    H     0.31067   0.50223   0.29561   0.00000  Uiso   1.00
H83    H     0.34547   0.57534   0.29704   0.00000  Uiso   1.00
H84    H     0.21791   0.31233   0.30729   0.00000  Uiso   1.00
H85    H     0.25032   0.43934   0.17874   0.00000  Uiso   1.00
H86    H     0.09396   0.28427   0.32348   0.00000  Uiso   1.00
C87    C     0.16778   0.43135   0.37483   0.00000  Uiso   1.00
N88    N     0.14505   0.44093   0.43125   0.00000  Uiso   1.00
C89    C     0.01992   0.04213   0.24106   0.00000  Uiso   1.00
N90    N     0.97835   0.01942   0.24114   0.00000  Uiso   1.00
C91    C     0.04046   0.08553   0.24001   0.00000  Uiso   1.00
C92    C     0.89096   0.97427   0.20583   0.00000  Uiso   1.00
C93    C     0.84778   0.95153   0.20350   0.00000  Uiso   1.00
C94    C     0.82642   0.90872   0.23856   0.00000  Uiso   1.00
C95    C     0.84982   0.88926   0.27097   0.00000  Uiso   1.00
C96    C     0.89302   0.91190   0.27181   0.00000  Uiso   1.00
C97    C     0.78313   0.88409   0.23794   0.00000  Uiso   1.00
C98    C     0.75311   0.89335   0.30788   0.00000  Uiso   1.00
C99    C     0.71029   0.86360   0.30982   0.00000  Uiso   1.00
C100   C     0.67963   0.87520   0.30997   0.00000  Uiso   1.00
C101   C     0.63749   0.84594   0.31482   0.00000  Uiso   1.00
H102   H     0.90508   0.00525   0.18019   0.00000  Uiso   1.00
H103   H     0.83229   0.96674   0.17289   0.00000  Uiso   1.00
H104   H     0.83556   0.85822   0.29561   0.00000  Uiso   1.00
H105   H     0.90867   0.89654   0.29704   0.00000  Uiso   1.00
H106   H     0.64566   0.76109   0.30729   0.00000  Uiso   1.00
H107   H     0.77267   0.85568   0.17874   0.00000  Uiso   1.00
H108   H     0.61760   0.85698   0.32348   0.00000  Uiso   1.00
C109   C     0.76468   0.93023   0.37483   0.00000  Uiso   1.00
N110   N     0.77426   0.96255   0.43125   0.00000  Uiso   1.00
C111   C     0.31341   0.62454   0.24106   0.00000  Uiso   1.00
N112   N     0.35498   0.64724   0.24114   0.00000  Uiso   1.00
C113   C     0.29288   0.58114   0.24001   0.00000  Uiso   1.00
C114   C     0.44238   0.69239   0.20583   0.00000  Uiso   1.00
C115   C     0.48556   0.71513   0.20350   0.00000  Uiso   1.00
C116   C     0.50692   0.75794   0.23856   0.00000  Uiso   1.00
C117   C     0.48351   0.77741   0.27097   0.00000  Uiso   1.00
C118   C     0.44032   0.75476   0.27181   0.00000  Uiso   1.00
C119   C     0.55021   0.78258   0.23794   0.00000  Uiso   1.00
C120   C     0.58022   0.77332   0.30788   0.00000  Uiso   1.00
C121   C     0.62304   0.80307   0.30982   0.00000  Uiso   1.00
C122   C     0.65371   0.79147   0.30997   0.00000  Uiso   1.00
C123   C     0.69585   0.82072   0.31482   0.00000  Uiso   1.00
H124   H     0.42826   0.66142   0.18019   0.00000  Uiso   1.00
H125   H     0.50104   0.69993   0.17289   0.00000  Uiso   1.00
H126   H     0.49777   0.80844   0.29561   0.00000  Uiso   1.00
H127   H     0.42466   0.77013   0.29704   0.00000  Uiso   1.00
H128   H     0.68767   0.90558   0.30729   0.00000  Uiso   1.00
H129   H     0.56066   0.81098   0.17874   0.00000  Uiso   1.00
H130   H     0.71573   0.80969   0.32348   0.00000  Uiso   1.00
C131   C     0.56866   0.73643   0.37483   0.00000  Uiso   1.00
N132   N     0.55907   0.70411   0.43125   0.00000  Uiso   1.00
C133   C     0.04213   0.02221   0.74106   0.00000  Uiso   1.00
N134   N     0.01942   0.04107   0.74114   0.00000  Uiso   1.00
C135   C     0.08553   0.04507   0.74001   0.00000  Uiso   1.00
C136   C     0.97427   0.08332   0.70583   0.00000  Uiso   1.00
C137   C     0.95153   0.10376   0.70350   0.00000  Uiso   1.00
C138   C     0.90872   0.08231   0.73856   0.00000  Uiso   1.00
C139   C     0.88926   0.03944   0.77097   0.00000  Uiso   1.00
C140   C     0.91190   0.01889   0.77181   0.00000  Uiso   1.00
C141   C     0.88409   0.10096   0.73794   0.00000  Uiso   1.00
C142   C     0.89335   0.14024   0.80788   0.00000  Uiso   1.00
C143   C     0.86360   0.15330   0.80982   0.00000  Uiso   1.00
C144   C     0.87520   0.19557   0.80997   0.00000  Uiso   1.00
C145   C     0.84594   0.20846   0.81482   0.00000  Uiso   1.00
H146   H     0.00525   0.10017   0.68020   0.00000  Uiso   1.00
H147   H     0.96674   0.13444   0.67289   0.00000  Uiso   1.00
H148   H     0.85822   0.02266   0.79561   0.00000  Uiso   1.00
H149   H     0.89654   0.98786   0.79704   0.00000  Uiso   1.00
H150   H     0.76109   0.11542   0.80729   0.00000  Uiso   1.00
H151   H     0.85568   0.08301   0.67874   0.00000  Uiso   1.00
H152   H     0.85698   0.23938   0.82348   0.00000  Uiso   1.00
C153   C     0.93023   0.16555   0.87483   0.00000  Uiso   1.00
N154   N     0.96255   0.18829   0.93125   0.00000  Uiso   1.00
C155   C     0.62454   0.31112   0.74106   0.00000  Uiso   1.00
N156   N     0.64724   0.29226   0.74114   0.00000  Uiso   1.00
C157   C     0.58114   0.28826   0.74001   0.00000  Uiso   1.00
C158   C     0.69239   0.25001   0.70583   0.00000  Uiso   1.00
C159   C     0.71513   0.22958   0.70350   0.00000  Uiso   1.00
C160   C     0.75794   0.25103   0.73856   0.00000  Uiso   1.00
C161   C     0.77741   0.29390   0.77097   0.00000  Uiso   1.00
C162   C     0.75476   0.31445   0.77181   0.00000  Uiso   1.00
C163   C     0.78258   0.23237   0.73794   0.00000  Uiso   1.00
C164   C     0.77332   0.19309   0.80788   0.00000  Uiso   1.00
C165   C     0.80307   0.18003   0.80982   0.00000  Uiso   1.00
C166   C     0.79147   0.13777   0.80997   0.00000  Uiso   1.00
C167   C     0.82072   0.12488   0.81482   0.00000  Uiso   1.00
H168   H     0.66142   0.23316   0.68020   0.00000  Uiso   1.00
H169   H     0.69993   0.19889   0.67289   0.00000  Uiso   1.00
H170   H     0.80844   0.31067   0.79561   0.00000  Uiso   1.00
H171   H     0.77013   0.34547   0.79704   0.00000  Uiso   1.00
H172   H     0.90558   0.21791   0.80729   0.00000  Uiso   1.00
H173   H     0.81098   0.25032   0.67874   0.00000  Uiso   1.00
H174   H     0.80969   0.09395   0.82348   0.00000  Uiso   1.00
C175   C     0.73644   0.16778   0.87483   0.00000  Uiso   1.00
N176   N     0.70411   0.14504   0.93125   0.00000  Uiso   1.00
C177   C     0.97779   0.01992   0.74106   0.00000  Uiso   1.00
N178   N     0.95893   0.97835   0.74114   0.00000  Uiso   1.00
C179   C     0.95493   0.04045   0.74001   0.00000  Uiso   1.00
C180   C     0.91668   0.89096   0.70583   0.00000  Uiso   1.00
C181   C     0.89624   0.84778   0.70350   0.00000  Uiso   1.00
C182   C     0.91769   0.82642   0.73856   0.00000  Uiso   1.00
C183   C     0.96056   0.84982   0.77097   0.00000  Uiso   1.00
C184   C     0.98111   0.89302   0.77181   0.00000  Uiso   1.00
C185   C     0.89904   0.78313   0.73794   0.00000  Uiso   1.00
C186   C     0.85976   0.75311   0.80788   0.00000  Uiso   1.00
C187   C     0.84670   0.71029   0.80982   0.00000  Uiso   1.00
C188   C     0.80443   0.67963   0.80997   0.00000  Uiso   1.00
C189   C     0.79154   0.63749   0.81482   0.00000  Uiso   1.00
H190   H     0.89983   0.90507   0.68020   0.00000  Uiso   1.00
H191   H     0.86556   0.83229   0.67289   0.00000  Uiso   1.00
H192   H     0.97734   0.83556   0.79561   0.00000  Uiso   1.00
H193   H     0.01214   0.90867   0.79704   0.00000  Uiso   1.00
H194   H     0.88458   0.64566   0.80729   0.00000  Uiso   1.00
H195   H     0.91699   0.77267   0.67874   0.00000  Uiso   1.00
H196   H     0.76062   0.61760   0.82348   0.00000  Uiso   1.00
C197   C     0.83445   0.76468   0.87483   0.00000  Uiso   1.00
N198   N     0.81171   0.77426   0.93125   0.00000  Uiso   1.00
C199   C     0.68888   0.31341   0.74106   0.00000  Uiso   1.00
N200   N     0.70774   0.35498   0.74114   0.00000  Uiso   1.00
C201   C     0.71174   0.29288   0.74001   0.00000  Uiso   1.00
C202   C     0.74999   0.44238   0.70583   0.00000  Uiso   1.00
C203   C     0.77042   0.48556   0.70350   0.00000  Uiso   1.00
C204   C     0.74897   0.50692   0.73856   0.00000  Uiso   1.00
C205   C     0.70610   0.48351   0.77097   0.00000  Uiso   1.00
C206   C     0.68555   0.44032   0.77181   0.00000  Uiso   1.00
C207   C     0.76763   0.55021   0.73794   0.00000  Uiso   1.00
C208   C     0.80691   0.58022   0.80788   0.00000  Uiso   1.00
C209   C     0.81997   0.62304   0.80982   0.00000  Uiso   1.00
C210   C     0.86223   0.65371   0.80997   0.00000  Uiso   1.00
C211   C     0.87512   0.69585   0.81482   0.00000  Uiso   1.00
H212   H     0.76684   0.42826   0.68020   0.00000  Uiso   1.00
H213   H     0.80111   0.50104   0.67289   0.00000  Uiso   1.00
H214   H     0.68933   0.49777   0.79561   0.00000  Uiso   1.00
H215   H     0.65453   0.42466   0.79704   0.00000  Uiso   1.00
H216   H     0.78209   0.68767   0.80729   0.00000  Uiso   1.00
H217   H     0.74968   0.56066   0.67874   0.00000  Uiso   1.00
H218   H     0.90605   0.71573   0.82348   0.00000  Uiso   1.00
C219   C     0.83222   0.56866   0.87483   0.00000  Uiso   1.00
N220   N     0.85496   0.55907   0.93125   0.00000  Uiso   1.00
C221   C     0.98008   0.95787   0.74106   0.00000  Uiso   1.00
N222   N     0.02165   0.98058   0.74114   0.00000  Uiso   1.00
C223   C     0.95955   0.91447   0.74001   0.00000  Uiso   1.00
C224   C     0.10904   0.02573   0.70583   0.00000  Uiso   1.00
C225   C     0.15222   0.04847   0.70350   0.00000  Uiso   1.00
C226   C     0.17358   0.09128   0.73856   0.00000  Uiso   1.00
C227   C     0.15018   0.11074   0.77097   0.00000  Uiso   1.00
C228   C     0.10698   0.08810   0.77181   0.00000  Uiso   1.00
C229   C     0.21688   0.11591   0.73794   0.00000  Uiso   1.00
C230   C     0.24689   0.10665   0.80788   0.00000  Uiso   1.00
C231   C     0.28971   0.13640   0.80982   0.00000  Uiso   1.00
C232   C     0.32037   0.12480   0.80997   0.00000  Uiso   1.00
C233   C     0.36251   0.15406   0.81482   0.00000  Uiso   1.00
H234   H     0.09493   0.99475   0.68020   0.00000  Uiso   1.00
H235   H     0.16771   0.03326   0.67289   0.00000  Uiso   1.00
H236   H     0.16444   0.14178   0.79561   0.00000  Uiso   1.00
H237   H     0.09133   0.10346   0.79704   0.00000  Uiso   1.00
H238   H     0.35434   0.23892   0.80729   0.00000  Uiso   1.00
H239   H     0.22733   0.14432   0.67874   0.00000  Uiso   1.00
H240   H     0.38240   0.14302   0.82348   0.00000  Uiso   1.00
C241   C     0.23532   0.06977   0.87483   0.00000  Uiso   1.00
N242   N     0.22574   0.03745   0.93125   0.00000  Uiso   1.00
C243   C     0.68659   0.37546   0.74106   0.00000  Uiso   1.00
N244   N     0.64502   0.35276   0.74114   0.00000  Uiso   1.00
C245   C     0.70712   0.41886   0.74001   0.00000  Uiso   1.00
C246   C     0.55762   0.30761   0.70583   0.00000  Uiso   1.00
C247   C     0.51444   0.28487   0.70350   0.00000  Uiso   1.00
C248   C     0.49309   0.24206   0.73856   0.00000  Uiso   1.00
C249   C     0.51649   0.22259   0.77097   0.00000  Uiso   1.00
C250   C     0.55968   0.24524   0.77181   0.00000  Uiso   1.00
C251   C     0.44979   0.21742   0.73794   0.00000  Uiso   1.00
C252   C     0.41978   0.22668   0.80788   0.00000  Uiso   1.00
C253   C     0.37696   0.19693   0.80982   0.00000  Uiso   1.00
C254   C     0.34630   0.20853   0.80997   0.00000  Uiso   1.00
C255   C     0.30415   0.17928   0.81482   0.00000  Uiso   1.00
H256   H     0.57174   0.33858   0.68020   0.00000  Uiso   1.00
H257   H     0.49896   0.30007   0.67289   0.00000  Uiso   1.00
H258   H     0.50223   0.19156   0.79561   0.00000  Uiso   1.00
H259   H     0.57534   0.22987   0.79704   0.00000  Uiso   1.00
H260   H     0.31233   0.09442   0.80729   0.00000  Uiso   1.00
H261   H     0.43934   0.18902   0.67874   0.00000  Uiso   1.00
H262   H     0.28427   0.19031   0.82348   0.00000  Uiso   1.00
C263   C     0.43135   0.26356   0.87483   0.00000  Uiso   1.00
N264   N     0.44093   0.29589   0.93125   0.00000  Uiso   1.00
loop_
_geom_bond_atom_site_label_1
_geom_bond_atom_site_label_2
_geom_bond_distance
_geom_bond_site_symmetry_2
_ccdc_geom_bond_type
C1     N2      1.353   .     D
C1     C3      1.411   .     S
C1     N90     1.353   1_565 S
N2     C45     1.353   1_655 S
C3     C92     1.416   .     D
C3     C96     1.416   .     S
C4     C5      1.404   .     S
C4     H14     1.024   1_455 S
C4     C47     1.416   .     D
C5     C6      1.413   .     D
C5     H15     1.020   .     S
C6     C7      1.414   .     S
C6     C9      1.412   .     S
C7     C8      1.405   .     D
C7     H16     1.024   .     S
C8     H17     1.024   1_565 S
C8     C47     1.416   .     S
C9     C10     1.421   .     D
C9     H19     1.021   .     S
C10    C11     1.427   .     S
C10    C21     1.312   .     S
C11    C12     1.420   .     D
C11    C35     1.418   .     S
C12    C13     1.404   .     S
C12    H40     1.024   .     S
C13    H20     1.021   .     S
C13    C33     1.418   .     D
H14    C4      1.024   1_655 S
H17    C8      1.024   1_545 S
H18    C34     1.024   .     S
C21    N22     1.149   .     T
C23    N24     1.353   .     D
C23    C25     1.411   .     S
C23    N112    1.353   .     S
N24    C67     1.353   .     S
C25    C114    1.416   .     D
C25    C118    1.416   .     S
C26    C27     1.404   .     S
C26    H36     1.024   .     S
C26    C69     1.416   .     D
C27    C28     1.413   .     D
C27    H37     1.020   .     S
C28    C29     1.414   .     S
C28    C31     1.412   .     S
C29    C30     1.405   .     D
C29    H38     1.024   .     S
C30    H39     1.024   .     S
C30    C69     1.416   .     S
C31    C32     1.421   .     D
C31    H41     1.021   .     S
C32    C33     1.427   .     S
C32    C43     1.312   .     S
C33    C34     1.420   .     S
C34    C35     1.404   .     D
C35    H42     1.020   .     S
C43    N44     1.149   .     T
C45    N2      1.353   1_455 S
C45    N46     1.353   1_565 D
C45    C47     1.411   .     S
N46    C45     1.353   1_545 D
N46    C89     1.353   .     S
C48    C49     1.404   .     S
C48    H58     1.024   .     S
C48    C91     1.416   .     D
C49    C50     1.413   .     D
C49    H59     1.020   .     S
C50    C51     1.414   .     S
C50    C53     1.412   .     S
C51    C52     1.405   .     D
C51    H60     1.024   .     S
C52    H61     1.024   1_455 S
C52    C91     1.416   .     S
C53    C54     1.421   .     D
C53    H63     1.021   .     S
C54    C55     1.427   .     S
C54    C65     1.312   .     S
C55    C56     1.420   .     D
C55    C79     1.418   .     S
C56    C57     1.404   .     S
C56    H84     1.024   .     S
C57    H64     1.021   .     S
C57    C77     1.418   .     D
H61    C52     1.024   1_655 S
H62    C78     1.024   .     S
C65    N66     1.149   .     T
C67    N68     1.353   .     D
C67    C69     1.411   .     S
N68    C111    1.353   .     S
C70    C71     1.404   .     S
C70    H80     1.024   .     S
C70    C113    1.416   .     D
C71    C72     1.413   .     D
C71    H81     1.020   .     S
C72    C73     1.414   .     S
C72    C75     1.412   .     S
C73    C74     1.405   .     D
C73    H82     1.024   .     S
C74    H83     1.024   .     S
C74    C113    1.416   .     S
C75    C76     1.421   .     D
C75    H85     1.021   .     S
C76    C77     1.427   .     S
C76    C87     1.312   .     S
C77    C78     1.420   .     S
C78    C79     1.404   .     D
C79    H86     1.021   .     S
C87    N88     1.149   .     T
C89    N90     1.353   1_455 D
C89    C91     1.411   .     S
N90    C89     1.353   1_655 D
N90    C1      1.353   1_545 S
C92    C93     1.404   .     S
C92    H102    1.024   1_565 S
C93    C94     1.413   .     D
C93    H103    1.020   .     S
C94    C95     1.414   .     S
C94    C97     1.412   .     S
C95    C96     1.405   .     D
C95    H104    1.024   .     S
C96    H105    1.024   .     S
C97    C98     1.421   .     D
C97    H107    1.021   .     S
C98    C99     1.427   .     S
C98    C109    1.312   .     S
C99    C100    1.420   .     D
C99    C123    1.418   .     S
C100   C101    1.404   .     S
C100   H128    1.024   .     S
C101   H108    1.021   .     S
C101   C121    1.418   .     D
H102   C92     1.024   1_545 S
H106   C122    1.024   .     S
C109   N110    1.149   .     T
C111   N112    1.353   .     D
C111   C113    1.411   .     S
C114   C115    1.404   .     S
C114   H124    1.024   .     S
C115   C116    1.413   .     D
C115   H125    1.020   .     S
C116   C117    1.414   .     S
C116   C119    1.412   .     S
C117   C118    1.405   .     D
C117   H126    1.024   .     S
C118   H127    1.024   .     S
C119   C120    1.421   .     D
C119   H129    1.021   .     S
C120   C121    1.427   .     S
C120   C131    1.312   .     S
C121   C122    1.420   .     S
C122   C123    1.404   .     D
C123   H130    1.021   .     S
C131   N132    1.149   .     T
C133   N134    1.353   .     D
C133   C135    1.411   .     S
C133   N222    1.353   1_545 S
N134   C177    1.353   1_455 S
C135   C224    1.416   .     D
C135   C228    1.416   .     S
C136   C137    1.404   .     S
C136   H146    1.024   1_655 S
C136   C179    1.416   .     D
C137   C138    1.413   .     D
C137   H147    1.020   .     S
C138   C139    1.414   .     S
C138   C141    1.412   .     S
C139   C140    1.405   .     D
C139   H148    1.024   .     S
C140   H149    1.024   1_545 S
C140   C179    1.416   .     S
C141   C142    1.421   .     D
C141   H151    1.021   .     S
C142   C143    1.427   .     S
C142   C153    1.312   .     S
C143   C144    1.420   .     D
C143   C167    1.418   .     S
C144   C145    1.404   .     S
C144   H172    1.024   .     S
C145   H152    1.021   .     S
C145   C165    1.418   .     D
H146   C136    1.024   1_455 S
H149   C140    1.024   1_565 S
H150   C166    1.024   .     S
C153   N154    1.149   .     T
C155   N156    1.353   .     D
C155   C157    1.411   .     S
C155   N244    1.353   .     S
N156   C199    1.353   .     S
C157   C246    1.416   .     D
C157   C250    1.416   .     S
C158   C159    1.404   .     S
C158   H168    1.024   .     S
C158   C201    1.416   .     D
C159   C160    1.413   .     D
C159   H169    1.020   .     S
C160   C161    1.414   .     S
C160   C163    1.412   .     S
C161   C162    1.405   .     D
C161   H170    1.024   .     S
C162   H171    1.024   .     S
C162   C201    1.416   .     S
C163   C164    1.421   .     D
C163   H173    1.021   .     S
C164   C165    1.427   .     S
C164   C175    1.312   .     S
C165   C166    1.420   .     S
C166   C167    1.404   .     D
C167   H174    1.020   .     S
C175   N176    1.149   .     T
C177   N134    1.353   1_655 S
C177   N178    1.353   1_545 D
C177   C179    1.411   .     S
N178   C177    1.353   1_565 D
N178   C221    1.353   .     S
C180   C181    1.404   .     S
C180   H190    1.024   .     S
C180   C223    1.416   .     D
C181   C182    1.413   .     D
C181   H191    1.020   .     S
C182   C183    1.414   .     S
C182   C185    1.412   .     S
C183   C184    1.405   .     D
C183   H192    1.024   .     S
C184   H193    1.024   1_655 S
C184   C223    1.416   .     S
C185   C186    1.421   .     D
C185   H195    1.021   .     S
C186   C187    1.427   .     S
C186   C197    1.312   .     S
C187   C188    1.420   .     D
C187   C211    1.418   .     S
C188   C189    1.404   .     S
C188   H216    1.024   .     S
C189   H196    1.021   .     S
C189   C209    1.418   .     D
H193   C184    1.024   1_455 S
H194   C210    1.024   .     S
C197   N198    1.149   .     T
C199   N200    1.353   .     D
C199   C201    1.411   .     S
N200   C243    1.353   .     S
C202   C203    1.404   .     S
C202   H212    1.024   .     S
C202   C245    1.416   .     D
C203   C204    1.413   .     D
C203   H213    1.020   .     S
C204   C205    1.414   .     S
C204   C207    1.412   .     S
C205   C206    1.405   .     D
C205   H214    1.024   .     S
C206   H215    1.024   .     S
C206   C245    1.416   .     S
C207   C208    1.421   .     D
C207   H217    1.021   .     S
C208   C209    1.427   .     S
C208   C219    1.312   .     S
C209   C210    1.420   .     S
C210   C211    1.404   .     D
C211   H218    1.021   .     S
C219   N220    1.149   .     T
C221   N222    1.353   1_655 D
C221   C223    1.411   .     S
N222   C221    1.353   1_455 D
N222   C133    1.353   1_565 S
C224   C225    1.404   .     S
C224   H234    1.024   1_545 S
C225   C226    1.413   .     D
C225   H235    1.020   .     S
C226   C227    1.414   .     S
C226   C229    1.412   .     S
C227   C228    1.405   .     D
C227   H236    1.024   .     S
C228   H237    1.024   .     S
C229   C230    1.421   .     D
C229   H239    1.021   .     S
C230   C231    1.427   .     S
C230   C241    1.312   .     S
C231   C232    1.420   .     D
C231   C255    1.418   .     S
C232   C233    1.404   .     S
C232   H260    1.024   .     S
C233   H240    1.021   .     S
C233   C253    1.418   .     D
H234   C224    1.024   1_565 S
H238   C254    1.024   .     S
C241   N242    1.149   .     T
C243   N244    1.353   .     D
C243   C245    1.411   .     S
C246   C247    1.404   .     S
C246   H256    1.024   .     S
C247   C248    1.413   .     D
C247   H257    1.020   .     S
C248   C249    1.414   .     S
C248   C251    1.412   .     S
C249   C250    1.405   .     D
C249   H258    1.024   .     S
C250   H259    1.024   .     S
C251   C252    1.421   .     D
C251   H261    1.021   .     S
C252   C253    1.427   .     S
C252   C263    1.312   .     S
C253   C254    1.420   .     S
C254   C255    1.404   .     D
C255   H262    1.021   .     S
C263   N264    1.149   .     T
