data_538
_audit_creation_date              2023-09-08
_audit_creation_method            'Materials Studio'
_symmetry_space_group_name_H-M    'P1'
_symmetry_Int_Tables_number       1
_symmetry_cell_setting            triclinic
loop_
_symmetry_equiv_pos_as_xyz
  x,y,z
_cell_length_a                    30.1142
_cell_length_b                    30.1142
_cell_length_c                    3.4583
_cell_angle_alpha                 90.0000
_cell_angle_beta                  90.0000
_cell_angle_gamma                 120.0000
loop_
_atom_site_label
_atom_site_type_symbol
_atom_site_fract_x
_atom_site_fract_y
_atom_site_fract_z
_atom_site_U_iso_or_equiv
_atom_site_adp_type
_atom_site_occupancy
O1     O     0.30240   0.56701   0.00000   0.00000  Uiso   1.00
O2     O     0.43299   0.73540   0.00000   0.00000  Uiso   1.00
O3     O     0.26461   0.69760   0.00000   0.00000  Uiso   1.00
O4     O     0.69760   0.43299   0.00000   0.00000  Uiso   1.00
O5     O     0.56701   0.26461   0.00000   0.00000  Uiso   1.00
O6     O     0.73540   0.30240   0.00000   0.00000  Uiso   1.00
N7     N     0.40088   0.58720   0.00000   0.00000  Uiso   1.00
N8     N     0.41280   0.81368   0.00000   0.00000  Uiso   1.00
N9     N     0.18632   0.59912   0.00000   0.00000  Uiso   1.00
N10    N     0.59912   0.41280   0.00000   0.00000  Uiso   1.00
N11    N     0.58720   0.18632   0.00000   0.00000  Uiso   1.00
N12    N     0.81368   0.40088   0.00000   0.00000  Uiso   1.00
C13    C     0.31736   0.61412   0.00000   0.00000  Uiso   1.00
C14    C     0.38588   0.70324   0.00000   0.00000  Uiso   1.00
C15    C     0.29676   0.68264   0.00000   0.00000  Uiso   1.00
C16    C     0.68264   0.38588   0.00000   0.00000  Uiso   1.00
C17    C     0.61412   0.29676   0.00000   0.00000  Uiso   1.00
C18    C     0.70324   0.31736   0.00000   0.00000  Uiso   1.00
C19    C     0.40967   0.63604   0.00000   0.00000  Uiso   1.00
C20    C     0.36396   0.77362   0.00000   0.00000  Uiso   1.00
C21    C     0.22638   0.59033   0.00000   0.00000  Uiso   1.00
C22    C     0.59033   0.36396   0.00000   0.00000  Uiso   1.00
C23    C     0.63604   0.22638   0.00000   0.00000  Uiso   1.00
C24    C     0.77362   0.40967   0.00000   0.00000  Uiso   1.00
N25    N     0.43106   0.56693   0.00000   0.00000  Uiso   1.00
N26    N     0.43307   0.86413   0.00000   0.00000  Uiso   1.00
N27    N     0.13587   0.56894   0.00000   0.00000  Uiso   1.00
N28    N     0.56894   0.43307   0.00000   0.00000  Uiso   1.00
N29    N     0.56693   0.13587   0.00000   0.00000  Uiso   1.00
N30    N     0.86413   0.43106   0.00000   0.00000  Uiso   1.00
C31    C     0.48393   0.59354   0.00000   0.00000  Uiso   1.00
C32    C     0.40646   0.89039   0.00000   0.00000  Uiso   1.00
C33    C     0.10961   0.51607   0.00000   0.00000  Uiso   1.00
C34    C     0.51607   0.40646   0.00000   0.00000  Uiso   1.00
C35    C     0.59354   0.10961   0.00000   0.00000  Uiso   1.00
C36    C     0.89039   0.48393   0.00000   0.00000  Uiso   1.00
C37    C     0.51263   0.56787   0.00000   0.00000  Uiso   1.00
C38    C     0.43213   0.94475   0.00000   0.00000  Uiso   1.00
C39    C     0.05525   0.48737   0.00000   0.00000  Uiso   1.00
C40    C     0.48737   0.43213   0.00000   0.00000  Uiso   1.00
C41    C     0.56787   0.05525   0.00000   0.00000  Uiso   1.00
C42    C     0.94475   0.51263   0.00000   0.00000  Uiso   1.00
C43    C     0.48614   0.51350   0.00000   0.00000  Uiso   1.00
C44    C     0.48650   0.97263   0.00000   0.00000  Uiso   1.00
C45    C     0.02737   0.51387   0.00000   0.00000  Uiso   1.00
C46    C     0.51387   0.48650   0.00000   0.00000  Uiso   1.00
C47    C     0.51350   0.02737   0.00000   0.00000  Uiso   1.00
C48    C     0.97263   0.48614   0.00000   0.00000  Uiso   1.00
C49    C     0.43179   0.48617   0.00000   0.00000  Uiso   1.00
C50    C     0.51383   0.94563   0.00000   0.00000  Uiso   1.00
C51    C     0.05438   0.56821   0.00000   0.00000  Uiso   1.00
C52    C     0.56821   0.51383   0.00000   0.00000  Uiso   1.00
C53    C     0.48617   0.05438   0.00000   0.00000  Uiso   1.00
C54    C     0.94563   0.43180   0.00000   0.00000  Uiso   1.00
C55    C     0.40541   0.51409   0.00000   0.00000  Uiso   1.00
C56    C     0.48591   0.89132   0.00000   0.00000  Uiso   1.00
C57    C     0.10869   0.59459   0.00000   0.00000  Uiso   1.00
C58    C     0.59459   0.48591   0.00000   0.00000  Uiso   1.00
C59    C     0.51409   0.10869   0.00000   0.00000  Uiso   1.00
C60    C     0.89132   0.40541   0.00000   0.00000  Uiso   1.00
C61    C     0.37092   0.65024   0.00000   0.00000  Uiso   1.00
C62    C     0.34976   0.72068   0.00000   0.00000  Uiso   1.00
C63    C     0.27932   0.62908   0.00000   0.00000  Uiso   1.00
C64    C     0.62908   0.34976   0.00000   0.00000  Uiso   1.00
C65    C     0.65024   0.27932   0.00000   0.00000  Uiso   1.00
C66    C     0.72068   0.37092   0.00000   0.00000  Uiso   1.00
H67    H     0.44669   0.66473   0.00000   0.00000  Uiso   1.00
H68    H     0.33527   0.78196   0.00000   0.00000  Uiso   1.00
H69    H     0.21804   0.55331   0.00000   0.00000  Uiso   1.00
H70    H     0.55331   0.33527   0.00000   0.00000  Uiso   1.00
H71    H     0.66473   0.21804   0.00000   0.00000  Uiso   1.00
H72    H     0.78196   0.44669   0.00000   0.00000  Uiso   1.00
O73    O     0.50891   0.64156   0.00000   0.00000  Uiso   1.00
O74    O     0.35844   0.86736   0.00000   0.00000  Uiso   1.00
O75    O     0.13264   0.49109   0.00000   0.00000  Uiso   1.00
O76    O     0.49109   0.35844   0.00000   0.00000  Uiso   1.00
O77    O     0.64156   0.13264   0.00000   0.00000  Uiso   1.00
O78    O     0.86736   0.50891   0.00000   0.00000  Uiso   1.00
H79    H     0.36503   0.56237   0.00000   0.00000  Uiso   1.00
H80    H     0.43764   0.80266   0.00000   0.00000  Uiso   1.00
H81    H     0.19734   0.63498   0.00000   0.00000  Uiso   1.00
H82    H     0.63498   0.43764   0.00000   0.00000  Uiso   1.00
H83    H     0.56237   0.19734   0.00000   0.00000  Uiso   1.00
H84    H     0.80266   0.36503   0.00000   0.00000  Uiso   1.00
O85    O     0.35717   0.48885   0.00000   0.00000  Uiso   1.00
O86    O     0.51115   0.86832   0.00000   0.00000  Uiso   1.00
O87    O     0.13168   0.64283   0.00000   0.00000  Uiso   1.00
O88    O     0.64283   0.51115   0.00000   0.00000  Uiso   1.00
O89    O     0.48885   0.13168   0.00000   0.00000  Uiso   1.00
O90    O     0.86832   0.35717   0.00000   0.00000  Uiso   1.00
C91    C     0.97236   0.56686   0.00000   0.00000  Uiso   1.00
C92    C     0.43315   0.40551   0.00000   0.00000  Uiso   1.00
C93    C     0.59449   0.02764   0.00000   0.00000  Uiso   1.00
C94    C     0.02764   0.43315   0.00000   0.00000  Uiso   1.00
C95    C     0.56686   0.59449   0.00000   0.00000  Uiso   1.00
C96    C     0.40551   0.97236   0.00000   0.00000  Uiso   1.00
C97    C     0.02610   0.59411   0.00000   0.00000  Uiso   1.00
C98    C     0.40589   0.43199   0.00000   0.00000  Uiso   1.00
C99    C     0.56801   0.97390   0.00000   0.00000  Uiso   1.00
C100   C     0.97390   0.40589   0.00000   0.00000  Uiso   1.00
C101   C     0.59411   0.56801   0.00000   0.00000  Uiso   1.00
C102   C     0.43199   0.02610   0.00000   0.00000  Uiso   1.00
H103   H     0.95368   0.58739   0.00000   0.00000  Uiso   1.00
H104   H     0.41262   0.36630   0.00000   0.00000  Uiso   1.00
H105   H     0.63370   0.04632   0.00000   0.00000  Uiso   1.00
H106   H     0.04632   0.41262   0.00000   0.00000  Uiso   1.00
H107   H     0.58739   0.63370   0.00000   0.00000  Uiso   1.00
H108   H     0.36630   0.95368   0.00000   0.00000  Uiso   1.00
H109   H     0.04428   0.63330   0.00000   0.00000  Uiso   1.00
H110   H     0.36670   0.41098   0.00000   0.00000  Uiso   1.00
H111   H     0.58902   0.95572   0.00000   0.00000  Uiso   1.00
H112   H     0.95572   0.36670   0.00000   0.00000  Uiso   1.00
H113   H     0.63330   0.58902   0.00000   0.00000  Uiso   1.00
H114   H     0.41098   0.04428   0.00000   0.00000  Uiso   1.00
loop_
_geom_bond_atom_site_label_1
_geom_bond_atom_site_label_2
_geom_bond_distance
_geom_bond_site_symmetry_2
_ccdc_geom_bond_type
O1     C13     1.256   .     D
O2     C14     1.256   .     D
O3     C15     1.256   .     D
O4     C16     1.256   .     D
O5     C17     1.256   .     D
O6     C18     1.256   .     D
N7     C19     1.358   .     S
N7     N25     1.324   .     S
N7     H79     0.958   .     S
N8     C20     1.358   .     S
N8     N26     1.324   .     S
N8     H80     0.958   .     S
N9     C21     1.358   .     S
N9     N27     1.324   .     S
N9     H81     0.958   .     S
N10    C22     1.358   .     S
N10    N28     1.324   .     S
N10    H82     0.958   .     S
N11    C23     1.358   .     S
N11    N29     1.324   .     S
N11    H83     0.958   .     S
N12    C24     1.358   .     S
N12    N30     1.324   .     S
N12    H84     0.958   .     S
C13    C61     1.425   .     S
C13    C63     1.425   .     S
C14    C61     1.425   .     S
C14    C62     1.425   .     S
C15    C62     1.425   .     S
C15    C63     1.425   .     S
C16    C64     1.425   .     S
C16    C66     1.425   .     S
C17    C64     1.425   .     S
C17    C65     1.425   .     S
C18    C65     1.425   .     S
C18    C66     1.425   .     S
C19    C61     1.429   .     D
C19    H67     1.013   .     S
C20    C62     1.429   .     D
C20    H68     1.013   .     S
C21    C63     1.429   .     D
C21    H69     1.013   .     S
C22    C64     1.429   .     D
C22    H70     1.013   .     S
C23    C65     1.429   .     D
C23    H71     1.013   .     S
C24    C66     1.429   .     D
C24    H72     1.013   .     S
N25    C31     1.379   .     S
N25    C55     1.378   .     S
N26    C32     1.379   .     S
N26    C56     1.378   .     S
N27    C33     1.379   .     S
N27    C57     1.378   .     S
N28    C34     1.379   .     S
N28    C58     1.378   .     S
N29    C35     1.379   .     S
N29    C59     1.378   .     S
N30    C36     1.379   .     S
N30    C60     1.378   .     S
C31    C37     1.419   .     S
C31    O73     1.253   .     D
C32    C38     1.419   .     S
C32    O74     1.253   .     D
C33    C39     1.419   .     S
C33    O75     1.253   .     D
C34    C40     1.419   .     S
C34    O76     1.253   .     D
C35    C41     1.419   .     S
C35    O77     1.253   .     D
C36    C42     1.419   .     S
C36    O78     1.253   .     D
C37    C43     1.418   .     S
C37    C95     1.414   .     D
C38    C44     1.418   .     S
C38    C96     1.414   .     D
C39    C45     1.418   .     S
C39    C94     1.414   .     D
C40    C46     1.418   .     S
C40    C92     1.414   .     D
C41    C47     1.418   .     S
C41    C93     1.414   .     D
C42    C48     1.418   .     S
C42    C91     1.414   .     D
C43    C46     1.428   .     D
C43    C49     1.417   .     S
C44    C47     1.428   1_565 D
C44    C50     1.417   .     S
C45    C48     1.428   1_455 D
C45    C51     1.417   .     S
C46    C52     1.417   .     S
C47    C44     1.428   1_545 D
C47    C53     1.417   .     S
C48    C45     1.428   1_655 D
C48    C54     1.417   .     S
C49    C55     1.417   .     S
C49    C98     1.413   .     D
C50    C56     1.417   .     S
C50    C99     1.413   .     D
C51    C57     1.417   .     S
C51    C97     1.413   .     D
C52    C58     1.417   .     S
C52    C101    1.413   .     D
C53    C59     1.417   .     S
C53    C102    1.413   .     D
C54    C60     1.417   .     S
C54    C100    1.413   .     D
C55    O85     1.259   .     D
C56    O86     1.259   .     D
C57    O87     1.259   .     D
C58    O88     1.259   .     D
C59    O89     1.259   .     D
C60    O90     1.259   .     D
C91    C97     1.401   1_655 S
C91    H103    1.023   .     S
C92    C98     1.401   .     S
C92    H104    1.023   .     S
C93    C99     1.401   1_545 S
C93    H105    1.023   .     S
C94    C100    1.401   1_455 S
C94    H106    1.023   .     S
C95    C101    1.401   .     S
C95    H107    1.023   .     S
C96    C102    1.401   1_565 S
C96    H108    1.023   .     S
C97    C91     1.401   1_455 S
C97    H109    1.023   .     S
C98    H110    1.023   .     S
C99    C93     1.401   1_565 S
C99    H111    1.023   .     S
C100   C94     1.401   1_655 S
C100   H112    1.023   .     S
C101   H113    1.023   .     S
C102   C96     1.401   1_545 S
C102   H114    1.023   .     S
