data_539
_audit_creation_date              2023-09-08
_audit_creation_method            'Materials Studio'
_symmetry_space_group_name_H-M    'P1'
_symmetry_Int_Tables_number       1
_symmetry_cell_setting            triclinic
loop_
_symmetry_equiv_pos_as_xyz
  x,y,z
_cell_length_a                    20.4043
_cell_length_b                    15.7014
_cell_length_c                    5.1963
_cell_angle_alpha                 90.0000
_cell_angle_beta                  86.5000
_cell_angle_gamma                 90.0000
loop_
_atom_site_label
_atom_site_type_symbol
_atom_site_fract_x
_atom_site_fract_y
_atom_site_fract_z
_atom_site_U_iso_or_equiv
_atom_site_adp_type
_atom_site_occupancy
C1     C     0.33965   0.85545   0.99838   0.00000  Uiso   1.00
C2     C     0.39420   0.90576   0.92737   0.00000  Uiso   1.00
C3     C     0.44925   0.85362   0.29458   0.00000  Uiso   1.00
C4     C     0.39484   0.80287   0.36534   0.00000  Uiso   1.00
C5     C     0.33955   0.80390   0.21926   0.00000  Uiso   1.00
N6     N     0.28420   0.24792   0.29847   0.00000  Uiso   1.00
C7     C     0.44887   0.09355   0.07768   0.00000  Uiso   1.00
C8     C     0.06686   0.59364   0.41356   0.00000  Uiso   1.00
C9     C     0.06500   0.64617   0.19649   0.00000  Uiso   1.00
C10    C     0.11885   0.69711   0.12027   0.00000  Uiso   1.00
C11    C     0.12260   0.59459   0.55817   0.00000  Uiso   1.00
C12    C     0.17500   0.30355   0.26117   0.00000  Uiso   1.00
C13    C     0.17665   0.35477   0.48158   0.00000  Uiso   1.00
C14    C     0.23089   0.24995   0.17508   0.00000  Uiso   1.00
C15    C     0.00808   0.54341   0.49810   0.00000  Uiso   1.00
H16    H     0.01933   0.64756   0.08067   0.00000  Uiso   1.00
H17    H     0.11707   0.73941   0.94253   0.00000  Uiso   1.00
H18    H     0.12404   0.55390   0.73944   0.00000  Uiso   1.00
H19    H     0.22212   0.35516   0.59862   0.00000  Uiso   1.00
H20    H     0.29508   0.85631   0.87637   0.00000  Uiso   1.00
H21    H     0.39443   0.94663   0.74599   0.00000  Uiso   1.00
H22    H     0.49433   0.85217   0.41376   0.00000  Uiso   1.00
H23    H     0.39540   0.76034   0.54301   0.00000  Uiso   1.00
C24    C     0.83965   0.35545   0.49838   0.00000  Uiso   1.00
C25    C     0.89420   0.40576   0.42737   0.00000  Uiso   1.00
C26    C     0.94925   0.35362   0.79458   0.00000  Uiso   1.00
C27    C     0.89484   0.30287   0.86534   0.00000  Uiso   1.00
C28    C     0.83955   0.30390   0.71926   0.00000  Uiso   1.00
C29    C     0.78420   0.74792   0.79847   0.00000  Uiso   1.00
C30    C     0.94887   0.59355   0.57768   0.00000  Uiso   1.00
C31    C     0.56686   0.09364   0.91356   0.00000  Uiso   1.00
C32    C     0.56500   0.14617   0.69649   0.00000  Uiso   1.00
C33    C     0.61885   0.19711   0.62027   0.00000  Uiso   1.00
C34    C     0.62260   0.09459   0.05817   0.00000  Uiso   1.00
C35    C     0.67500   0.80355   0.76117   0.00000  Uiso   1.00
C36    C     0.67665   0.85477   0.98158   0.00000  Uiso   1.00
N37    N     0.73089   0.74995   0.67508   0.00000  Uiso   1.00
C38    C     0.50808   0.04341   0.99810   0.00000  Uiso   1.00
H39    H     0.51933   0.14756   0.58067   0.00000  Uiso   1.00
H40    H     0.61707   0.23941   0.44253   0.00000  Uiso   1.00
H41    H     0.62404   0.05390   0.23944   0.00000  Uiso   1.00
H42    H     0.72212   0.85516   0.09862   0.00000  Uiso   1.00
H43    H     0.79508   0.35631   0.37637   0.00000  Uiso   1.00
H44    H     0.89443   0.44663   0.24599   0.00000  Uiso   1.00
H45    H     0.99433   0.35217   0.91376   0.00000  Uiso   1.00
H46    H     0.89540   0.26034   0.04301   0.00000  Uiso   1.00
H47    H     0.22669   0.20938   0.99488   0.00000  Uiso   1.00
H48    H     0.78844   0.78857   0.97847   0.00000  Uiso   1.00
C49    C     0.33965   0.14455   0.99838   0.00000  Uiso   1.00
C50    C     0.39420   0.09424   0.92737   0.00000  Uiso   1.00
C51    C     0.44925   0.14638   0.29458   0.00000  Uiso   1.00
C52    C     0.39484   0.19713   0.36534   0.00000  Uiso   1.00
C53    C     0.33955   0.19610   0.21926   0.00000  Uiso   1.00
N54    N     0.28420   0.75208   0.29847   0.00000  Uiso   1.00
C55    C     0.44887   0.90645   0.07768   0.00000  Uiso   1.00
C56    C     0.06686   0.40636   0.41356   0.00000  Uiso   1.00
C57    C     0.06500   0.35383   0.19649   0.00000  Uiso   1.00
C58    C     0.11885   0.30289   0.12027   0.00000  Uiso   1.00
C59    C     0.12260   0.40541   0.55817   0.00000  Uiso   1.00
C60    C     0.17500   0.69645   0.26117   0.00000  Uiso   1.00
C61    C     0.17665   0.64523   0.48158   0.00000  Uiso   1.00
C62    C     0.23089   0.75005   0.17508   0.00000  Uiso   1.00
C63    C     0.00808   0.45659   0.49810   0.00000  Uiso   1.00
H64    H     0.01933   0.35244   0.08067   0.00000  Uiso   1.00
H65    H     0.11707   0.26059   0.94253   0.00000  Uiso   1.00
H66    H     0.12404   0.44610   0.73944   0.00000  Uiso   1.00
H67    H     0.22212   0.64484   0.59862   0.00000  Uiso   1.00
H68    H     0.29508   0.14369   0.87637   0.00000  Uiso   1.00
H69    H     0.39443   0.05337   0.74599   0.00000  Uiso   1.00
H70    H     0.49433   0.14783   0.41376   0.00000  Uiso   1.00
H71    H     0.39540   0.23966   0.54301   0.00000  Uiso   1.00
C72    C     0.83965   0.64455   0.49838   0.00000  Uiso   1.00
C73    C     0.89420   0.59424   0.42737   0.00000  Uiso   1.00
C74    C     0.94925   0.64638   0.79458   0.00000  Uiso   1.00
C75    C     0.89484   0.69713   0.86534   0.00000  Uiso   1.00
C76    C     0.83955   0.69610   0.71926   0.00000  Uiso   1.00
C77    C     0.78420   0.25208   0.79847   0.00000  Uiso   1.00
C78    C     0.94887   0.40645   0.57768   0.00000  Uiso   1.00
C79    C     0.56686   0.90636   0.91356   0.00000  Uiso   1.00
C80    C     0.56500   0.85383   0.69649   0.00000  Uiso   1.00
C81    C     0.61885   0.80289   0.62027   0.00000  Uiso   1.00
C82    C     0.62260   0.90541   0.05817   0.00000  Uiso   1.00
C83    C     0.67500   0.19645   0.76117   0.00000  Uiso   1.00
C84    C     0.67665   0.14523   0.98158   0.00000  Uiso   1.00
N85    N     0.73089   0.25005   0.67508   0.00000  Uiso   1.00
C86    C     0.50808   0.95659   0.99810   0.00000  Uiso   1.00
H87    H     0.51933   0.85244   0.58067   0.00000  Uiso   1.00
H88    H     0.61707   0.76059   0.44253   0.00000  Uiso   1.00
H89    H     0.62404   0.94610   0.23944   0.00000  Uiso   1.00
H90    H     0.72212   0.14484   0.09862   0.00000  Uiso   1.00
H91    H     0.79508   0.64369   0.37637   0.00000  Uiso   1.00
H92    H     0.89443   0.55337   0.24599   0.00000  Uiso   1.00
H93    H     0.99433   0.64783   0.91376   0.00000  Uiso   1.00
H94    H     0.89540   0.73966   0.04301   0.00000  Uiso   1.00
H95    H     0.22669   0.79062   0.99488   0.00000  Uiso   1.00
H96    H     0.78844   0.21143   0.97847   0.00000  Uiso   1.00
loop_
_geom_bond_atom_site_label_1
_geom_bond_atom_site_label_2
_geom_bond_distance
_geom_bond_site_symmetry_2
_ccdc_geom_bond_type
C1     C2      1.396   .     D
C1     C5      1.404   1_556 S
C1     H20     1.140   .     S
C2     H21     1.140   .     S
C2     C55     1.400   1_556 S
C3     C4      1.397   .     D
C3     H22     1.140   .     S
C3     C55     1.400   .     S
C4     C5      1.398   .     S
C4     H23     1.140   .     S
C5     C1      1.404   1_554 S
C5     N54     1.432   .     D
N6     C14     1.296   .     S
N6     C53     1.432   .     D
C7     C38     1.480   1_554 D
C7     C50     1.400   1_554 S
C7     C51     1.400   .     S
C8     C9      1.400   .     S
C8     C11     1.401   .     S
C8     C15     1.480   .     D
C9     C10     1.397   .     D
C9     H16     1.140   .     S
C10    H17     1.140   1_554 S
C10    C60     1.397   .     S
C11    H18     1.140   .     S
C11    C61     1.398   .     D
C12    C13     1.402   .     S
C12    C14     1.465   .     D
C12    C58     1.397   .     S
C13    H19     1.140   .     S
C13    C59     1.398   .     D
C14    H47     1.140   1_554 S
C15    C30     1.480   1_455 S
C15    C63     1.363   .     S
H17    C10     1.140   1_556 S
C24    C25     1.396   .     S
C24    C28     1.404   .     D
C24    H43     1.140   .     S
C25    H44     1.140   .     S
C25    C78     1.400   .     D
C26    C27     1.397   .     D
C26    H45     1.140   .     S
C26    C78     1.400   .     S
C27    C28     1.398   .     S
C27    H46     1.140   1_556 S
C28    C77     1.432   .     S
C29    N37     1.296   .     D
C29    H48     1.140   .     S
C29    C76     1.432   .     S
C30    C15     1.480   1_655 S
C30    C73     1.400   .     D
C30    C74     1.400   .     S
C31    C32     1.400   .     D
C31    C34     1.401   1_556 S
C31    C38     1.480   .     S
C32    C33     1.397   .     S
C32    H39     1.140   .     S
C33    H40     1.140   .     S
C33    C83     1.397   .     D
C34    C31     1.401   1_554 S
C34    H41     1.140   .     S
C34    C84     1.398   1_554 D
C35    C36     1.402   .     S
C35    N37     1.465   .     S
C35    C81     1.397   .     D
C36    H42     1.140   1_556 S
C36    C82     1.398   1_556 D
C38    C7      1.480   1_556 D
C38    C86     1.363   1_545 S
H42    C36     1.140   1_554 S
H46    C27     1.140   1_554 S
H47    C14     1.140   1_556 S
C49    C50     1.396   .     D
C49    C53     1.404   1_556 S
C49    H68     1.140   .     S
C50    C7      1.400   1_556 S
C50    H69     1.140   .     S
C51    C52     1.397   .     D
C51    H70     1.140   .     S
C52    C53     1.398   .     S
C52    H71     1.140   .     S
C53    C49     1.404   1_554 S
N54    C62     1.296   .     S
C55    C2      1.400   1_554 S
C55    C86     1.480   1_554 D
C56    C57     1.400   .     S
C56    C59     1.401   .     S
C56    C63     1.480   .     D
C57    C58     1.397   .     D
C57    H64     1.140   .     S
C58    H65     1.140   1_554 S
C59    H66     1.140   .     S
C60    C61     1.402   .     S
C60    C62     1.465   .     D
C61    H67     1.140   .     S
C62    H95     1.140   1_554 S
C63    C78     1.480   1_455 S
H65    C58     1.140   1_556 S
C72    C73     1.396   .     S
C72    C76     1.404   .     D
C72    H91     1.140   .     S
C73    H92     1.140   .     S
C74    C75     1.397   .     D
C74    H93     1.140   .     S
C75    C76     1.398   .     S
C75    H94     1.140   1_556 S
C77    N85     1.296   .     D
C77    H96     1.140   .     S
C78    C63     1.480   1_655 S
C79    C80     1.400   .     D
C79    C82     1.401   1_556 S
C79    C86     1.480   .     S
C80    C81     1.397   .     S
C80    H87     1.140   .     S
C81    H88     1.140   .     S
C82    C79     1.401   1_554 S
C82    C36     1.398   1_554 D
C82    H89     1.140   .     S
C83    C84     1.402   .     S
C83    N85     1.465   .     S
C84    C34     1.398   1_556 D
C84    H90     1.140   1_556 S
C86    C55     1.480   1_556 D
C86    C38     1.363   1_565 S
H90    C84     1.140   1_554 S
H94    C75     1.140   1_554 S
H95    C62     1.140   1_556 S
