data_54
_audit_creation_date              2023-09-08
_audit_creation_method            'Materials Studio'
_symmetry_space_group_name_H-M    'P1'
_symmetry_Int_Tables_number       1
_symmetry_cell_setting            triclinic
loop_
_symmetry_equiv_pos_as_xyz
  x,y,z
_cell_length_a                    29.0899
_cell_length_b                    29.0899
_cell_length_c                    3.0207
_cell_angle_alpha                 90.0000
_cell_angle_beta                  90.0000
_cell_angle_gamma                 120.0000
loop_
_atom_site_label
_atom_site_type_symbol
_atom_site_fract_x
_atom_site_fract_y
_atom_site_fract_z
_atom_site_U_iso_or_equiv
_atom_site_adp_type
_atom_site_occupancy
N1     N     0.39261   0.58453   0.00000   0.00000  Uiso   1.00
C2     C     0.31638   0.61442   0.00000   0.00000  Uiso   1.00
C3     C     0.40696   0.63276   0.00000   0.00000  Uiso   1.00
C4     C     0.42476   0.56216   0.00000   0.00000  Uiso   1.00
C5     C     0.47820   0.59097   0.00000   0.00000  Uiso   1.00
C6     C     0.50731   0.56690   0.00000   0.00000  Uiso   1.00
C7     C     0.48422   0.51309   0.00000   0.00000  Uiso   1.00
C8     C     0.43027   0.48490   0.00000   0.00000  Uiso   1.00
C9     C     0.40138   0.50916   0.00000   0.00000  Uiso   1.00
C10    C     0.36893   0.64967   0.00000   0.00000  Uiso   1.00
H11    H     0.30260   0.57221   0.00000   0.00000  Uiso   1.00
H12    H     0.44826   0.66321   0.00000   0.00000  Uiso   1.00
H13    H     0.49977   0.63372   0.00000   0.00000  Uiso   1.00
H14    H     0.54939   0.59368   0.00000   0.00000  Uiso   1.00
H15    H     0.40704   0.44237   0.00000   0.00000  Uiso   1.00
H16    H     0.35845   0.48557   0.00000   0.00000  Uiso   1.00
N17    N     0.41547   0.80808   0.00000   0.00000  Uiso   1.00
C18    C     0.38558   0.70196   0.00000   0.00000  Uiso   1.00
C19    C     0.36724   0.77420   0.00000   0.00000  Uiso   1.00
C20    C     0.43784   0.86260   0.00000   0.00000  Uiso   1.00
C21    C     0.40903   0.88723   0.00000   0.00000  Uiso   1.00
C22    C     0.43310   0.94041   0.00000   0.00000  Uiso   1.00
C23    C     0.48691   0.97113   0.00000   0.00000  Uiso   1.00
C24    C     0.51510   0.94537   0.00000   0.00000  Uiso   1.00
C25    C     0.49084   0.89222   0.00000   0.00000  Uiso   1.00
C26    C     0.35033   0.71926   0.00000   0.00000  Uiso   1.00
H27    H     0.42779   0.73040   0.00000   0.00000  Uiso   1.00
H28    H     0.33679   0.78505   0.00000   0.00000  Uiso   1.00
H29    H     0.36628   0.86606   0.00000   0.00000  Uiso   1.00
H30    H     0.40633   0.95572   0.00000   0.00000  Uiso   1.00
H31    H     0.55763   0.96467   0.00000   0.00000  Uiso   1.00
H32    H     0.51443   0.87287   0.00000   0.00000  Uiso   1.00
N33    N     0.19192   0.60739   0.00000   0.00000  Uiso   1.00
C34    C     0.29804   0.68362   0.00000   0.00000  Uiso   1.00
C35    C     0.22580   0.59304   0.00000   0.00000  Uiso   1.00
C36    C     0.13740   0.57524   0.00000   0.00000  Uiso   1.00
C37    C     0.11277   0.52180   0.00000   0.00000  Uiso   1.00
C38    C     0.05959   0.49269   0.00000   0.00000  Uiso   1.00
C39    C     0.02887   0.51578   0.00000   0.00000  Uiso   1.00
C40    C     0.05463   0.56973   0.00000   0.00000  Uiso   1.00
C41    C     0.10778   0.59862   0.00000   0.00000  Uiso   1.00
C42    C     0.28074   0.63107   0.00000   0.00000  Uiso   1.00
H43    H     0.26960   0.69740   0.00000   0.00000  Uiso   1.00
H44    H     0.21495   0.55174   0.00000   0.00000  Uiso   1.00
H45    H     0.13394   0.50023   0.00000   0.00000  Uiso   1.00
H46    H     0.04428   0.45061   0.00000   0.00000  Uiso   1.00
H47    H     0.03534   0.59296   0.00000   0.00000  Uiso   1.00
H48    H     0.12713   0.64156   0.00000   0.00000  Uiso   1.00
N49    N     0.60739   0.41547   0.00000   0.00000  Uiso   1.00
C50    C     0.68362   0.38558   0.00000   0.00000  Uiso   1.00
C51    C     0.59304   0.36724   0.00000   0.00000  Uiso   1.00
C52    C     0.57524   0.43784   0.00000   0.00000  Uiso   1.00
C53    C     0.52180   0.40903   0.00000   0.00000  Uiso   1.00
C54    C     0.49269   0.43310   0.00000   0.00000  Uiso   1.00
C55    C     0.51578   0.48691   0.00000   0.00000  Uiso   1.00
C56    C     0.56973   0.51510   0.00000   0.00000  Uiso   1.00
C57    C     0.59862   0.49084   0.00000   0.00000  Uiso   1.00
C58    C     0.63107   0.35033   0.00000   0.00000  Uiso   1.00
H59    H     0.69740   0.42779   0.00000   0.00000  Uiso   1.00
H60    H     0.55174   0.33679   0.00000   0.00000  Uiso   1.00
H61    H     0.50023   0.36628   0.00000   0.00000  Uiso   1.00
H62    H     0.45061   0.40632   0.00000   0.00000  Uiso   1.00
H63    H     0.59296   0.55763   0.00000   0.00000  Uiso   1.00
H64    H     0.64156   0.51443   0.00000   0.00000  Uiso   1.00
N65    N     0.58453   0.19192   0.00000   0.00000  Uiso   1.00
C66    C     0.61442   0.29804   0.00000   0.00000  Uiso   1.00
C67    C     0.63276   0.22580   0.00000   0.00000  Uiso   1.00
C68    C     0.56216   0.13740   0.00000   0.00000  Uiso   1.00
C69    C     0.59097   0.11277   0.00000   0.00000  Uiso   1.00
C70    C     0.56690   0.05959   0.00000   0.00000  Uiso   1.00
C71    C     0.51309   0.02887   0.00000   0.00000  Uiso   1.00
C72    C     0.48490   0.05463   0.00000   0.00000  Uiso   1.00
C73    C     0.50916   0.10778   0.00000   0.00000  Uiso   1.00
C74    C     0.64967   0.28074   0.00000   0.00000  Uiso   1.00
H75    H     0.57221   0.26960   0.00000   0.00000  Uiso   1.00
H76    H     0.66321   0.21495   0.00000   0.00000  Uiso   1.00
H77    H     0.63372   0.13394   0.00000   0.00000  Uiso   1.00
H78    H     0.59368   0.04428   0.00000   0.00000  Uiso   1.00
H79    H     0.44237   0.03533   0.00000   0.00000  Uiso   1.00
H80    H     0.48557   0.12713   0.00000   0.00000  Uiso   1.00
N81    N     0.80808   0.39261   0.00000   0.00000  Uiso   1.00
C82    C     0.70196   0.31638   0.00000   0.00000  Uiso   1.00
C83    C     0.77420   0.40696   0.00000   0.00000  Uiso   1.00
C84    C     0.86260   0.42476   0.00000   0.00000  Uiso   1.00
C85    C     0.88723   0.47820   0.00000   0.00000  Uiso   1.00
C86    C     0.94041   0.50731   0.00000   0.00000  Uiso   1.00
C87    C     0.97113   0.48422   0.00000   0.00000  Uiso   1.00
C88    C     0.94537   0.43027   0.00000   0.00000  Uiso   1.00
C89    C     0.89222   0.40138   0.00000   0.00000  Uiso   1.00
C90    C     0.71926   0.36893   0.00000   0.00000  Uiso   1.00
H91    H     0.73040   0.30260   0.00000   0.00000  Uiso   1.00
H92    H     0.78505   0.44826   0.00000   0.00000  Uiso   1.00
H93    H     0.86606   0.49977   0.00000   0.00000  Uiso   1.00
H94    H     0.95572   0.54939   0.00000   0.00000  Uiso   1.00
H95    H     0.96467   0.40704   0.00000   0.00000  Uiso   1.00
H96    H     0.87287   0.35844   0.00000   0.00000  Uiso   1.00
loop_
_geom_bond_atom_site_label_1
_geom_bond_atom_site_label_2
_geom_bond_distance
_geom_bond_site_symmetry_2
_ccdc_geom_bond_type
N1     C3      1.248   .     D
N1     C4      1.381   .     S
C2     C10     1.349   .     D
C2     H11     1.085   .     S
C2     C42     1.346   .     S
C3     C10     1.418   .     S
C3     H12     1.079   .     S
C4     C5      1.348   .     S
C4     C9      1.338   .     D
C5     C6      1.342   .     D
C5     H13     1.077   .     S
C6     C7      1.360   .     S
C6     H14     1.073   .     S
C7     C8      1.360   .     D
C7     C55     1.457   .     S
C8     C9      1.341   .     S
C8     H15     1.073   .     S
C9     H16     1.083   .     S
C10    C18     1.346   .     S
N17    C19     1.248   .     D
N17    C20     1.381   .     S
C18    C26     1.349   .     D
C18    H27     1.085   .     S
C19    C26     1.418   .     S
C19    H28     1.079   .     S
C20    C21     1.348   .     D
C20    C25     1.338   .     S
C21    C22     1.342   .     S
C21    H29     1.077   .     S
C22    C23     1.360   .     D
C22    H30     1.073   .     S
C23    C24     1.360   .     S
C23    C71     1.457   1_565 S
C24    C25     1.341   .     D
C24    H31     1.073   .     S
C25    H32     1.083   .     S
C26    C34     1.346   .     S
N33    C35     1.248   .     D
N33    C36     1.381   .     S
C34    C42     1.349   .     D
C34    H43     1.085   .     S
C35    C42     1.418   .     S
C35    H44     1.079   .     S
C36    C37     1.348   .     D
C36    C41     1.338   .     S
C37    C38     1.342   .     S
C37    H45     1.077   .     S
C38    C39     1.360   .     D
C38    H46     1.073   .     S
C39    C40     1.360   .     S
C39    C87     1.457   1_455 S
C40    C41     1.341   .     D
C40    H47     1.073   .     S
C41    H48     1.083   .     S
N49    C51     1.248   .     D
N49    C52     1.381   .     S
C50    C58     1.349   .     D
C50    H59     1.085   .     S
C50    C90     1.346   .     S
C51    C58     1.418   .     S
C51    H60     1.079   .     S
C52    C53     1.348   .     S
C52    C57     1.338   .     D
C53    C54     1.342   .     D
C53    H61     1.077   .     S
C54    C55     1.360   .     S
C54    H62     1.073   .     S
C55    C56     1.360   .     D
C56    C57     1.341   .     S
C56    H63     1.073   .     S
C57    H64     1.083   .     S
C58    C66     1.346   .     S
N65    C67     1.248   .     D
N65    C68     1.381   .     S
C66    C74     1.349   .     D
C66    H75     1.085   .     S
C67    C74     1.418   .     S
C67    H76     1.079   .     S
C68    C69     1.348   .     D
C68    C73     1.338   .     S
C69    C70     1.342   .     S
C69    H77     1.077   .     S
C70    C71     1.360   .     D
C70    H78     1.073   .     S
C71    C23     1.457   1_545 S
C71    C72     1.360   .     S
C72    C73     1.341   .     D
C72    H79     1.073   .     S
C73    H80     1.083   .     S
C74    C82     1.346   .     S
N81    C83     1.248   .     D
N81    C84     1.381   .     S
C82    C90     1.349   .     D
C82    H91     1.085   .     S
C83    C90     1.418   .     S
C83    H92     1.079   .     S
C84    C85     1.348   .     D
C84    C89     1.338   .     S
C85    C86     1.342   .     S
C85    H93     1.077   .     S
C86    C87     1.360   .     D
C86    H94     1.073   .     S
C87    C39     1.457   1_655 S
C87    C88     1.360   .     S
C88    C89     1.341   .     D
C88    H95     1.073   .     S
C89    H96     1.083   .     S
