data_540
_audit_creation_date              2023-09-08
_audit_creation_method            'Materials Studio'
_symmetry_space_group_name_H-M    'P1'
_symmetry_Int_Tables_number       1
_symmetry_cell_setting            triclinic
loop_
_symmetry_equiv_pos_as_xyz
  x,y,z
_cell_length_a                    24.9908
_cell_length_b                    44.0191
_cell_length_c                    5.6343
_cell_angle_alpha                 90.0000
_cell_angle_beta                  95.2215
_cell_angle_gamma                 90.0000
loop_
_atom_site_label
_atom_site_type_symbol
_atom_site_fract_x
_atom_site_fract_y
_atom_site_fract_z
_atom_site_U_iso_or_equiv
_atom_site_adp_type
_atom_site_occupancy
N1     N     0.65323   0.89166   0.62345   0.00000  Uiso   1.00
N2     N     0.15323   0.39166   0.62345   0.00000  Uiso   1.00
N3     N     0.34677   0.89166   0.37655   0.00000  Uiso   1.00
N4     N     0.84677   0.39166   0.37655   0.00000  Uiso   1.00
N5     N     0.34677   0.10834   0.37655   0.00000  Uiso   1.00
N6     N     0.84677   0.60834   0.37655   0.00000  Uiso   1.00
N7     N     0.65323   0.10834   0.62345   0.00000  Uiso   1.00
N8     N     0.15323   0.60834   0.62345   0.00000  Uiso   1.00
C9     C     0.64768   0.86535   0.52090   0.00000  Uiso   1.00
C10    C     0.14768   0.36535   0.52090   0.00000  Uiso   1.00
C11    C     0.35232   0.86535   0.47910   0.00000  Uiso   1.00
C12    C     0.85232   0.36535   0.47910   0.00000  Uiso   1.00
C13    C     0.35232   0.13465   0.47910   0.00000  Uiso   1.00
C14    C     0.85232   0.63465   0.47910   0.00000  Uiso   1.00
C15    C     0.64768   0.13465   0.52090   0.00000  Uiso   1.00
C16    C     0.14768   0.63465   0.52090   0.00000  Uiso   1.00
C17    C     0.67462   0.83912   0.63977   0.00000  Uiso   1.00
C18    C     0.17462   0.33912   0.63977   0.00000  Uiso   1.00
C19    C     0.32538   0.83912   0.36023   0.00000  Uiso   1.00
C20    C     0.82538   0.33912   0.36023   0.00000  Uiso   1.00
C21    C     0.32538   0.16088   0.36023   0.00000  Uiso   1.00
C22    C     0.82538   0.66088   0.36023   0.00000  Uiso   1.00
C23    C     0.67462   0.16088   0.63977   0.00000  Uiso   1.00
C24    C     0.17462   0.66088   0.63977   0.00000  Uiso   1.00
C25    C     0.87040   0.80406   0.36635   0.00000  Uiso   1.00
C26    C     0.37040   0.30406   0.36635   0.00000  Uiso   1.00
C27    C     0.12960   0.80406   0.63365   0.00000  Uiso   1.00
C28    C     0.62960   0.30406   0.63365   0.00000  Uiso   1.00
C29    C     0.12960   0.19594   0.63365   0.00000  Uiso   1.00
C30    C     0.62960   0.69594   0.63365   0.00000  Uiso   1.00
C31    C     0.87040   0.19594   0.36635   0.00000  Uiso   1.00
C32    C     0.37040   0.69594   0.36635   0.00000  Uiso   1.00
C33    C     0.82278   0.78843   0.30668   0.00000  Uiso   1.00
C34    C     0.32278   0.28843   0.30668   0.00000  Uiso   1.00
C35    C     0.17722   0.78843   0.69332   0.00000  Uiso   1.00
C36    C     0.67722   0.28843   0.69332   0.00000  Uiso   1.00
C37    C     0.17722   0.21157   0.69332   0.00000  Uiso   1.00
C38    C     0.67722   0.71157   0.69332   0.00000  Uiso   1.00
C39    C     0.82278   0.21157   0.30668   0.00000  Uiso   1.00
C40    C     0.32278   0.71157   0.30668   0.00000  Uiso   1.00
C41    C     0.81449   0.77290   0.08901   0.00000  Uiso   1.00
C42    C     0.31449   0.27290   0.08901   0.00000  Uiso   1.00
C43    C     0.18551   0.77290   0.91099   0.00000  Uiso   1.00
C44    C     0.68551   0.27290   0.91099   0.00000  Uiso   1.00
C45    C     0.18551   0.22710   0.91099   0.00000  Uiso   1.00
C46    C     0.68551   0.72710   0.91099   0.00000  Uiso   1.00
C47    C     0.81449   0.22710   0.08901   0.00000  Uiso   1.00
C48    C     0.31449   0.72710   0.08901   0.00000  Uiso   1.00
C49    C     0.85718   0.77006   0.94561   0.00000  Uiso   1.00
C50    C     0.35718   0.27006   0.94561   0.00000  Uiso   1.00
C51    C     0.14282   0.77006   0.05439   0.00000  Uiso   1.00
C52    C     0.64282   0.27006   0.05439   0.00000  Uiso   1.00
C53    C     0.14282   0.22994   0.05439   0.00000  Uiso   1.00
C54    C     0.64282   0.72994   0.05439   0.00000  Uiso   1.00
C55    C     0.85718   0.22994   0.94561   0.00000  Uiso   1.00
C56    C     0.35718   0.72994   0.94561   0.00000  Uiso   1.00
C57    C     0.90590   0.78486   0.00966   0.00000  Uiso   1.00
C58    C     0.40590   0.28486   0.00966   0.00000  Uiso   1.00
C59    C     0.09410   0.78486   0.99034   0.00000  Uiso   1.00
C60    C     0.59410   0.28486   0.99034   0.00000  Uiso   1.00
C61    C     0.09410   0.21514   0.99034   0.00000  Uiso   1.00
C62    C     0.59410   0.71514   0.99034   0.00000  Uiso   1.00
C63    C     0.90590   0.21514   0.00966   0.00000  Uiso   1.00
C64    C     0.40590   0.71514   0.00966   0.00000  Uiso   1.00
C65    C     0.54971   0.96643   0.50554   0.00000  Uiso   1.00
C66    C     0.04971   0.46643   0.50554   0.00000  Uiso   1.00
C67    C     0.45029   0.96643   0.49446   0.00000  Uiso   1.00
C68    C     0.95029   0.46643   0.49446   0.00000  Uiso   1.00
C69    C     0.45029   0.03357   0.49446   0.00000  Uiso   1.00
C70    C     0.95029   0.53357   0.49446   0.00000  Uiso   1.00
C71    C     0.54971   0.03357   0.50554   0.00000  Uiso   1.00
C72    C     0.04971   0.53357   0.50554   0.00000  Uiso   1.00
C73    C     0.58263   0.96314   0.71856   0.00000  Uiso   1.00
C74    C     0.08263   0.46314   0.71856   0.00000  Uiso   1.00
C75    C     0.41737   0.96314   0.28144   0.00000  Uiso   1.00
C76    C     0.91737   0.46314   0.28144   0.00000  Uiso   1.00
C77    C     0.41737   0.03686   0.28144   0.00000  Uiso   1.00
C78    C     0.91737   0.53686   0.28144   0.00000  Uiso   1.00
C79    C     0.58263   0.03686   0.71856   0.00000  Uiso   1.00
C80    C     0.08263   0.53686   0.71856   0.00000  Uiso   1.00
C81    C     0.62096   0.94022   0.74275   0.00000  Uiso   1.00
C82    C     0.12096   0.44022   0.74275   0.00000  Uiso   1.00
C83    C     0.37904   0.94022   0.25725   0.00000  Uiso   1.00
C84    C     0.87904   0.44022   0.25725   0.00000  Uiso   1.00
C85    C     0.37904   0.05978   0.25725   0.00000  Uiso   1.00
C86    C     0.87904   0.55978   0.25725   0.00000  Uiso   1.00
C87    C     0.62096   0.05978   0.74275   0.00000  Uiso   1.00
C88    C     0.12096   0.55978   0.74275   0.00000  Uiso   1.00
C89    C     0.62407   0.91879   0.56217   0.00000  Uiso   1.00
C90    C     0.12407   0.41879   0.56217   0.00000  Uiso   1.00
C91    C     0.37593   0.91879   0.43783   0.00000  Uiso   1.00
C92    C     0.87593   0.41879   0.43783   0.00000  Uiso   1.00
C93    C     0.37593   0.08121   0.43783   0.00000  Uiso   1.00
C94    C     0.87593   0.58121   0.43783   0.00000  Uiso   1.00
C95    C     0.62407   0.08121   0.56217   0.00000  Uiso   1.00
C96    C     0.12407   0.58121   0.56217   0.00000  Uiso   1.00
C97    C     0.59291   0.92254   0.34435   0.00000  Uiso   1.00
C98    C     0.09291   0.42254   0.34435   0.00000  Uiso   1.00
C99    C     0.40709   0.92254   0.65565   0.00000  Uiso   1.00
C100   C     0.90709   0.42254   0.65565   0.00000  Uiso   1.00
C101   C     0.40709   0.07746   0.65565   0.00000  Uiso   1.00
C102   C     0.90709   0.57746   0.65565   0.00000  Uiso   1.00
C103   C     0.59291   0.07746   0.34435   0.00000  Uiso   1.00
C104   C     0.09291   0.57746   0.34435   0.00000  Uiso   1.00
C105   C     0.55627   0.94643   0.31670   0.00000  Uiso   1.00
C106   C     0.05627   0.44643   0.31670   0.00000  Uiso   1.00
C107   C     0.44373   0.94643   0.68330   0.00000  Uiso   1.00
C108   C     0.94373   0.44643   0.68330   0.00000  Uiso   1.00
C109   C     0.44373   0.05357   0.68330   0.00000  Uiso   1.00
C110   C     0.94373   0.55357   0.68330   0.00000  Uiso   1.00
C111   C     0.55627   0.05357   0.31670   0.00000  Uiso   1.00
C112   C     0.05627   0.55357   0.31670   0.00000  Uiso   1.00
C113   C     0.91146   0.80335   0.21344   0.00000  Uiso   1.00
C114   C     0.41146   0.30335   0.21344   0.00000  Uiso   1.00
C115   C     0.08854   0.80335   0.78656   0.00000  Uiso   1.00
C116   C     0.58854   0.30335   0.78656   0.00000  Uiso   1.00
C117   C     0.08854   0.19665   0.78656   0.00000  Uiso   1.00
C118   C     0.58854   0.69665   0.78656   0.00000  Uiso   1.00
C119   C     0.91146   0.19665   0.21344   0.00000  Uiso   1.00
C120   C     0.41146   0.69665   0.21344   0.00000  Uiso   1.00
C121   C     0.69926   0.84219   0.87219   0.00000  Uiso   1.00
C122   C     0.19926   0.34219   0.87219   0.00000  Uiso   1.00
C123   C     0.30074   0.84219   0.12781   0.00000  Uiso   1.00
C124   C     0.80074   0.34219   0.12781   0.00000  Uiso   1.00
C125   C     0.30074   0.15781   0.12781   0.00000  Uiso   1.00
C126   C     0.80074   0.65781   0.12781   0.00000  Uiso   1.00
C127   C     0.69926   0.15781   0.87219   0.00000  Uiso   1.00
C128   C     0.19926   0.65781   0.87219   0.00000  Uiso   1.00
C129   C     0.72448   0.81766   0.98785   0.00000  Uiso   1.00
C130   C     0.22448   0.31766   0.98785   0.00000  Uiso   1.00
C131   C     0.27552   0.81766   0.01215   0.00000  Uiso   1.00
C132   C     0.77552   0.31766   0.01215   0.00000  Uiso   1.00
C133   C     0.27552   0.18234   0.01215   0.00000  Uiso   1.00
C134   C     0.77552   0.68234   0.01215   0.00000  Uiso   1.00
C135   C     0.72448   0.18234   0.98785   0.00000  Uiso   1.00
C136   C     0.22448   0.68234   0.98785   0.00000  Uiso   1.00
C137   C     0.72661   0.78935   0.87471   0.00000  Uiso   1.00
C138   C     0.22661   0.28935   0.87471   0.00000  Uiso   1.00
C139   C     0.27339   0.78935   0.12529   0.00000  Uiso   1.00
C140   C     0.77339   0.28935   0.12529   0.00000  Uiso   1.00
C141   C     0.27339   0.21065   0.12529   0.00000  Uiso   1.00
C142   C     0.77339   0.71065   0.12529   0.00000  Uiso   1.00
C143   C     0.72661   0.21065   0.87471   0.00000  Uiso   1.00
C144   C     0.22661   0.71065   0.87471   0.00000  Uiso   1.00
C145   C     0.70165   0.78625   0.64174   0.00000  Uiso   1.00
C146   C     0.20165   0.28625   0.64174   0.00000  Uiso   1.00
C147   C     0.29835   0.78625   0.35826   0.00000  Uiso   1.00
C148   C     0.79835   0.28625   0.35826   0.00000  Uiso   1.00
C149   C     0.29835   0.21375   0.35826   0.00000  Uiso   1.00
C150   C     0.79835   0.71375   0.35826   0.00000  Uiso   1.00
C151   C     0.70165   0.21375   0.64174   0.00000  Uiso   1.00
C152   C     0.20165   0.71375   0.64174   0.00000  Uiso   1.00
C153   C     0.67458   0.81075   0.52759   0.00000  Uiso   1.00
C154   C     0.17458   0.31075   0.52759   0.00000  Uiso   1.00
C155   C     0.32542   0.81075   0.47241   0.00000  Uiso   1.00
C156   C     0.82542   0.31075   0.47241   0.00000  Uiso   1.00
C157   C     0.32542   0.18925   0.47241   0.00000  Uiso   1.00
C158   C     0.82542   0.68925   0.47241   0.00000  Uiso   1.00
C159   C     0.67458   0.18925   0.52759   0.00000  Uiso   1.00
C160   C     0.17458   0.68925   0.52759   0.00000  Uiso   1.00
C161   C     0.74074   0.73556   0.00630   0.00000  Uiso   1.00
C162   C     0.24074   0.23556   0.00630   0.00000  Uiso   1.00
C163   C     0.25926   0.73556   0.99370   0.00000  Uiso   1.00
C164   C     0.75926   0.23556   0.99370   0.00000  Uiso   1.00
C165   C     0.25926   0.26444   0.99370   0.00000  Uiso   1.00
C166   C     0.75926   0.76444   0.99370   0.00000  Uiso   1.00
C167   C     0.74074   0.26444   0.00630   0.00000  Uiso   1.00
C168   C     0.24074   0.76444   0.00630   0.00000  Uiso   1.00
C169   C     0.95808   0.17663   0.25853   0.00000  Uiso   1.00
C170   C     0.45808   0.67663   0.25853   0.00000  Uiso   1.00
C171   C     0.04192   0.17663   0.74147   0.00000  Uiso   1.00
C172   C     0.54192   0.67663   0.74147   0.00000  Uiso   1.00
C173   C     0.04192   0.82337   0.74147   0.00000  Uiso   1.00
C174   C     0.54192   0.32337   0.74147   0.00000  Uiso   1.00
C175   C     0.95808   0.82337   0.25853   0.00000  Uiso   1.00
C176   C     0.45808   0.32337   0.25853   0.00000  Uiso   1.00
O177   O     0.45338   0.65222   0.35639   0.00000  Uiso   1.00
O178   O     0.95338   0.15222   0.35639   0.00000  Uiso   1.00
O179   O     0.54662   0.65222   0.64361   0.00000  Uiso   1.00
O180   O     0.04662   0.15222   0.64361   0.00000  Uiso   1.00
O181   O     0.54662   0.34778   0.64361   0.00000  Uiso   1.00
O182   O     0.04662   0.84778   0.64361   0.00000  Uiso   1.00
O183   O     0.45338   0.34778   0.35639   0.00000  Uiso   1.00
O184   O     0.95338   0.84778   0.35639   0.00000  Uiso   1.00
H185   H     0.62238   0.86304   0.34297   0.00000  Uiso   1.00
H186   H     0.12238   0.36304   0.34297   0.00000  Uiso   1.00
H187   H     0.37762   0.86304   0.65703   0.00000  Uiso   1.00
H188   H     0.87762   0.36304   0.65703   0.00000  Uiso   1.00
H189   H     0.37762   0.13696   0.65703   0.00000  Uiso   1.00
H190   H     0.87762   0.63696   0.65703   0.00000  Uiso   1.00
H191   H     0.62238   0.13696   0.34297   0.00000  Uiso   1.00
H192   H     0.12238   0.63696   0.34297   0.00000  Uiso   1.00
H193   H     0.87602   0.81747   0.53994   0.00000  Uiso   1.00
H194   H     0.37602   0.31747   0.53994   0.00000  Uiso   1.00
H195   H     0.12398   0.81747   0.46006   0.00000  Uiso   1.00
H196   H     0.62398   0.31747   0.46006   0.00000  Uiso   1.00
H197   H     0.12398   0.18253   0.46006   0.00000  Uiso   1.00
H198   H     0.62398   0.68253   0.46006   0.00000  Uiso   1.00
H199   H     0.87602   0.18253   0.53994   0.00000  Uiso   1.00
H200   H     0.37602   0.68253   0.53994   0.00000  Uiso   1.00
H201   H     0.79005   0.78815   0.43502   0.00000  Uiso   1.00
H202   H     0.29005   0.28815   0.43502   0.00000  Uiso   1.00
H203   H     0.20995   0.78815   0.56498   0.00000  Uiso   1.00
H204   H     0.70995   0.28815   0.56498   0.00000  Uiso   1.00
H205   H     0.20995   0.21185   0.56498   0.00000  Uiso   1.00
H206   H     0.70995   0.71185   0.56498   0.00000  Uiso   1.00
H207   H     0.79005   0.21185   0.43502   0.00000  Uiso   1.00
H208   H     0.29005   0.71185   0.43502   0.00000  Uiso   1.00
H209   H     0.85221   0.75569   0.77672   0.00000  Uiso   1.00
H210   H     0.35221   0.25569   0.77672   0.00000  Uiso   1.00
H211   H     0.14779   0.75569   0.22328   0.00000  Uiso   1.00
H212   H     0.64779   0.25569   0.22328   0.00000  Uiso   1.00
H213   H     0.14779   0.24431   0.22328   0.00000  Uiso   1.00
H214   H     0.64779   0.74431   0.22328   0.00000  Uiso   1.00
H215   H     0.85221   0.24431   0.77672   0.00000  Uiso   1.00
H216   H     0.35221   0.74431   0.77672   0.00000  Uiso   1.00
H217   H     0.94109   0.78191   0.89639   0.00000  Uiso   1.00
H218   H     0.44109   0.28191   0.89639   0.00000  Uiso   1.00
H219   H     0.05891   0.78191   0.10361   0.00000  Uiso   1.00
H220   H     0.55891   0.28191   0.10361   0.00000  Uiso   1.00
H221   H     0.05891   0.21809   0.10361   0.00000  Uiso   1.00
H222   H     0.55891   0.71809   0.10361   0.00000  Uiso   1.00
H223   H     0.94109   0.21809   0.89639   0.00000  Uiso   1.00
H224   H     0.44109   0.71809   0.89639   0.00000  Uiso   1.00
H225   H     0.57808   0.97932   0.87345   0.00000  Uiso   1.00
H226   H     0.07808   0.47932   0.87345   0.00000  Uiso   1.00
H227   H     0.42192   0.97932   0.12655   0.00000  Uiso   1.00
H228   H     0.92192   0.47932   0.12655   0.00000  Uiso   1.00
H229   H     0.42192   0.02068   0.12655   0.00000  Uiso   1.00
H230   H     0.92192   0.52068   0.12655   0.00000  Uiso   1.00
H231   H     0.57808   0.02068   0.87345   0.00000  Uiso   1.00
H232   H     0.07808   0.52068   0.87345   0.00000  Uiso   1.00
H233   H     0.65000   0.93889   0.91060   0.00000  Uiso   1.00
H234   H     0.15000   0.43889   0.91060   0.00000  Uiso   1.00
H235   H     0.35000   0.93889   0.08940   0.00000  Uiso   1.00
H236   H     0.85000   0.43889   0.08940   0.00000  Uiso   1.00
H237   H     0.35000   0.06111   0.08940   0.00000  Uiso   1.00
H238   H     0.85000   0.56111   0.08940   0.00000  Uiso   1.00
H239   H     0.65000   0.06111   0.91060   0.00000  Uiso   1.00
H240   H     0.15000   0.56111   0.91060   0.00000  Uiso   1.00
H241   H     0.59763   0.90611   0.19127   0.00000  Uiso   1.00
H242   H     0.09763   0.40611   0.19127   0.00000  Uiso   1.00
H243   H     0.40237   0.90611   0.80873   0.00000  Uiso   1.00
H244   H     0.90237   0.40611   0.80873   0.00000  Uiso   1.00
H245   H     0.40237   0.09389   0.80873   0.00000  Uiso   1.00
H246   H     0.90237   0.59389   0.80873   0.00000  Uiso   1.00
H247   H     0.59763   0.09389   0.19127   0.00000  Uiso   1.00
H248   H     0.09763   0.59389   0.19127   0.00000  Uiso   1.00
H249   H     0.53150   0.94962   0.13832   0.00000  Uiso   1.00
H250   H     0.03150   0.44962   0.13832   0.00000  Uiso   1.00
H251   H     0.46850   0.94962   0.86168   0.00000  Uiso   1.00
H252   H     0.96850   0.44962   0.86168   0.00000  Uiso   1.00
H253   H     0.46850   0.05038   0.86168   0.00000  Uiso   1.00
H254   H     0.96850   0.55038   0.86168   0.00000  Uiso   1.00
H255   H     0.53150   0.05038   0.13832   0.00000  Uiso   1.00
H256   H     0.03150   0.55038   0.13832   0.00000  Uiso   1.00
H257   H     0.69860   0.86503   0.96725   0.00000  Uiso   1.00
H258   H     0.19860   0.36503   0.96725   0.00000  Uiso   1.00
H259   H     0.30140   0.86503   0.03275   0.00000  Uiso   1.00
H260   H     0.80140   0.36503   0.03275   0.00000  Uiso   1.00
H261   H     0.30140   0.13497   0.03275   0.00000  Uiso   1.00
H262   H     0.80140   0.63497   0.03275   0.00000  Uiso   1.00
H263   H     0.69860   0.13497   0.96725   0.00000  Uiso   1.00
H264   H     0.19860   0.63497   0.96725   0.00000  Uiso   1.00
H265   H     0.74391   0.82029   0.17777   0.00000  Uiso   1.00
H266   H     0.24391   0.32029   0.17777   0.00000  Uiso   1.00
H267   H     0.25609   0.82029   0.82223   0.00000  Uiso   1.00
H268   H     0.75609   0.32029   0.82223   0.00000  Uiso   1.00
H269   H     0.25609   0.17971   0.82223   0.00000  Uiso   1.00
H270   H     0.75609   0.67971   0.82223   0.00000  Uiso   1.00
H271   H     0.74391   0.17971   0.17777   0.00000  Uiso   1.00
H272   H     0.24391   0.67971   0.17777   0.00000  Uiso   1.00
H273   H     0.70340   0.76361   0.54445   0.00000  Uiso   1.00
H274   H     0.20340   0.26361   0.54445   0.00000  Uiso   1.00
H275   H     0.29660   0.76361   0.45555   0.00000  Uiso   1.00
H276   H     0.79660   0.26361   0.45555   0.00000  Uiso   1.00
H277   H     0.29660   0.23639   0.45555   0.00000  Uiso   1.00
H278   H     0.79660   0.73639   0.45555   0.00000  Uiso   1.00
H279   H     0.70340   0.23639   0.54445   0.00000  Uiso   1.00
H280   H     0.20340   0.73639   0.54445   0.00000  Uiso   1.00
H281   H     0.65248   0.80762   0.34315   0.00000  Uiso   1.00
H282   H     0.15248   0.30762   0.34315   0.00000  Uiso   1.00
H283   H     0.34752   0.80762   0.65685   0.00000  Uiso   1.00
H284   H     0.84752   0.30762   0.65685   0.00000  Uiso   1.00
H285   H     0.34752   0.19238   0.65685   0.00000  Uiso   1.00
H286   H     0.84752   0.69238   0.65685   0.00000  Uiso   1.00
H287   H     0.65248   0.19238   0.34315   0.00000  Uiso   1.00
H288   H     0.15248   0.69238   0.34315   0.00000  Uiso   1.00
H289   H     0.99643   0.18283   0.20005   0.00000  Uiso   1.00
H290   H     0.49643   0.68283   0.20005   0.00000  Uiso   1.00
H291   H     0.00357   0.18283   0.79995   0.00000  Uiso   1.00
H292   H     0.50357   0.68283   0.79995   0.00000  Uiso   1.00
H293   H     0.00357   0.81717   0.79995   0.00000  Uiso   1.00
H294   H     0.50357   0.31717   0.79995   0.00000  Uiso   1.00
H295   H     0.99643   0.81717   0.20005   0.00000  Uiso   1.00
H296   H     0.49643   0.31717   0.20005   0.00000  Uiso   1.00
C297   C     0.00000   0.51535   0.50000   0.00000  Uiso   1.00
C298   C     0.50000   0.01535   0.50000   0.00000  Uiso   1.00
C299   C     0.00000   0.48465   0.50000   0.00000  Uiso   1.00
C300   C     0.50000   0.98465   0.50000   0.00000  Uiso   1.00
loop_
_geom_bond_atom_site_label_1
_geom_bond_atom_site_label_2
_geom_bond_distance
_geom_bond_site_symmetry_2
_ccdc_geom_bond_type
N1     C9      1.296   .     D
N1     C89     1.425   .     S
N2     C10     1.296   .     D
N2     C90     1.425   .     S
N3     C11     1.296   .     S
N3     C91     1.425   .     D
N4     C12     1.296   .     S
N4     C92     1.425   .     D
N5     C13     1.296   .     D
N5     C93     1.425   .     S
N6     C14     1.296   .     D
N6     C94     1.425   .     S
N7     C15     1.296   .     S
N7     C95     1.425   .     D
N8     C16     1.296   .     S
N8     C96     1.425   .     D
C9     C17     1.467   .     S
C9     H185    1.140   .     S
C10    C18     1.467   .     S
C10    H186    1.140   .     S
C11    C19     1.467   .     D
C11    H187    1.140   .     S
C12    C20     1.467   .     D
C12    H188    1.140   .     S
C13    C21     1.467   .     S
C13    H189    1.140   .     S
C14    C22     1.467   .     S
C14    H190    1.140   .     S
C15    C23     1.467   .     D
C15    H191    1.140   .     S
C16    C24     1.467   .     D
C16    H192    1.140   .     S
C17    C121    1.402   .     S
C17    C153    1.400   .     D
C18    C122    1.402   .     S
C18    C154    1.400   .     D
C19    C123    1.402   .     S
C19    C155    1.400   .     S
C20    C124    1.402   .     S
C20    C156    1.400   .     S
C21    C125    1.402   .     D
C21    C157    1.400   .     S
C22    C126    1.402   .     S
C22    C158    1.400   .     D
C23    C127    1.402   .     S
C23    C159    1.400   .     S
C24    C128    1.402   .     S
C24    C160    1.400   .     S
C25    C33     1.389   .     S
C25    C113    1.399   .     D
C25    H193    1.140   .     S
C26    C34     1.389   .     S
C26    C114    1.399   .     D
C26    H194    1.140   .     S
C27    C35     1.389   .     D
C27    C115    1.399   .     S
C27    H195    1.140   .     S
C28    C36     1.389   .     S
C28    C116    1.399   .     D
C28    H196    1.140   .     S
C29    C37     1.389   .     D
C29    C117    1.399   .     S
C29    H197    1.140   .     S
C30    C38     1.389   .     S
C30    C118    1.399   .     D
C30    H198    1.140   .     S
C31    C39     1.389   .     S
C31    C119    1.399   .     D
C31    H199    1.140   .     S
C32    C40     1.389   .     S
C32    C120    1.399   .     D
C32    H200    1.140   .     S
C33    C41     1.403   .     D
C33    H201    1.140   .     S
C34    C42     1.403   .     D
C34    H202    1.140   .     S
C35    C43     1.403   .     S
C35    H203    1.140   .     S
C36    C44     1.403   .     D
C36    H204    1.140   .     S
C37    C45     1.403   .     S
C37    H205    1.140   .     S
C38    C46     1.403   .     D
C38    H206    1.140   .     S
C39    C47     1.403   .     D
C39    H207    1.140   .     S
C40    C48     1.403   .     D
C40    H208    1.140   .     S
C41    C49     1.401   1_554 S
C41    C166    1.482   1_554 S
C42    C50     1.401   1_554 S
C42    C165    1.482   1_554 S
C43    C51     1.401   1_556 D
C43    C168    1.482   1_556 S
C44    C52     1.401   1_556 S
C44    C167    1.482   1_556 S
C45    C53     1.401   1_556 D
C45    C162    1.482   1_556 S
C46    C54     1.401   1_556 S
C46    C161    1.482   1_556 S
C47    C55     1.401   1_554 S
C47    C164    1.482   1_554 S
C48    C56     1.401   1_554 S
C48    C163    1.482   1_554 S
C49    C41     1.401   1_556 S
C49    C57     1.399   1_556 D
C49    H209    1.140   .     S
C50    C42     1.401   1_556 S
C50    C58     1.399   1_556 D
C50    H210    1.140   .     S
C51    C43     1.401   1_554 D
C51    C59     1.399   1_554 S
C51    H211    1.140   .     S
C52    C44     1.401   1_554 S
C52    C60     1.399   1_554 D
C52    H212    1.140   .     S
C53    C45     1.401   1_554 D
C53    C61     1.399   1_554 S
C53    H213    1.140   .     S
C54    C46     1.401   1_554 S
C54    C62     1.399   1_554 D
C54    H214    1.140   .     S
C55    C47     1.401   1_556 S
C55    C63     1.399   1_556 D
C55    H215    1.140   .     S
C56    C48     1.401   1_556 S
C56    C64     1.399   1_556 D
C56    H216    1.140   .     S
C57    C49     1.399   1_554 D
C57    C113    1.404   .     S
C57    H217    1.140   1_554 S
C58    C50     1.399   1_554 D
C58    C114    1.404   .     S
C58    H218    1.140   1_554 S
C59    C51     1.399   1_556 S
C59    C115    1.404   .     D
C59    H219    1.140   1_556 S
C60    C52     1.399   1_556 D
C60    C116    1.404   .     S
C60    H220    1.140   1_556 S
C61    C53     1.399   1_556 S
C61    C117    1.404   .     D
C61    H221    1.140   1_556 S
C62    C54     1.399   1_556 D
C62    C118    1.404   .     S
C62    H222    1.140   1_556 S
C63    C55     1.399   1_554 D
C63    C119    1.404   .     S
C63    H223    1.140   1_554 S
C64    C56     1.399   1_554 D
C64    C120    1.404   .     S
C64    H224    1.140   1_554 S
C65    C73     1.400   .     S
C65    C105    1.402   .     D
C65    C300    1.477   .     S
C66    C74     1.400   .     S
C66    C106    1.402   .     D
C66    C299    1.477   .     S
C67    C75     1.400   .     S
C67    C107    1.402   .     S
C67    C300    1.477   .     D
C68    C76     1.400   .     S
C68    C108    1.402   .     S
C68    C299    1.477   1_655 D
C69    C77     1.400   .     D
C69    C109    1.402   .     S
C69    C298    1.477   .     S
C70    C78     1.400   .     S
C70    C110    1.402   .     D
C70    C297    1.477   1_655 S
C71    C79     1.400   .     S
C71    C111    1.402   .     S
C71    C298    1.477   .     D
C72    C80     1.400   .     S
C72    C112    1.402   .     S
C72    C297    1.477   .     D
C73    C81     1.389   .     D
C73    H225    1.140   .     S
C74    C82     1.389   .     D
C74    H226    1.140   .     S
C75    C83     1.389   .     D
C75    H227    1.140   .     S
C76    C84     1.389   .     D
C76    H228    1.140   .     S
C77    C85     1.389   .     S
C77    H229    1.140   .     S
C78    C86     1.389   .     D
C78    H230    1.140   .     S
C79    C87     1.389   .     D
C79    H231    1.140   .     S
C80    C88     1.389   .     D
C80    H232    1.140   .     S
C81    C89     1.395   .     S
C81    H233    1.140   .     S
C82    C90     1.395   .     S
C82    H234    1.140   .     S
C83    C91     1.395   .     S
C83    H235    1.140   .     S
C84    C92     1.395   .     S
C84    H236    1.140   .     S
C85    C93     1.395   .     D
C85    H237    1.140   .     S
C86    C94     1.395   .     S
C86    H238    1.140   .     S
C87    C95     1.395   .     S
C87    H239    1.140   .     S
C88    C96     1.395   .     S
C88    H240    1.140   .     S
C89    C97     1.402   .     D
C90    C98     1.402   .     D
C91    C99     1.402   .     S
C92    C100    1.402   .     S
C93    C101    1.402   .     S
C94    C102    1.402   .     D
C95    C103    1.402   .     S
C96    C104    1.402   .     S
C97    C105    1.394   .     S
C97    H241    1.140   .     S
C98    C106    1.394   .     S
C98    H242    1.140   .     S
C99    C107    1.394   .     D
C99    H243    1.140   .     S
C100   C108    1.394   .     D
C100   H244    1.140   .     S
C101   C109    1.394   .     D
C101   H245    1.140   .     S
C102   C110    1.394   .     S
C102   H246    1.140   .     S
C103   C111    1.394   .     D
C103   H247    1.140   .     S
C104   C112    1.394   .     D
C104   H248    1.140   .     S
C105   H249    1.140   .     S
C106   H250    1.140   .     S
C107   H251    1.140   .     S
C108   H252    1.140   .     S
C109   H253    1.140   .     S
C110   H254    1.140   .     S
C111   H255    1.140   .     S
C112   H256    1.140   .     S
C113   C175    1.464   .     S
C114   C176    1.464   .     S
C115   C173    1.464   .     S
C116   C174    1.464   .     S
C117   C171    1.464   .     S
C118   C172    1.464   .     S
C119   C169    1.464   .     S
C120   C170    1.464   .     S
C121   C129    1.383   .     D
C121   H257    1.140   .     S
C122   C130    1.383   .     D
C122   H258    1.140   .     S
C123   C131    1.383   .     D
C123   H259    1.140   .     S
C124   C132    1.383   .     D
C124   H260    1.140   .     S
C125   C133    1.383   .     S
C125   H261    1.140   .     S
C126   C134    1.383   .     D
C126   H262    1.140   .     S
C127   C135    1.383   .     D
C127   H263    1.140   .     S
C128   C136    1.383   .     D
C128   H264    1.140   .     S
C129   C137    1.403   .     S
C129   H265    1.140   1_556 S
C130   C138    1.403   .     S
C130   H266    1.140   1_556 S
C131   C139    1.403   .     S
C131   H267    1.140   1_554 S
C132   C140    1.403   .     S
C132   H268    1.140   1_554 S
C133   C141    1.403   .     D
C133   H269    1.140   1_554 S
C134   C142    1.403   .     S
C134   H270    1.140   1_554 S
C135   C143    1.403   .     S
C135   H271    1.140   1_556 S
C136   C144    1.403   .     S
C136   H272    1.140   1_556 S
C137   C145    1.408   .     D
C137   C166    1.489   .     S
C138   C146    1.408   .     D
C138   C165    1.489   .     S
C139   C147    1.408   .     S
C139   C168    1.489   .     D
C140   C148    1.408   .     S
C140   C167    1.489   .     D
C141   C149    1.408   .     S
C141   C162    1.489   .     S
C142   C150    1.408   .     D
C142   C161    1.489   .     S
C143   C151    1.408   .     S
C143   C164    1.489   .     D
C144   C152    1.408   .     S
C144   C163    1.489   .     D
C145   C153    1.398   .     S
C145   H273    1.140   .     S
C146   C154    1.398   .     S
C146   H274    1.140   .     S
C147   C155    1.398   .     D
C147   H275    1.140   .     S
C148   C156    1.398   .     D
C148   H276    1.140   .     S
C149   C157    1.398   .     D
C149   H277    1.140   .     S
C150   C158    1.398   .     S
C150   H278    1.140   .     S
C151   C159    1.398   .     D
C151   H279    1.140   .     S
C152   C160    1.398   .     D
C152   H280    1.140   .     S
C153   H281    1.140   .     S
C154   H282    1.140   .     S
C155   H283    1.140   .     S
C156   H284    1.140   .     S
C157   H285    1.140   .     S
C158   H286    1.140   .     S
C159   H287    1.140   .     S
C160   H288    1.140   .     S
C161   C46     1.482   1_554 S
C161   C166    1.357   1_554 D
C162   C45     1.482   1_554 S
C162   C165    1.357   1_554 D
C163   C48     1.482   1_556 S
C163   C168    1.357   1_556 S
C164   C47     1.482   1_556 S
C164   C167    1.357   1_556 S
C165   C162    1.357   1_556 D
C165   C42     1.482   1_556 S
C166   C41     1.482   1_556 S
C166   C161    1.357   1_556 D
C167   C164    1.357   1_554 S
C167   C44     1.482   1_554 S
C168   C43     1.482   1_554 S
C168   C163    1.357   1_554 S
C169   O178    1.218   .     D
C169   H289    1.077   .     S
C170   O177    1.218   .     D
C170   H290    1.077   .     S
C171   O180    1.218   .     D
C171   H291    1.077   .     S
C172   O179    1.218   .     D
C172   H292    1.077   .     S
C173   O182    1.218   .     D
C173   H293    1.077   .     S
C174   O181    1.218   .     D
C174   H294    1.077   .     S
C175   O184    1.218   .     D
C175   H295    1.077   .     S
C176   O183    1.218   .     D
C176   H296    1.077   .     S
H217   C57     1.140   1_556 S
H218   C58     1.140   1_556 S
H219   C59     1.140   1_554 S
H220   C60     1.140   1_554 S
H221   C61     1.140   1_554 S
H222   C62     1.140   1_554 S
H223   C63     1.140   1_556 S
H224   C64     1.140   1_556 S
H265   C129    1.140   1_554 S
H266   C130    1.140   1_554 S
H267   C131    1.140   1_556 S
H268   C132    1.140   1_556 S
H269   C133    1.140   1_556 S
H270   C134    1.140   1_556 S
H271   C135    1.140   1_554 S
H272   C136    1.140   1_554 S
C297   C70     1.477   1_455 S
C297   C299    1.351   .     S
C298   C300    1.351   1_545 S
C299   C68     1.477   1_455 D
C300   C298    1.351   1_565 S
