data_541
_audit_creation_date              2023-09-08
_audit_creation_method            'Materials Studio'
_symmetry_space_group_name_H-M    'P1'
_symmetry_Int_Tables_number       1
_symmetry_cell_setting            triclinic
loop_
_symmetry_equiv_pos_as_xyz
  x,y,z
_cell_length_a                    26.3252
_cell_length_b                    44.5426
_cell_length_c                    5.6472
_cell_angle_alpha                 90.0000
_cell_angle_beta                  110.9500
_cell_angle_gamma                 90.0000
loop_
_atom_site_label
_atom_site_type_symbol
_atom_site_fract_x
_atom_site_fract_y
_atom_site_fract_z
_atom_site_U_iso_or_equiv
_atom_site_adp_type
_atom_site_occupancy
N1     N     0.33816   0.10492   0.36046   0.00000  Uiso   1.00
C2     C     0.33337   0.12977   0.22982   0.00000  Uiso   1.00
C3     C     0.30347   0.15608   0.27611   0.00000  Uiso   1.00
C4     C     0.10164   0.22567   0.57090   0.00000  Uiso   1.00
C5     C     0.15653   0.22478   0.60591   0.00000  Uiso   1.00
C6     C     0.17607   0.23797   0.42685   0.00000  Uiso   1.00
C7     C     0.13981   0.25218   0.21383   0.00000  Uiso   1.00
C8     C     0.08498   0.25311   0.17972   0.00000  Uiso   1.00
H9     H     0.35475   0.13281   0.09891   0.00000  Uiso   1.00
H10    H     0.08687   0.21555   0.70976   0.00000  Uiso   1.00
H11    H     0.18368   0.21440   0.77511   0.00000  Uiso   1.00
H12    H     0.05733   0.26415   0.01501   0.00000  Uiso   1.00
C13    C     0.44996   0.03359   0.42426   0.00000  Uiso   1.00
C14    C     0.41827   0.03460   0.57861   0.00000  Uiso   1.00
C15    C     0.37843   0.05671   0.54052   0.00000  Uiso   1.00
C16    C     0.37175   0.07931   0.35718   0.00000  Uiso   1.00
C17    C     0.40202   0.07748   0.19440   0.00000  Uiso   1.00
C18    C     0.44073   0.05482   0.22854   0.00000  Uiso   1.00
C19    C     0.06588   0.23980   0.35785   0.00000  Uiso   1.00
C20    C     0.27652   0.15494   0.45207   0.00000  Uiso   1.00
C21    C     0.25264   0.18110   0.50735   0.00000  Uiso   1.00
C22    C     0.25583   0.20888   0.39039   0.00000  Uiso   1.00
C23    C     0.28001   0.20942   0.20431   0.00000  Uiso   1.00
C24    C     0.30448   0.18347   0.15119   0.00000  Uiso   1.00
H25    H     0.35508   0.05737   0.66509   0.00000  Uiso   1.00
H26    H     0.39776   0.09384   0.04622   0.00000  Uiso   1.00
H27    H     0.46563   0.05482   0.11071   0.00000  Uiso   1.00
H28    H     0.27495   0.13409   0.55127   0.00000  Uiso   1.00
H29    H     0.23323   0.17965   0.64720   0.00000  Uiso   1.00
H30    H     0.32498   0.18488   0.01480   0.00000  Uiso   1.00
C31    C     0.26568   0.26265   0.53778   0.00000  Uiso   1.00
H32    H     0.15385   0.73750   0.07413   0.00000  Uiso   1.00
H33    H     0.21956   0.73010   0.89769   0.00000  Uiso   1.00
H34    H     0.02343   0.75951   0.33115   0.00000  Uiso   1.00
H35    H     0.57484   0.98279   0.26361   0.00000  Uiso   1.00
N36    N     0.83816   0.60492   0.36046   0.00000  Uiso   1.00
C37    C     0.83337   0.62977   0.22982   0.00000  Uiso   1.00
C38    C     0.80347   0.65608   0.27611   0.00000  Uiso   1.00
C39    C     0.60164   0.72567   0.57090   0.00000  Uiso   1.00
C40    C     0.65653   0.72478   0.60591   0.00000  Uiso   1.00
C41    C     0.67607   0.73797   0.42685   0.00000  Uiso   1.00
C42    C     0.63981   0.75218   0.21383   0.00000  Uiso   1.00
C43    C     0.58498   0.75311   0.17972   0.00000  Uiso   1.00
H44    H     0.85475   0.63281   0.09891   0.00000  Uiso   1.00
H45    H     0.58687   0.71555   0.70976   0.00000  Uiso   1.00
H46    H     0.68368   0.71440   0.77511   0.00000  Uiso   1.00
H47    H     0.55733   0.76415   0.01501   0.00000  Uiso   1.00
C48    C     0.94996   0.53359   0.42426   0.00000  Uiso   1.00
C49    C     0.91827   0.53460   0.57861   0.00000  Uiso   1.00
C50    C     0.87843   0.55671   0.54052   0.00000  Uiso   1.00
C51    C     0.87175   0.57931   0.35718   0.00000  Uiso   1.00
C52    C     0.90202   0.57748   0.19440   0.00000  Uiso   1.00
C53    C     0.94073   0.55482   0.22854   0.00000  Uiso   1.00
C54    C     0.56588   0.73980   0.35785   0.00000  Uiso   1.00
C55    C     0.77652   0.65494   0.45207   0.00000  Uiso   1.00
C56    C     0.75264   0.68110   0.50735   0.00000  Uiso   1.00
C57    C     0.75583   0.70888   0.39039   0.00000  Uiso   1.00
C58    C     0.78001   0.70942   0.20431   0.00000  Uiso   1.00
C59    C     0.80448   0.68347   0.15119   0.00000  Uiso   1.00
H60    H     0.85508   0.55737   0.66509   0.00000  Uiso   1.00
H61    H     0.89776   0.59384   0.04622   0.00000  Uiso   1.00
H62    H     0.96563   0.55482   0.11071   0.00000  Uiso   1.00
H63    H     0.77495   0.63409   0.55127   0.00000  Uiso   1.00
H64    H     0.73323   0.67965   0.64720   0.00000  Uiso   1.00
H65    H     0.82498   0.68488   0.01480   0.00000  Uiso   1.00
C66    C     0.76568   0.76265   0.53778   0.00000  Uiso   1.00
H67    H     0.65385   0.23750   0.07413   0.00000  Uiso   1.00
H68    H     0.71956   0.23010   0.89769   0.00000  Uiso   1.00
H69    H     0.52343   0.25951   0.33115   0.00000  Uiso   1.00
H70    H     0.07484   0.48279   0.26361   0.00000  Uiso   1.00
N71    N     0.66184   0.10492   0.63954   0.00000  Uiso   1.00
C72    C     0.66663   0.12977   0.77018   0.00000  Uiso   1.00
C73    C     0.69653   0.15608   0.72389   0.00000  Uiso   1.00
C74    C     0.89836   0.22567   0.42910   0.00000  Uiso   1.00
C75    C     0.84347   0.22478   0.39409   0.00000  Uiso   1.00
C76    C     0.82393   0.23797   0.57315   0.00000  Uiso   1.00
C77    C     0.86019   0.25218   0.78617   0.00000  Uiso   1.00
C78    C     0.91502   0.25311   0.82028   0.00000  Uiso   1.00
H79    H     0.64525   0.13281   0.90109   0.00000  Uiso   1.00
H80    H     0.91313   0.21555   0.29024   0.00000  Uiso   1.00
H81    H     0.81632   0.21440   0.22489   0.00000  Uiso   1.00
H82    H     0.94267   0.26415   0.98499   0.00000  Uiso   1.00
C83    C     0.55004   0.03359   0.57574   0.00000  Uiso   1.00
C84    C     0.58173   0.03460   0.42139   0.00000  Uiso   1.00
C85    C     0.62157   0.05671   0.45948   0.00000  Uiso   1.00
C86    C     0.62825   0.07931   0.64282   0.00000  Uiso   1.00
C87    C     0.59798   0.07748   0.80560   0.00000  Uiso   1.00
C88    C     0.55927   0.05482   0.77146   0.00000  Uiso   1.00
C89    C     0.93412   0.23980   0.64215   0.00000  Uiso   1.00
C90    C     0.72348   0.15494   0.54793   0.00000  Uiso   1.00
C91    C     0.74736   0.18110   0.49265   0.00000  Uiso   1.00
C92    C     0.74417   0.20888   0.60961   0.00000  Uiso   1.00
C93    C     0.71999   0.20942   0.79569   0.00000  Uiso   1.00
C94    C     0.69552   0.18347   0.84881   0.00000  Uiso   1.00
H95    H     0.64492   0.05737   0.33491   0.00000  Uiso   1.00
H96    H     0.60224   0.09384   0.95378   0.00000  Uiso   1.00
H97    H     0.53437   0.05482   0.88929   0.00000  Uiso   1.00
H98    H     0.72505   0.13409   0.44873   0.00000  Uiso   1.00
H99    H     0.76677   0.17965   0.35280   0.00000  Uiso   1.00
H100   H     0.67502   0.18488   0.98520   0.00000  Uiso   1.00
C101   C     0.73432   0.26265   0.46222   0.00000  Uiso   1.00
H102   H     0.84615   0.73750   0.92587   0.00000  Uiso   1.00
H103   H     0.78044   0.73010   0.10231   0.00000  Uiso   1.00
H104   H     0.97657   0.75951   0.66885   0.00000  Uiso   1.00
H105   H     0.42516   0.98279   0.73639   0.00000  Uiso   1.00
N106   N     0.16184   0.60492   0.63954   0.00000  Uiso   1.00
C107   C     0.16663   0.62977   0.77018   0.00000  Uiso   1.00
C108   C     0.19653   0.65608   0.72389   0.00000  Uiso   1.00
C109   C     0.39836   0.72567   0.42910   0.00000  Uiso   1.00
C110   C     0.34347   0.72478   0.39409   0.00000  Uiso   1.00
C111   C     0.32393   0.73797   0.57315   0.00000  Uiso   1.00
C112   C     0.36019   0.75218   0.78617   0.00000  Uiso   1.00
C113   C     0.41502   0.75311   0.82028   0.00000  Uiso   1.00
H114   H     0.14525   0.63281   0.90109   0.00000  Uiso   1.00
H115   H     0.41313   0.71555   0.29024   0.00000  Uiso   1.00
H116   H     0.31632   0.71440   0.22489   0.00000  Uiso   1.00
H117   H     0.44267   0.76415   0.98499   0.00000  Uiso   1.00
C118   C     0.05004   0.53359   0.57574   0.00000  Uiso   1.00
C119   C     0.08173   0.53460   0.42139   0.00000  Uiso   1.00
C120   C     0.12157   0.55671   0.45948   0.00000  Uiso   1.00
C121   C     0.12825   0.57931   0.64282   0.00000  Uiso   1.00
C122   C     0.09798   0.57748   0.80560   0.00000  Uiso   1.00
C123   C     0.05927   0.55482   0.77146   0.00000  Uiso   1.00
C124   C     0.43412   0.73980   0.64215   0.00000  Uiso   1.00
C125   C     0.22348   0.65494   0.54793   0.00000  Uiso   1.00
C126   C     0.24736   0.68110   0.49265   0.00000  Uiso   1.00
C127   C     0.24417   0.70888   0.60961   0.00000  Uiso   1.00
C128   C     0.21999   0.70942   0.79569   0.00000  Uiso   1.00
C129   C     0.19552   0.68347   0.84881   0.00000  Uiso   1.00
H130   H     0.14492   0.55737   0.33491   0.00000  Uiso   1.00
H131   H     0.10224   0.59384   0.95378   0.00000  Uiso   1.00
H132   H     0.03437   0.55482   0.88929   0.00000  Uiso   1.00
H133   H     0.22505   0.63409   0.44873   0.00000  Uiso   1.00
H134   H     0.26677   0.67965   0.35280   0.00000  Uiso   1.00
H135   H     0.17502   0.68488   0.98520   0.00000  Uiso   1.00
C136   C     0.23432   0.76265   0.46222   0.00000  Uiso   1.00
H137   H     0.34615   0.23750   0.92587   0.00000  Uiso   1.00
H138   H     0.28044   0.23010   0.10231   0.00000  Uiso   1.00
H139   H     0.47657   0.25951   0.66885   0.00000  Uiso   1.00
H140   H     0.92516   0.48279   0.73639   0.00000  Uiso   1.00
N141   N     0.66184   0.89508   0.63954   0.00000  Uiso   1.00
C142   C     0.66663   0.87023   0.77018   0.00000  Uiso   1.00
C143   C     0.69653   0.84392   0.72389   0.00000  Uiso   1.00
C144   C     0.89836   0.77433   0.42910   0.00000  Uiso   1.00
C145   C     0.84347   0.77522   0.39409   0.00000  Uiso   1.00
C146   C     0.82393   0.76203   0.57315   0.00000  Uiso   1.00
C147   C     0.86019   0.74782   0.78617   0.00000  Uiso   1.00
C148   C     0.91502   0.74689   0.82028   0.00000  Uiso   1.00
H149   H     0.64525   0.86719   0.90109   0.00000  Uiso   1.00
H150   H     0.91313   0.78445   0.29024   0.00000  Uiso   1.00
H151   H     0.81632   0.78560   0.22489   0.00000  Uiso   1.00
H152   H     0.94267   0.73585   0.98499   0.00000  Uiso   1.00
C153   C     0.55004   0.96641   0.57574   0.00000  Uiso   1.00
C154   C     0.58173   0.96540   0.42139   0.00000  Uiso   1.00
C155   C     0.62157   0.94329   0.45948   0.00000  Uiso   1.00
C156   C     0.62825   0.92069   0.64282   0.00000  Uiso   1.00
C157   C     0.59798   0.92252   0.80560   0.00000  Uiso   1.00
C158   C     0.55927   0.94518   0.77146   0.00000  Uiso   1.00
C159   C     0.93412   0.76020   0.64215   0.00000  Uiso   1.00
C160   C     0.72348   0.84506   0.54793   0.00000  Uiso   1.00
C161   C     0.74736   0.81890   0.49265   0.00000  Uiso   1.00
C162   C     0.74417   0.79112   0.60961   0.00000  Uiso   1.00
C163   C     0.71999   0.79058   0.79569   0.00000  Uiso   1.00
C164   C     0.69552   0.81653   0.84881   0.00000  Uiso   1.00
H165   H     0.64492   0.94263   0.33491   0.00000  Uiso   1.00
H166   H     0.60224   0.90616   0.95378   0.00000  Uiso   1.00
H167   H     0.53437   0.94518   0.88929   0.00000  Uiso   1.00
H168   H     0.72505   0.86591   0.44873   0.00000  Uiso   1.00
H169   H     0.76677   0.82035   0.35280   0.00000  Uiso   1.00
H170   H     0.67502   0.81512   0.98520   0.00000  Uiso   1.00
C171   C     0.73432   0.73735   0.46222   0.00000  Uiso   1.00
H172   H     0.84615   0.26250   0.92587   0.00000  Uiso   1.00
H173   H     0.78044   0.26990   0.10231   0.00000  Uiso   1.00
H174   H     0.97657   0.24049   0.66885   0.00000  Uiso   1.00
H175   H     0.42516   0.01721   0.73639   0.00000  Uiso   1.00
N176   N     0.16184   0.39508   0.63954   0.00000  Uiso   1.00
C177   C     0.16663   0.37023   0.77018   0.00000  Uiso   1.00
C178   C     0.19653   0.34392   0.72389   0.00000  Uiso   1.00
C179   C     0.39836   0.27433   0.42910   0.00000  Uiso   1.00
C180   C     0.34347   0.27522   0.39409   0.00000  Uiso   1.00
C181   C     0.32393   0.26203   0.57315   0.00000  Uiso   1.00
C182   C     0.36019   0.24782   0.78617   0.00000  Uiso   1.00
C183   C     0.41502   0.24689   0.82028   0.00000  Uiso   1.00
H184   H     0.14525   0.36719   0.90109   0.00000  Uiso   1.00
H185   H     0.41313   0.28445   0.29024   0.00000  Uiso   1.00
H186   H     0.31632   0.28560   0.22489   0.00000  Uiso   1.00
H187   H     0.44267   0.23585   0.98499   0.00000  Uiso   1.00
C188   C     0.05004   0.46641   0.57574   0.00000  Uiso   1.00
C189   C     0.08173   0.46540   0.42139   0.00000  Uiso   1.00
C190   C     0.12157   0.44329   0.45948   0.00000  Uiso   1.00
C191   C     0.12825   0.42069   0.64282   0.00000  Uiso   1.00
C192   C     0.09798   0.42252   0.80560   0.00000  Uiso   1.00
C193   C     0.05927   0.44518   0.77146   0.00000  Uiso   1.00
C194   C     0.43412   0.26020   0.64215   0.00000  Uiso   1.00
C195   C     0.22348   0.34506   0.54793   0.00000  Uiso   1.00
C196   C     0.24736   0.31890   0.49265   0.00000  Uiso   1.00
C197   C     0.24417   0.29112   0.60961   0.00000  Uiso   1.00
C198   C     0.21999   0.29058   0.79569   0.00000  Uiso   1.00
C199   C     0.19552   0.31653   0.84881   0.00000  Uiso   1.00
H200   H     0.14492   0.44263   0.33491   0.00000  Uiso   1.00
H201   H     0.10224   0.40616   0.95378   0.00000  Uiso   1.00
H202   H     0.03437   0.44518   0.88929   0.00000  Uiso   1.00
H203   H     0.22505   0.36591   0.44873   0.00000  Uiso   1.00
H204   H     0.26677   0.32035   0.35280   0.00000  Uiso   1.00
H205   H     0.17502   0.31512   0.98520   0.00000  Uiso   1.00
C206   C     0.23432   0.23735   0.46222   0.00000  Uiso   1.00
H207   H     0.34615   0.76250   0.92587   0.00000  Uiso   1.00
H208   H     0.28044   0.76990   0.10231   0.00000  Uiso   1.00
H209   H     0.47657   0.74049   0.66885   0.00000  Uiso   1.00
H210   H     0.92516   0.51721   0.73639   0.00000  Uiso   1.00
N211   N     0.33816   0.89508   0.36046   0.00000  Uiso   1.00
C212   C     0.33337   0.87023   0.22982   0.00000  Uiso   1.00
C213   C     0.30347   0.84392   0.27611   0.00000  Uiso   1.00
C214   C     0.10164   0.77433   0.57090   0.00000  Uiso   1.00
C215   C     0.15653   0.77522   0.60591   0.00000  Uiso   1.00
C216   C     0.17607   0.76203   0.42685   0.00000  Uiso   1.00
C217   C     0.13981   0.74782   0.21383   0.00000  Uiso   1.00
C218   C     0.08498   0.74689   0.17972   0.00000  Uiso   1.00
H219   H     0.35475   0.86719   0.09891   0.00000  Uiso   1.00
H220   H     0.08687   0.78445   0.70976   0.00000  Uiso   1.00
H221   H     0.18368   0.78560   0.77511   0.00000  Uiso   1.00
H222   H     0.05733   0.73585   0.01501   0.00000  Uiso   1.00
C223   C     0.44996   0.96641   0.42426   0.00000  Uiso   1.00
C224   C     0.41827   0.96540   0.57861   0.00000  Uiso   1.00
C225   C     0.37843   0.94329   0.54052   0.00000  Uiso   1.00
C226   C     0.37175   0.92069   0.35718   0.00000  Uiso   1.00
C227   C     0.40202   0.92252   0.19440   0.00000  Uiso   1.00
C228   C     0.44073   0.94518   0.22854   0.00000  Uiso   1.00
C229   C     0.06588   0.76020   0.35785   0.00000  Uiso   1.00
C230   C     0.27652   0.84506   0.45207   0.00000  Uiso   1.00
C231   C     0.25264   0.81890   0.50735   0.00000  Uiso   1.00
C232   C     0.25583   0.79112   0.39039   0.00000  Uiso   1.00
C233   C     0.28001   0.79058   0.20431   0.00000  Uiso   1.00
C234   C     0.30448   0.81653   0.15119   0.00000  Uiso   1.00
H235   H     0.35508   0.94263   0.66509   0.00000  Uiso   1.00
H236   H     0.39776   0.90616   0.04622   0.00000  Uiso   1.00
H237   H     0.46563   0.94518   0.11071   0.00000  Uiso   1.00
H238   H     0.27495   0.86591   0.55127   0.00000  Uiso   1.00
H239   H     0.23323   0.82035   0.64720   0.00000  Uiso   1.00
H240   H     0.32498   0.81512   0.01480   0.00000  Uiso   1.00
C241   C     0.26568   0.73735   0.53778   0.00000  Uiso   1.00
H242   H     0.15385   0.26250   0.07413   0.00000  Uiso   1.00
H243   H     0.21956   0.26990   0.89769   0.00000  Uiso   1.00
H244   H     0.02343   0.24049   0.33115   0.00000  Uiso   1.00
H245   H     0.57484   0.01721   0.26361   0.00000  Uiso   1.00
N246   N     0.83816   0.39508   0.36046   0.00000  Uiso   1.00
C247   C     0.83337   0.37023   0.22982   0.00000  Uiso   1.00
C248   C     0.80347   0.34392   0.27611   0.00000  Uiso   1.00
C249   C     0.60164   0.27433   0.57090   0.00000  Uiso   1.00
C250   C     0.65653   0.27522   0.60591   0.00000  Uiso   1.00
C251   C     0.67607   0.26203   0.42685   0.00000  Uiso   1.00
C252   C     0.63981   0.24782   0.21383   0.00000  Uiso   1.00
C253   C     0.58498   0.24689   0.17972   0.00000  Uiso   1.00
H254   H     0.85475   0.36719   0.09891   0.00000  Uiso   1.00
H255   H     0.58687   0.28445   0.70976   0.00000  Uiso   1.00
H256   H     0.68368   0.28560   0.77511   0.00000  Uiso   1.00
H257   H     0.55733   0.23585   0.01501   0.00000  Uiso   1.00
C258   C     0.94996   0.46641   0.42426   0.00000  Uiso   1.00
C259   C     0.91827   0.46540   0.57861   0.00000  Uiso   1.00
C260   C     0.87843   0.44329   0.54052   0.00000  Uiso   1.00
C261   C     0.87175   0.42069   0.35718   0.00000  Uiso   1.00
C262   C     0.90202   0.42252   0.19440   0.00000  Uiso   1.00
C263   C     0.94073   0.44518   0.22854   0.00000  Uiso   1.00
C264   C     0.56588   0.26020   0.35785   0.00000  Uiso   1.00
C265   C     0.77652   0.34506   0.45207   0.00000  Uiso   1.00
C266   C     0.75264   0.31890   0.50735   0.00000  Uiso   1.00
C267   C     0.75583   0.29112   0.39039   0.00000  Uiso   1.00
C268   C     0.78001   0.29058   0.20431   0.00000  Uiso   1.00
C269   C     0.80448   0.31653   0.15119   0.00000  Uiso   1.00
H270   H     0.85508   0.44263   0.66509   0.00000  Uiso   1.00
H271   H     0.89776   0.40616   0.04622   0.00000  Uiso   1.00
H272   H     0.96563   0.44518   0.11071   0.00000  Uiso   1.00
H273   H     0.77495   0.36591   0.55127   0.00000  Uiso   1.00
H274   H     0.73323   0.32035   0.64720   0.00000  Uiso   1.00
H275   H     0.82498   0.31512   0.01480   0.00000  Uiso   1.00
C276   C     0.76568   0.23735   0.53778   0.00000  Uiso   1.00
H277   H     0.65385   0.76250   0.07413   0.00000  Uiso   1.00
H278   H     0.71956   0.76990   0.89769   0.00000  Uiso   1.00
H279   H     0.52343   0.74049   0.33115   0.00000  Uiso   1.00
H280   H     0.07484   0.51721   0.26361   0.00000  Uiso   1.00
C281   C     0.00000   0.48461   0.50000   0.00000  Uiso   1.00
C282   C     0.50000   0.98461   0.50000   0.00000  Uiso   1.00
C283   C     0.00000   0.51539   0.50000   0.00000  Uiso   1.00
C284   C     0.50000   0.01539   0.50000   0.00000  Uiso   1.00
loop_
_geom_bond_atom_site_label_1
_geom_bond_atom_site_label_2
_geom_bond_distance
_geom_bond_site_symmetry_2
_ccdc_geom_bond_type
N1     C2      1.311   .     D
N1     C16     1.447   .     S
C2     C3      1.486   .     S
C2     H9      1.086   .     S
C3     C20     1.413   .     S
C3     C24     1.414   .     D
C4     C5      1.387   .     S
C4     H10     1.090   .     S
C4     C19     1.386   .     D
C5     C6      1.416   .     D
C5     H11     1.072   .     S
C6     C7      1.392   .     S
C6     C206    1.474   .     S
C7     C8      1.387   .     D
C7     H242    1.086   .     S
C8     H12     1.074   .     S
C8     C19     1.406   .     S
C13    C14     1.406   .     S
C13    C18     1.408   .     D
C13    C284    1.474   .     S
C14    C15     1.398   .     D
C14    H175    1.145   .     S
C15    C16     1.409   .     S
C15    H25     1.088   .     S
C16    C17     1.418   .     D
C17    C18     1.398   .     S
C17    H26     1.085   .     S
C18    H27     1.088   .     S
C19    H244    1.073   .     S
C20    C21     1.411   .     D
C20    H28     1.093   .     S
C21    C22     1.419   .     S
C21    H29     1.085   .     S
C22    C23     1.410   .     D
C22    C206    1.503   .     S
C23    C24     1.407   .     S
C23    H138    1.089   .     S
C24    H30     1.089   .     S
C31    C181    1.474   .     S
C31    C197    1.503   .     S
C31    C206    1.372   .     D
H32    C217    1.086   .     S
H33    C128    1.089   .     S
H34    C229    1.073   .     S
H35    C154    1.145   .     S
N36    C37     1.311   .     D
N36    C51     1.447   .     S
C37    C38     1.486   .     S
C37    H44     1.086   .     S
C38    C55     1.413   .     D
C38    C59     1.414   .     S
C39    C40     1.387   .     D
C39    H45     1.090   .     S
C39    C54     1.386   .     S
C40    C41     1.416   .     S
C40    H46     1.072   .     S
C41    C42     1.392   .     D
C41    C171    1.474   .     S
C42    C43     1.387   .     S
C42    H277    1.086   .     S
C43    H47     1.074   .     S
C43    C54     1.406   .     D
C48    C49     1.406   .     D
C48    C53     1.408   .     S
C48    C283    1.474   1_655 S
C49    C50     1.398   .     S
C49    H210    1.145   .     S
C50    C51     1.409   .     D
C50    H60     1.088   .     S
C51    C52     1.418   .     S
C52    C53     1.398   .     D
C52    H61     1.085   .     S
C53    H62     1.088   .     S
C54    H279    1.073   .     S
C55    C56     1.411   .     S
C55    H63     1.093   .     S
C56    C57     1.419   .     D
C56    H64     1.085   .     S
C57    C58     1.410   .     S
C57    C171    1.503   .     S
C58    C59     1.407   .     D
C58    H103    1.089   .     S
C59    H65     1.089   .     S
C66    C146    1.474   .     S
C66    C162    1.503   .     S
C66    C171    1.372   .     D
H67    C252    1.086   .     S
H68    C93     1.089   .     S
H69    C264    1.073   .     S
H70    C189    1.145   .     S
N71    C72     1.311   .     D
N71    C86     1.447   .     S
C72    C73     1.486   .     S
C72    H79     1.086   .     S
C73    C90     1.413   .     D
C73    C94     1.414   .     S
C74    C75     1.387   .     S
C74    H80     1.090   .     S
C74    C89     1.386   .     D
C75    C76     1.416   .     D
C75    H81     1.072   .     S
C76    C77     1.392   .     S
C76    C276    1.474   .     S
C77    C78     1.387   .     D
C77    H172    1.086   .     S
C78    H82     1.074   .     S
C78    C89     1.406   .     S
C83    C84     1.406   .     D
C83    C88     1.408   .     S
C83    C284    1.474   .     S
C84    C85     1.398   .     S
C84    H245    1.145   .     S
C85    C86     1.409   .     D
C85    H95     1.088   .     S
C86    C87     1.418   .     S
C87    C88     1.398   .     D
C87    H96     1.085   .     S
C88    H97     1.088   .     S
C89    H174    1.073   .     S
C90    C91     1.411   .     S
C90    H98     1.093   .     S
C91    C92     1.419   .     D
C91    H99     1.085   .     S
C92    C93     1.410   .     S
C92    C276    1.503   .     S
C93    C94     1.407   .     D
C94    H100    1.089   .     S
C101   C251    1.474   .     S
C101   C267    1.503   .     S
C101   C276    1.372   .     D
H102   C147    1.086   .     S
H104   C159    1.073   .     S
H105   C224    1.145   .     S
N106   C107    1.311   .     D
N106   C121    1.447   .     S
C107   C108    1.486   .     S
C107   H114    1.086   .     S
C108   C125    1.413   .     D
C108   C129    1.414   .     S
C109   C110    1.387   .     D
C109   H115    1.090   .     S
C109   C124    1.386   .     S
C110   C111    1.416   .     S
C110   H116    1.072   .     S
C111   C112    1.392   .     D
C111   C241    1.474   .     S
C112   C113    1.387   .     S
C112   H207    1.086   .     S
C113   H117    1.074   .     S
C113   C124    1.406   .     D
C118   C119    1.406   .     D
C118   C123    1.408   .     S
C118   C283    1.474   .     S
C119   C120    1.398   .     S
C119   H280    1.145   .     S
C120   C121    1.409   .     D
C120   H130    1.088   .     S
C121   C122    1.418   .     S
C122   C123    1.398   .     D
C122   H131    1.085   .     S
C123   H132    1.088   .     S
C124   H209    1.073   .     S
C125   C126    1.411   .     S
C125   H133    1.093   .     S
C126   C127    1.419   .     D
C126   H134    1.085   .     S
C127   C128    1.410   .     S
C127   C241    1.503   .     S
C128   C129    1.407   .     D
C129   H135    1.089   .     S
C136   C216    1.474   .     S
C136   C232    1.503   .     S
C136   C241    1.372   .     D
H137   C182    1.086   .     S
H139   C194    1.073   .     S
H140   C259    1.145   .     S
N141   C142    1.311   .     D
N141   C156    1.448   .     S
C142   C143    1.486   .     S
C142   H149    1.086   .     S
C143   C160    1.413   .     D
C143   C164    1.414   .     S
C144   C145    1.387   .     S
C144   H150    1.090   .     S
C144   C159    1.386   .     D
C145   C146    1.416   .     D
C145   H151    1.072   .     S
C146   C147    1.392   .     S
C147   C148    1.387   .     D
C148   H152    1.074   .     S
C148   C159    1.406   .     S
C153   C154    1.406   .     D
C153   C158    1.408   .     S
C153   C282    1.474   .     S
C154   C155    1.398   .     S
C155   C156    1.409   .     D
C155   H165    1.088   .     S
C156   C157    1.418   .     S
C157   C158    1.398   .     D
C157   H166    1.085   .     S
C158   H167    1.088   .     S
C160   C161    1.411   .     S
C160   H168    1.093   .     S
C161   C162    1.419   .     D
C161   H169    1.085   .     S
C162   C163    1.410   .     S
C163   C164    1.407   .     D
C163   H278    1.089   .     S
C164   H170    1.089   .     S
H173   C268    1.089   .     S
N176   C177    1.311   .     D
N176   C191    1.447   .     S
C177   C178    1.486   .     S
C177   H184    1.086   .     S
C178   C195    1.413   .     D
C178   C199    1.414   .     S
C179   C180    1.387   .     D
C179   H185    1.090   .     S
C179   C194    1.386   .     S
C180   C181    1.416   .     S
C180   H186    1.072   .     S
C181   C182    1.392   .     D
C182   C183    1.387   .     S
C183   H187    1.074   .     S
C183   C194    1.406   .     D
C188   C189    1.406   .     D
C188   C193    1.408   .     S
C188   C281    1.474   .     S
C189   C190    1.398   .     S
C190   C191    1.409   .     D
C190   H200    1.088   .     S
C191   C192    1.418   .     S
C192   C193    1.398   .     D
C192   H201    1.085   .     S
C193   H202    1.088   .     S
C195   C196    1.411   .     S
C195   H203    1.093   .     S
C196   C197    1.419   .     D
C196   H204    1.085   .     S
C197   C198    1.410   .     S
C198   C199    1.407   .     D
C198   H243    1.089   .     S
C199   H205    1.089   .     S
H208   C233    1.089   .     S
N211   C212    1.311   .     D
N211   C226    1.448   .     S
C212   C213    1.486   .     S
C212   H219    1.086   .     S
C213   C230    1.413   .     S
C213   C234    1.414   .     D
C214   C215    1.387   .     S
C214   H220    1.090   .     S
C214   C229    1.386   .     D
C215   C216    1.416   .     D
C215   H221    1.072   .     S
C216   C217    1.392   .     S
C217   C218    1.387   .     D
C218   H222    1.074   .     S
C218   C229    1.406   .     S
C223   C224    1.406   .     S
C223   C228    1.408   .     D
C223   C282    1.474   .     S
C224   C225    1.398   .     D
C225   C226    1.409   .     S
C225   H235    1.088   .     S
C226   C227    1.418   .     D
C227   C228    1.398   .     S
C227   H236    1.085   .     S
C228   H237    1.088   .     S
C230   C231    1.411   .     D
C230   H238    1.093   .     S
C231   C232    1.419   .     S
C231   H239    1.085   .     S
C232   C233    1.410   .     D
C233   C234    1.407   .     S
C234   H240    1.089   .     S
N246   C247    1.311   .     D
N246   C261    1.447   .     S
C247   C248    1.486   .     S
C247   H254    1.086   .     S
C248   C265    1.413   .     D
C248   C269    1.414   .     S
C249   C250    1.387   .     D
C249   H255    1.090   .     S
C249   C264    1.386   .     S
C250   C251    1.416   .     S
C250   H256    1.072   .     S
C251   C252    1.392   .     D
C252   C253    1.387   .     S
C253   H257    1.074   .     S
C253   C264    1.406   .     D
C258   C259    1.406   .     D
C258   C263    1.408   .     S
C258   C281    1.474   1_655 S
C259   C260    1.398   .     S
C260   C261    1.409   .     D
C260   H270    1.088   .     S
C261   C262    1.418   .     S
C262   C263    1.398   .     D
C262   H271    1.085   .     S
C263   H272    1.088   .     S
C265   C266    1.411   .     S
C265   H273    1.093   .     S
C266   C267    1.419   .     D
C266   H274    1.085   .     S
C267   C268    1.410   .     S
C268   C269    1.407   .     D
C269   H275    1.089   .     S
C281   C258    1.474   1_455 S
C281   C283    1.371   .     D
C282   C284    1.371   1_565 D
C283   C48     1.474   1_455 S
C284   C282    1.371   1_545 D
