data_542
_audit_creation_date              2023-09-08
_audit_creation_method            'Materials Studio'
_symmetry_space_group_name_H-M    'P1'
_symmetry_Int_Tables_number       1
_symmetry_cell_setting            triclinic
loop_
_symmetry_equiv_pos_as_xyz
  x,y,z
_cell_length_a                    31.8035
_cell_length_b                    40.7389
_cell_length_c                    5.8314
_cell_angle_alpha                 90.0000
_cell_angle_beta                  92.9766
_cell_angle_gamma                 90.0000
loop_
_atom_site_label
_atom_site_type_symbol
_atom_site_fract_x
_atom_site_fract_y
_atom_site_fract_z
_atom_site_U_iso_or_equiv
_atom_site_adp_type
_atom_site_occupancy
N1     N     0.36118   0.10605   0.45023   0.00000  Uiso   1.00
C2     C     0.35009   0.12700   0.29028   0.00000  Uiso   1.00
C3     C     0.31899   0.15285   0.33447   0.00000  Uiso   1.00
C4     C     0.13551   0.21485   0.73240   0.00000  Uiso   1.00
C5     C     0.17895   0.21768   0.71161   0.00000  Uiso   1.00
C6     C     0.19483   0.23093   0.51142   0.00000  Uiso   1.00
C7     C     0.16669   0.24160   0.33369   0.00000  Uiso   1.00
C8     C     0.12326   0.23888   0.35493   0.00000  Uiso   1.00
C9     C     0.46076   0.03623   0.47272   0.00000  Uiso   1.00
C10    C     0.43417   0.03978   0.65536   0.00000  Uiso   1.00
C11    C     0.40036   0.06165   0.63902   0.00000  Uiso   1.00
C12    C     0.39346   0.08141   0.44445   0.00000  Uiso   1.00
C13    C     0.42038   0.07813   0.26142   0.00000  Uiso   1.00
C14    C     0.45364   0.05567   0.27629   0.00000  Uiso   1.00
C15    C     0.10746   0.22545   0.55428   0.00000  Uiso   1.00
C16    C     0.29804   0.15368   0.54093   0.00000  Uiso   1.00
C17    C     0.27144   0.17982   0.58817   0.00000  Uiso   1.00
C18    C     0.26537   0.20556   0.43057   0.00000  Uiso   1.00
C19    C     0.28463   0.20397   0.21984   0.00000  Uiso   1.00
C20    C     0.31161   0.17801   0.17317   0.00000  Uiso   1.00
C21    C     0.25924   0.26503   0.50980   0.00000  Uiso   1.00
N22    N     0.06302   0.77724   0.57638   0.00000  Uiso   1.00
H23    H     0.36480   0.12710   0.12737   0.00000  Uiso   1.00
H24    H     0.12371   0.20461   0.88784   0.00000  Uiso   1.00
H25    H     0.19999   0.21027   0.85392   0.00000  Uiso   1.00
H26    H     0.17837   0.25225   0.17961   0.00000  Uiso   1.00
H27    H     0.10196   0.24731   0.21642   0.00000  Uiso   1.00
H28    H     0.44066   0.02691   0.81488   0.00000  Uiso   1.00
H29    H     0.38040   0.06425   0.78277   0.00000  Uiso   1.00
H30    H     0.41712   0.09337   0.11027   0.00000  Uiso   1.00
H31    H     0.47494   0.05435   0.13828   0.00000  Uiso   1.00
H32    H     0.30299   0.13458   0.66868   0.00000  Uiso   1.00
H33    H     0.25685   0.18036   0.75115   0.00000  Uiso   1.00
H34    H     0.27943   0.22329   0.09425   0.00000  Uiso   1.00
H35    H     0.32751   0.17798   0.01343   0.00000  Uiso   1.00
H36    H     0.44907   0.71298   0.27511   0.00000  Uiso   1.00
H37    H     0.45812   0.73056   0.55550   0.00000  Uiso   1.00
N38    N     0.86118   0.60605   0.45023   0.00000  Uiso   1.00
C39    C     0.85009   0.62700   0.29028   0.00000  Uiso   1.00
C40    C     0.81899   0.65285   0.33447   0.00000  Uiso   1.00
C41    C     0.63551   0.71485   0.73240   0.00000  Uiso   1.00
C42    C     0.67895   0.71768   0.71161   0.00000  Uiso   1.00
C43    C     0.69483   0.73093   0.51142   0.00000  Uiso   1.00
C44    C     0.66669   0.74160   0.33369   0.00000  Uiso   1.00
C45    C     0.62326   0.73888   0.35493   0.00000  Uiso   1.00
C46    C     0.96076   0.53623   0.47272   0.00000  Uiso   1.00
C47    C     0.93417   0.53978   0.65536   0.00000  Uiso   1.00
C48    C     0.90036   0.56165   0.63902   0.00000  Uiso   1.00
C49    C     0.89346   0.58141   0.44445   0.00000  Uiso   1.00
C50    C     0.92038   0.57813   0.26142   0.00000  Uiso   1.00
C51    C     0.95364   0.55567   0.27629   0.00000  Uiso   1.00
C52    C     0.60746   0.72545   0.55428   0.00000  Uiso   1.00
C53    C     0.79804   0.65368   0.54093   0.00000  Uiso   1.00
C54    C     0.77144   0.67982   0.58817   0.00000  Uiso   1.00
C55    C     0.76537   0.70556   0.43057   0.00000  Uiso   1.00
C56    C     0.78463   0.70397   0.21984   0.00000  Uiso   1.00
C57    C     0.81161   0.67801   0.17317   0.00000  Uiso   1.00
C58    C     0.75924   0.76503   0.50980   0.00000  Uiso   1.00
N59    N     0.56302   0.27724   0.57638   0.00000  Uiso   1.00
H60    H     0.86480   0.62710   0.12737   0.00000  Uiso   1.00
H61    H     0.62371   0.70461   0.88784   0.00000  Uiso   1.00
H62    H     0.69999   0.71027   0.85392   0.00000  Uiso   1.00
H63    H     0.67837   0.75225   0.17961   0.00000  Uiso   1.00
H64    H     0.60196   0.74731   0.21642   0.00000  Uiso   1.00
H65    H     0.94066   0.52691   0.81488   0.00000  Uiso   1.00
H66    H     0.88040   0.56425   0.78277   0.00000  Uiso   1.00
H67    H     0.91712   0.59337   0.11027   0.00000  Uiso   1.00
H68    H     0.97494   0.55435   0.13828   0.00000  Uiso   1.00
H69    H     0.80299   0.63458   0.66868   0.00000  Uiso   1.00
H70    H     0.75685   0.68036   0.75115   0.00000  Uiso   1.00
H71    H     0.77943   0.72329   0.09425   0.00000  Uiso   1.00
H72    H     0.82751   0.67798   0.01343   0.00000  Uiso   1.00
H73    H     0.94907   0.21298   0.27511   0.00000  Uiso   1.00
H74    H     0.95812   0.23056   0.55550   0.00000  Uiso   1.00
N75    N     0.63882   0.10605   0.54977   0.00000  Uiso   1.00
C76    C     0.64991   0.12700   0.70972   0.00000  Uiso   1.00
C77    C     0.68101   0.15285   0.66553   0.00000  Uiso   1.00
C78    C     0.86449   0.21485   0.26760   0.00000  Uiso   1.00
C79    C     0.82105   0.21768   0.28839   0.00000  Uiso   1.00
C80    C     0.80517   0.23093   0.48858   0.00000  Uiso   1.00
C81    C     0.83331   0.24160   0.66631   0.00000  Uiso   1.00
C82    C     0.87674   0.23888   0.64507   0.00000  Uiso   1.00
C83    C     0.53924   0.03623   0.52728   0.00000  Uiso   1.00
C84    C     0.56583   0.03978   0.34464   0.00000  Uiso   1.00
C85    C     0.59964   0.06165   0.36098   0.00000  Uiso   1.00
C86    C     0.60654   0.08141   0.55555   0.00000  Uiso   1.00
C87    C     0.57962   0.07813   0.73858   0.00000  Uiso   1.00
C88    C     0.54636   0.05567   0.72371   0.00000  Uiso   1.00
C89    C     0.89254   0.22545   0.44572   0.00000  Uiso   1.00
C90    C     0.70196   0.15368   0.45907   0.00000  Uiso   1.00
C91    C     0.72856   0.17982   0.41183   0.00000  Uiso   1.00
C92    C     0.73463   0.20556   0.56943   0.00000  Uiso   1.00
C93    C     0.71537   0.20397   0.78016   0.00000  Uiso   1.00
C94    C     0.68839   0.17801   0.82683   0.00000  Uiso   1.00
C95    C     0.74076   0.26503   0.49020   0.00000  Uiso   1.00
N96    N     0.93698   0.77724   0.42362   0.00000  Uiso   1.00
H97    H     0.63520   0.12710   0.87263   0.00000  Uiso   1.00
H98    H     0.87629   0.20461   0.11216   0.00000  Uiso   1.00
H99    H     0.80001   0.21027   0.14608   0.00000  Uiso   1.00
H100   H     0.82163   0.25225   0.82039   0.00000  Uiso   1.00
H101   H     0.89804   0.24731   0.78358   0.00000  Uiso   1.00
H102   H     0.55934   0.02691   0.18512   0.00000  Uiso   1.00
H103   H     0.61960   0.06425   0.21723   0.00000  Uiso   1.00
H104   H     0.58288   0.09337   0.88973   0.00000  Uiso   1.00
H105   H     0.52506   0.05435   0.86172   0.00000  Uiso   1.00
H106   H     0.69701   0.13458   0.33132   0.00000  Uiso   1.00
H107   H     0.74315   0.18036   0.24885   0.00000  Uiso   1.00
H108   H     0.72057   0.22329   0.90575   0.00000  Uiso   1.00
H109   H     0.67249   0.17798   0.98657   0.00000  Uiso   1.00
H110   H     0.55093   0.71298   0.72489   0.00000  Uiso   1.00
H111   H     0.54188   0.73056   0.44450   0.00000  Uiso   1.00
N112   N     0.13882   0.60605   0.54977   0.00000  Uiso   1.00
C113   C     0.14991   0.62700   0.70972   0.00000  Uiso   1.00
C114   C     0.18101   0.65285   0.66553   0.00000  Uiso   1.00
C115   C     0.36449   0.71485   0.26760   0.00000  Uiso   1.00
C116   C     0.32105   0.71768   0.28839   0.00000  Uiso   1.00
C117   C     0.30517   0.73093   0.48858   0.00000  Uiso   1.00
C118   C     0.33331   0.74160   0.66631   0.00000  Uiso   1.00
C119   C     0.37674   0.73888   0.64507   0.00000  Uiso   1.00
C120   C     0.03924   0.53623   0.52728   0.00000  Uiso   1.00
C121   C     0.06583   0.53978   0.34464   0.00000  Uiso   1.00
C122   C     0.09964   0.56165   0.36098   0.00000  Uiso   1.00
C123   C     0.10654   0.58141   0.55555   0.00000  Uiso   1.00
C124   C     0.07962   0.57813   0.73858   0.00000  Uiso   1.00
C125   C     0.04636   0.55567   0.72371   0.00000  Uiso   1.00
C126   C     0.39254   0.72545   0.44572   0.00000  Uiso   1.00
C127   C     0.20196   0.65368   0.45907   0.00000  Uiso   1.00
C128   C     0.22856   0.67982   0.41183   0.00000  Uiso   1.00
C129   C     0.23463   0.70556   0.56943   0.00000  Uiso   1.00
C130   C     0.21537   0.70397   0.78016   0.00000  Uiso   1.00
C131   C     0.18839   0.67801   0.82683   0.00000  Uiso   1.00
C132   C     0.24076   0.76503   0.49020   0.00000  Uiso   1.00
N133   N     0.43698   0.27724   0.42362   0.00000  Uiso   1.00
H134   H     0.13520   0.62710   0.87263   0.00000  Uiso   1.00
H135   H     0.37629   0.70461   0.11216   0.00000  Uiso   1.00
H136   H     0.30001   0.71027   0.14608   0.00000  Uiso   1.00
H137   H     0.32163   0.75225   0.82039   0.00000  Uiso   1.00
H138   H     0.39804   0.74731   0.78358   0.00000  Uiso   1.00
H139   H     0.05934   0.52691   0.18512   0.00000  Uiso   1.00
H140   H     0.11960   0.56425   0.21723   0.00000  Uiso   1.00
H141   H     0.08288   0.59337   0.88973   0.00000  Uiso   1.00
H142   H     0.02506   0.55435   0.86172   0.00000  Uiso   1.00
H143   H     0.19701   0.63458   0.33132   0.00000  Uiso   1.00
H144   H     0.24315   0.68036   0.24885   0.00000  Uiso   1.00
H145   H     0.22057   0.72329   0.90575   0.00000  Uiso   1.00
H146   H     0.17249   0.67798   0.98657   0.00000  Uiso   1.00
H147   H     0.05093   0.21298   0.72489   0.00000  Uiso   1.00
H148   H     0.04188   0.23056   0.44450   0.00000  Uiso   1.00
N149   N     0.63882   0.89395   0.54977   0.00000  Uiso   1.00
C150   C     0.64991   0.87300   0.70972   0.00000  Uiso   1.00
C151   C     0.68101   0.84715   0.66553   0.00000  Uiso   1.00
C152   C     0.86449   0.78515   0.26760   0.00000  Uiso   1.00
C153   C     0.82105   0.78232   0.28839   0.00000  Uiso   1.00
C154   C     0.80517   0.76907   0.48858   0.00000  Uiso   1.00
C155   C     0.83331   0.75840   0.66631   0.00000  Uiso   1.00
C156   C     0.87674   0.76112   0.64507   0.00000  Uiso   1.00
C157   C     0.53924   0.96377   0.52728   0.00000  Uiso   1.00
C158   C     0.56583   0.96022   0.34464   0.00000  Uiso   1.00
C159   C     0.59964   0.93835   0.36098   0.00000  Uiso   1.00
C160   C     0.60654   0.91859   0.55555   0.00000  Uiso   1.00
C161   C     0.57962   0.92187   0.73858   0.00000  Uiso   1.00
C162   C     0.54636   0.94433   0.72371   0.00000  Uiso   1.00
C163   C     0.89254   0.77455   0.44572   0.00000  Uiso   1.00
C164   C     0.70196   0.84632   0.45907   0.00000  Uiso   1.00
C165   C     0.72856   0.82018   0.41183   0.00000  Uiso   1.00
C166   C     0.73463   0.79444   0.56943   0.00000  Uiso   1.00
C167   C     0.71537   0.79603   0.78016   0.00000  Uiso   1.00
C168   C     0.68839   0.82199   0.82683   0.00000  Uiso   1.00
C169   C     0.74076   0.73497   0.49020   0.00000  Uiso   1.00
N170   N     0.93698   0.22276   0.42362   0.00000  Uiso   1.00
H171   H     0.63520   0.87290   0.87263   0.00000  Uiso   1.00
H172   H     0.87629   0.79539   0.11216   0.00000  Uiso   1.00
H173   H     0.80001   0.78973   0.14608   0.00000  Uiso   1.00
H174   H     0.82163   0.74775   0.82039   0.00000  Uiso   1.00
H175   H     0.89804   0.75269   0.78358   0.00000  Uiso   1.00
H176   H     0.55934   0.97309   0.18512   0.00000  Uiso   1.00
H177   H     0.61960   0.93575   0.21723   0.00000  Uiso   1.00
H178   H     0.58288   0.90663   0.88973   0.00000  Uiso   1.00
H179   H     0.52506   0.94565   0.86172   0.00000  Uiso   1.00
H180   H     0.69701   0.86542   0.33132   0.00000  Uiso   1.00
H181   H     0.74315   0.81964   0.24885   0.00000  Uiso   1.00
H182   H     0.72057   0.77671   0.90575   0.00000  Uiso   1.00
H183   H     0.67249   0.82202   0.98657   0.00000  Uiso   1.00
H184   H     0.55093   0.28702   0.72489   0.00000  Uiso   1.00
H185   H     0.54188   0.26944   0.44450   0.00000  Uiso   1.00
N186   N     0.13882   0.39395   0.54977   0.00000  Uiso   1.00
C187   C     0.14991   0.37300   0.70972   0.00000  Uiso   1.00
C188   C     0.18101   0.34715   0.66553   0.00000  Uiso   1.00
C189   C     0.36449   0.28515   0.26760   0.00000  Uiso   1.00
C190   C     0.32105   0.28232   0.28839   0.00000  Uiso   1.00
C191   C     0.30517   0.26907   0.48858   0.00000  Uiso   1.00
C192   C     0.33331   0.25840   0.66631   0.00000  Uiso   1.00
C193   C     0.37674   0.26112   0.64507   0.00000  Uiso   1.00
C194   C     0.03924   0.46377   0.52728   0.00000  Uiso   1.00
C195   C     0.06583   0.46022   0.34464   0.00000  Uiso   1.00
C196   C     0.09964   0.43835   0.36098   0.00000  Uiso   1.00
C197   C     0.10654   0.41859   0.55555   0.00000  Uiso   1.00
C198   C     0.07962   0.42187   0.73858   0.00000  Uiso   1.00
C199   C     0.04636   0.44433   0.72371   0.00000  Uiso   1.00
C200   C     0.39254   0.27455   0.44572   0.00000  Uiso   1.00
C201   C     0.20196   0.34632   0.45907   0.00000  Uiso   1.00
C202   C     0.22856   0.32018   0.41183   0.00000  Uiso   1.00
C203   C     0.23463   0.29444   0.56943   0.00000  Uiso   1.00
C204   C     0.21537   0.29603   0.78016   0.00000  Uiso   1.00
C205   C     0.18839   0.32199   0.82683   0.00000  Uiso   1.00
C206   C     0.24076   0.23497   0.49020   0.00000  Uiso   1.00
N207   N     0.43698   0.72276   0.42362   0.00000  Uiso   1.00
H208   H     0.13520   0.37290   0.87263   0.00000  Uiso   1.00
H209   H     0.37629   0.29539   0.11216   0.00000  Uiso   1.00
H210   H     0.30001   0.28973   0.14608   0.00000  Uiso   1.00
H211   H     0.32163   0.24775   0.82039   0.00000  Uiso   1.00
H212   H     0.39804   0.25269   0.78358   0.00000  Uiso   1.00
H213   H     0.05934   0.47309   0.18512   0.00000  Uiso   1.00
H214   H     0.11960   0.43575   0.21723   0.00000  Uiso   1.00
H215   H     0.08288   0.40663   0.88973   0.00000  Uiso   1.00
H216   H     0.02506   0.44565   0.86172   0.00000  Uiso   1.00
H217   H     0.19701   0.36542   0.33132   0.00000  Uiso   1.00
H218   H     0.24315   0.31964   0.24885   0.00000  Uiso   1.00
H219   H     0.22057   0.27671   0.90575   0.00000  Uiso   1.00
H220   H     0.17249   0.32202   0.98657   0.00000  Uiso   1.00
H221   H     0.05093   0.78702   0.72489   0.00000  Uiso   1.00
H222   H     0.04188   0.76944   0.44450   0.00000  Uiso   1.00
N223   N     0.36118   0.89395   0.45023   0.00000  Uiso   1.00
C224   C     0.35009   0.87300   0.29028   0.00000  Uiso   1.00
C225   C     0.31899   0.84715   0.33447   0.00000  Uiso   1.00
C226   C     0.13551   0.78515   0.73240   0.00000  Uiso   1.00
C227   C     0.17895   0.78232   0.71161   0.00000  Uiso   1.00
C228   C     0.19483   0.76907   0.51142   0.00000  Uiso   1.00
C229   C     0.16669   0.75840   0.33369   0.00000  Uiso   1.00
C230   C     0.12326   0.76112   0.35493   0.00000  Uiso   1.00
C231   C     0.46076   0.96377   0.47272   0.00000  Uiso   1.00
C232   C     0.43417   0.96022   0.65536   0.00000  Uiso   1.00
C233   C     0.40036   0.93835   0.63902   0.00000  Uiso   1.00
C234   C     0.39346   0.91859   0.44445   0.00000  Uiso   1.00
C235   C     0.42038   0.92187   0.26142   0.00000  Uiso   1.00
C236   C     0.45364   0.94433   0.27629   0.00000  Uiso   1.00
C237   C     0.10746   0.77455   0.55428   0.00000  Uiso   1.00
C238   C     0.29804   0.84632   0.54093   0.00000  Uiso   1.00
C239   C     0.27144   0.82018   0.58817   0.00000  Uiso   1.00
C240   C     0.26537   0.79444   0.43057   0.00000  Uiso   1.00
C241   C     0.28463   0.79603   0.21984   0.00000  Uiso   1.00
C242   C     0.31161   0.82199   0.17317   0.00000  Uiso   1.00
C243   C     0.25924   0.73497   0.50980   0.00000  Uiso   1.00
N244   N     0.06302   0.22276   0.57638   0.00000  Uiso   1.00
H245   H     0.36480   0.87290   0.12737   0.00000  Uiso   1.00
H246   H     0.12371   0.79539   0.88784   0.00000  Uiso   1.00
H247   H     0.19999   0.78973   0.85392   0.00000  Uiso   1.00
H248   H     0.17837   0.74775   0.17961   0.00000  Uiso   1.00
H249   H     0.10196   0.75269   0.21642   0.00000  Uiso   1.00
H250   H     0.44066   0.97309   0.81488   0.00000  Uiso   1.00
H251   H     0.38040   0.93575   0.78277   0.00000  Uiso   1.00
H252   H     0.41712   0.90663   0.11027   0.00000  Uiso   1.00
H253   H     0.47494   0.94565   0.13828   0.00000  Uiso   1.00
H254   H     0.30299   0.86542   0.66868   0.00000  Uiso   1.00
H255   H     0.25685   0.81964   0.75115   0.00000  Uiso   1.00
H256   H     0.27943   0.77671   0.09425   0.00000  Uiso   1.00
H257   H     0.32751   0.82202   0.01343   0.00000  Uiso   1.00
H258   H     0.44907   0.28702   0.27511   0.00000  Uiso   1.00
H259   H     0.45812   0.26944   0.55550   0.00000  Uiso   1.00
N260   N     0.86118   0.39395   0.45023   0.00000  Uiso   1.00
C261   C     0.85009   0.37300   0.29028   0.00000  Uiso   1.00
C262   C     0.81899   0.34715   0.33447   0.00000  Uiso   1.00
C263   C     0.63551   0.28515   0.73240   0.00000  Uiso   1.00
C264   C     0.67895   0.28232   0.71161   0.00000  Uiso   1.00
C265   C     0.69483   0.26907   0.51142   0.00000  Uiso   1.00
C266   C     0.66669   0.25840   0.33369   0.00000  Uiso   1.00
C267   C     0.62326   0.26112   0.35493   0.00000  Uiso   1.00
C268   C     0.96076   0.46377   0.47272   0.00000  Uiso   1.00
C269   C     0.93417   0.46022   0.65536   0.00000  Uiso   1.00
C270   C     0.90036   0.43835   0.63902   0.00000  Uiso   1.00
C271   C     0.89346   0.41859   0.44445   0.00000  Uiso   1.00
C272   C     0.92038   0.42187   0.26142   0.00000  Uiso   1.00
C273   C     0.95364   0.44433   0.27629   0.00000  Uiso   1.00
C274   C     0.60746   0.27455   0.55428   0.00000  Uiso   1.00
C275   C     0.79804   0.34632   0.54093   0.00000  Uiso   1.00
C276   C     0.77144   0.32018   0.58817   0.00000  Uiso   1.00
C277   C     0.76537   0.29444   0.43057   0.00000  Uiso   1.00
C278   C     0.78463   0.29603   0.21984   0.00000  Uiso   1.00
C279   C     0.81161   0.32199   0.17317   0.00000  Uiso   1.00
C280   C     0.75924   0.23497   0.50980   0.00000  Uiso   1.00
N281   N     0.56302   0.72276   0.57638   0.00000  Uiso   1.00
H282   H     0.86480   0.37290   0.12737   0.00000  Uiso   1.00
H283   H     0.62371   0.29539   0.88784   0.00000  Uiso   1.00
H284   H     0.69999   0.28973   0.85392   0.00000  Uiso   1.00
H285   H     0.67837   0.24775   0.17961   0.00000  Uiso   1.00
H286   H     0.60196   0.25269   0.21642   0.00000  Uiso   1.00
H287   H     0.94066   0.47309   0.81488   0.00000  Uiso   1.00
H288   H     0.88040   0.43575   0.78277   0.00000  Uiso   1.00
H289   H     0.91712   0.40663   0.11027   0.00000  Uiso   1.00
H290   H     0.97494   0.44565   0.13828   0.00000  Uiso   1.00
H291   H     0.80299   0.36542   0.66868   0.00000  Uiso   1.00
H292   H     0.75685   0.31964   0.75115   0.00000  Uiso   1.00
H293   H     0.77943   0.27671   0.09425   0.00000  Uiso   1.00
H294   H     0.82751   0.32202   0.01343   0.00000  Uiso   1.00
H295   H     0.94907   0.78702   0.27511   0.00000  Uiso   1.00
H296   H     0.95812   0.76944   0.55550   0.00000  Uiso   1.00
C297   C     0.00000   0.48331   0.50000   0.00000  Uiso   1.00
C298   C     0.50000   0.98331   0.50000   0.00000  Uiso   1.00
C299   C     0.00000   0.51669   0.50000   0.00000  Uiso   1.00
C300   C     0.50000   0.01669   0.50000   0.00000  Uiso   1.00
loop_
_geom_bond_atom_site_label_1
_geom_bond_atom_site_label_2
_geom_bond_distance
_geom_bond_site_symmetry_2
_ccdc_geom_bond_type
N1     C2      1.299   .     D
N1     C12     1.437   .     S
C2     C3      1.477   .     S
C2     H23     1.081   .     S
C3     C16     1.406   .     S
C3     C20     1.403   .     D
C4     C5      1.398   .     S
C4     C15     1.402   .     D
C4     H24     1.083   .     S
C5     C6      1.404   .     D
C5     H25     1.082   .     S
C6     C7      1.403   .     S
C6     C206    1.482   .     S
C7     C8      1.398   .     D
C7     H26     1.081   .     S
C8     C15     1.401   .     S
C8     H27     1.083   .     S
C9     C10     1.401   .     S
C9     C14     1.401   .     D
C9     C300    1.482   .     S
C10    C11     1.396   .     D
C10    H28     1.078   .     S
C11    C12     1.399   .     S
C11    H29     1.083   .     S
C12    C13     1.409   .     D
C13    C14     1.398   .     S
C13    H30     1.079   .     S
C14    H31     1.080   .     S
C15    N244    1.430   .     S
C16    C17     1.396   .     D
C16    H32     1.083   .     S
C17    C18     1.401   .     S
C17    H33     1.079   .     S
C18    C19     1.403   .     D
C18    C206    1.482   .     S
C19    C20     1.398   .     S
C19    H34     1.082   .     S
C20    H35     1.083   .     S
C21    C191    1.482   .     S
C21    C203    1.482   .     S
C21    C206    1.361   .     D
N22    H221    1.045   .     S
N22    H222    1.044   .     S
N22    C237    1.430   .     S
H36    N207    1.045   .     S
H37    N207    1.044   .     S
N38    C39     1.299   .     D
N38    C49     1.437   .     S
C39    C40     1.477   .     S
C39    H60     1.081   .     S
C40    C53     1.406   .     S
C40    C57     1.403   .     D
C41    C42     1.398   .     S
C41    C52     1.402   .     D
C41    H61     1.083   .     S
C42    C43     1.404   .     D
C42    H62     1.082   .     S
C43    C44     1.403   .     S
C43    C169    1.482   .     S
C44    C45     1.398   .     D
C44    H63     1.081   .     S
C45    C52     1.401   .     S
C45    H64     1.083   .     S
C46    C47     1.401   .     S
C46    C51     1.401   .     D
C46    C299    1.482   1_655 S
C47    C48     1.396   .     D
C47    H65     1.078   .     S
C48    C49     1.399   .     S
C48    H66     1.083   .     S
C49    C50     1.409   .     D
C50    C51     1.398   .     S
C50    H67     1.079   .     S
C51    H68     1.080   .     S
C52    N281    1.430   .     S
C53    C54     1.396   .     D
C53    H69     1.083   .     S
C54    C55     1.401   .     S
C54    H70     1.079   .     S
C55    C56     1.403   .     D
C55    C169    1.482   .     S
C56    C57     1.398   .     S
C56    H71     1.082   .     S
C57    H72     1.083   .     S
C58    C154    1.482   .     S
C58    C166    1.482   .     S
C58    C169    1.361   .     D
N59    H184    1.045   .     S
N59    H185    1.044   .     S
N59    C274    1.430   .     S
H73    N170    1.045   .     S
H74    N170    1.044   .     S
N75    C76     1.299   .     D
N75    C86     1.437   .     S
C76    C77     1.477   .     S
C76    H97     1.081   .     S
C77    C90     1.406   .     S
C77    C94     1.403   .     D
C78    C79     1.398   .     D
C78    C89     1.402   .     S
C78    H98     1.083   .     S
C79    C80     1.404   .     S
C79    H99     1.082   .     S
C80    C81     1.403   .     D
C80    C280    1.482   .     S
C81    C82     1.398   .     S
C81    H100    1.081   .     S
C82    C89     1.401   .     D
C82    H101    1.083   .     S
C83    C84     1.401   .     S
C83    C88     1.401   .     D
C83    C300    1.482   .     S
C84    C85     1.396   .     D
C84    H102    1.078   .     S
C85    C86     1.399   .     S
C85    H103    1.083   .     S
C86    C87     1.409   .     D
C87    C88     1.398   .     S
C87    H104    1.079   .     S
C88    H105    1.080   .     S
C89    N170    1.430   .     S
C90    C91     1.396   .     D
C90    H106    1.083   .     S
C91    C92     1.401   .     S
C91    H107    1.079   .     S
C92    C93     1.403   .     D
C92    C280    1.482   .     S
C93    C94     1.398   .     S
C93    H108    1.082   .     S
C94    H109    1.083   .     S
C95    C265    1.482   .     S
C95    C277    1.482   .     S
C95    C280    1.361   .     D
N96    C163    1.430   .     S
N96    H295    1.045   .     S
N96    H296    1.044   .     S
H110   N281    1.045   .     S
H111   N281    1.044   .     S
N112   C113    1.299   .     D
N112   C123    1.437   .     S
C113   C114    1.477   .     S
C113   H134    1.081   .     S
C114   C127    1.406   .     S
C114   C131    1.403   .     D
C115   C116    1.398   .     S
C115   C126    1.402   .     D
C115   H135    1.083   .     S
C116   C117    1.404   .     D
C116   H136    1.082   .     S
C117   C118    1.403   .     S
C117   C243    1.482   .     S
C118   C119    1.398   .     D
C118   H137    1.081   .     S
C119   C126    1.401   .     S
C119   H138    1.083   .     S
C120   C121    1.401   .     S
C120   C125    1.401   .     D
C120   C299    1.482   .     S
C121   C122    1.396   .     D
C121   H139    1.078   .     S
C122   C123    1.399   .     S
C122   H140    1.083   .     S
C123   C124    1.409   .     D
C124   C125    1.398   .     S
C124   H141    1.079   .     S
C125   H142    1.080   .     S
C126   N207    1.430   .     S
C127   C128    1.396   .     D
C127   H143    1.083   .     S
C128   C129    1.401   .     S
C128   H144    1.079   .     S
C129   C130    1.403   .     D
C129   C243    1.482   .     S
C130   C131    1.398   .     S
C130   H145    1.082   .     S
C131   H146    1.083   .     S
C132   C228    1.482   .     S
C132   C240    1.482   .     S
C132   C243    1.361   .     D
N133   C200    1.430   .     S
N133   H258    1.045   .     S
N133   H259    1.044   .     S
H147   N244    1.045   .     S
H148   N244    1.044   .     S
N149   C150    1.299   .     D
N149   C160    1.437   .     S
C150   C151    1.477   .     S
C150   H171    1.081   .     S
C151   C164    1.406   .     D
C151   C168    1.403   .     S
C152   C153    1.398   .     D
C152   C163    1.402   .     S
C152   H172    1.083   .     S
C153   C154    1.404   .     S
C153   H173    1.082   .     S
C154   C155    1.403   .     D
C155   C156    1.398   .     S
C155   H174    1.081   .     S
C156   C163    1.401   .     D
C156   H175    1.083   .     S
C157   C158    1.401   .     D
C157   C162    1.401   .     S
C157   C298    1.482   .     S
C158   C159    1.396   .     S
C158   H176    1.078   .     S
C159   C160    1.399   .     D
C159   H177    1.083   .     S
C160   C161    1.409   .     S
C161   C162    1.398   .     D
C161   H178    1.079   .     S
C162   H179    1.080   .     S
C164   C165    1.396   .     S
C164   H180    1.083   .     S
C165   C166    1.401   .     D
C165   H181    1.079   .     S
C166   C167    1.403   .     S
C167   C168    1.398   .     D
C167   H182    1.082   .     S
C168   H183    1.083   .     S
N186   C187    1.299   .     D
N186   C197    1.437   .     S
C187   C188    1.477   .     S
C187   H208    1.081   .     S
C188   C201    1.406   .     D
C188   C205    1.403   .     S
C189   C190    1.398   .     D
C189   C200    1.402   .     S
C189   H209    1.083   .     S
C190   C191    1.404   .     S
C190   H210    1.082   .     S
C191   C192    1.403   .     D
C192   C193    1.398   .     S
C192   H211    1.081   .     S
C193   C200    1.401   .     D
C193   H212    1.083   .     S
C194   C195    1.401   .     D
C194   C199    1.401   .     S
C194   C297    1.482   .     S
C195   C196    1.396   .     S
C195   H213    1.078   .     S
C196   C197    1.399   .     D
C196   H214    1.083   .     S
C197   C198    1.409   .     S
C198   C199    1.398   .     D
C198   H215    1.079   .     S
C199   H216    1.080   .     S
C201   C202    1.396   .     S
C201   H217    1.083   .     S
C202   C203    1.401   .     D
C202   H218    1.079   .     S
C203   C204    1.403   .     S
C204   C205    1.398   .     D
C204   H219    1.082   .     S
C205   H220    1.083   .     S
N223   C224    1.299   .     D
N223   C234    1.437   .     S
C224   C225    1.477   .     S
C224   H245    1.081   .     S
C225   C238    1.406   .     S
C225   C242    1.403   .     D
C226   C227    1.398   .     S
C226   C237    1.402   .     D
C226   H246    1.083   .     S
C227   C228    1.404   .     D
C227   H247    1.082   .     S
C228   C229    1.403   .     S
C229   C230    1.398   .     D
C229   H248    1.081   .     S
C230   C237    1.401   .     S
C230   H249    1.083   .     S
C231   C232    1.401   .     S
C231   C236    1.401   .     D
C231   C298    1.482   .     S
C232   C233    1.396   .     D
C232   H250    1.078   .     S
C233   C234    1.399   .     S
C233   H251    1.083   .     S
C234   C235    1.409   .     D
C235   C236    1.398   .     S
C235   H252    1.079   .     S
C236   H253    1.080   .     S
C238   C239    1.396   .     D
C238   H254    1.083   .     S
C239   C240    1.401   .     S
C239   H255    1.079   .     S
C240   C241    1.403   .     D
C241   C242    1.398   .     S
C241   H256    1.082   .     S
C242   H257    1.083   .     S
N260   C261    1.299   .     D
N260   C271    1.437   .     S
C261   C262    1.477   .     S
C261   H282    1.081   .     S
C262   C275    1.406   .     D
C262   C279    1.403   .     S
C263   C264    1.398   .     D
C263   C274    1.402   .     S
C263   H283    1.083   .     S
C264   C265    1.404   .     S
C264   H284    1.082   .     S
C265   C266    1.403   .     D
C266   C267    1.398   .     S
C266   H285    1.081   .     S
C267   C274    1.401   .     D
C267   H286    1.083   .     S
C268   C269    1.401   .     D
C268   C273    1.401   .     S
C268   C297    1.482   1_655 S
C269   C270    1.396   .     S
C269   H287    1.078   .     S
C270   C271    1.399   .     D
C270   H288    1.083   .     S
C271   C272    1.409   .     S
C272   C273    1.398   .     D
C272   H289    1.079   .     S
C273   H290    1.080   .     S
C275   C276    1.396   .     S
C275   H291    1.083   .     S
C276   C277    1.401   .     D
C276   H292    1.079   .     S
C277   C278    1.403   .     S
C278   C279    1.398   .     D
C278   H293    1.082   .     S
C279   H294    1.083   .     S
C297   C268    1.482   1_455 S
C297   C299    1.360   .     D
C298   C300    1.360   1_565 D
C299   C46     1.482   1_455 S
C300   C298    1.360   1_545 D
