data_543
_audit_creation_date              2023-09-08
_audit_creation_method            'Materials Studio'
_symmetry_space_group_name_H-M    'P1'
_symmetry_Int_Tables_number       1
_symmetry_cell_setting            triclinic
loop_
_symmetry_equiv_pos_as_xyz
  x,y,z
_cell_length_a                    34.5996
_cell_length_b                    34.5996
_cell_length_c                    3.5779
_cell_angle_alpha                 90.0000
_cell_angle_beta                  90.0000
_cell_angle_gamma                 120.0000
loop_
_atom_site_label
_atom_site_type_symbol
_atom_site_fract_x
_atom_site_fract_y
_atom_site_fract_z
_atom_site_U_iso_or_equiv
_atom_site_adp_type
_atom_site_occupancy
C1     C     0.30314   0.68498   1.00000   0.00000  Uiso   1.00
C2     C     0.35180   0.71573   1.00000   0.00000  Uiso   1.00
C3     C     0.36685   0.75931   1.00000   0.00000  Uiso   1.00
C4     C     0.59328   0.43189   1.00000   0.00000  Uiso   1.00
C5     C     0.61030   0.47637   0.84633   0.00000  Uiso   1.00
C6     C     0.58358   0.49609   0.85521   0.00000  Uiso   1.00
C7     C     0.53933   0.47153   1.00000   0.00000  Uiso   1.00
C8     C     0.52207   0.42738   1.09419   0.00000  Uiso   1.00
C9     C     0.54887   0.40770   1.08923   0.00000  Uiso   1.00
C10    C     0.51161   0.49159   1.00000   0.00000  Uiso   1.00
O11    O     0.27954   0.69969   1.00000   0.00000  Uiso   1.00
N12    N     0.41280   0.79087   1.00000   0.00000  Uiso   1.00
H13    H     0.34269   0.77031   1.00000   0.00000  Uiso   1.00
H14    H     0.43294   0.77903   1.00000   0.00000  Uiso   1.00
H15    H     0.64435   0.49579   0.74798   0.00000  Uiso   1.00
H16    H     0.59730   0.53033   0.76366   0.00000  Uiso   1.00
H17    H     0.48797   0.40825   1.19275   0.00000  Uiso   1.00
H18    H     0.53458   0.37393   1.19105   0.00000  Uiso   1.00
C19    C     0.31502   0.61816   1.00000   0.00000  Uiso   1.00
C20    C     0.28427   0.63607   1.00000   0.00000  Uiso   1.00
C21    C     0.24069   0.60754   1.00000   0.00000  Uiso   1.00
C22    C     0.56811   0.16139   1.00000   0.00000  Uiso   1.00
C23    C     0.52363   0.13393   0.84633   0.00000  Uiso   1.00
C24    C     0.50391   0.08749   0.85521   0.00000  Uiso   1.00
C25    C     0.52847   0.06780   1.00000   0.00000  Uiso   1.00
C26    C     0.57262   0.09469   1.09419   0.00000  Uiso   1.00
C27    C     0.59230   0.14117   1.08923   0.00000  Uiso   1.00
C28    C     0.50841   0.02002   1.00000   0.00000  Uiso   1.00
O29    O     0.30031   0.57985   1.00000   0.00000  Uiso   1.00
N30    N     0.20913   0.62193   1.00000   0.00000  Uiso   1.00
H31    H     0.22969   0.57238   1.00000   0.00000  Uiso   1.00
H32    H     0.22097   0.65391   1.00000   0.00000  Uiso   1.00
H33    H     0.50421   0.14856   0.74798   0.00000  Uiso   1.00
H34    H     0.46967   0.06697   0.76366   0.00000  Uiso   1.00
H35    H     0.59175   0.07972   1.19275   0.00000  Uiso   1.00
H36    H     0.62607   0.16065   1.19105   0.00000  Uiso   1.00
C37    C     0.38184   0.69686   1.00000   0.00000  Uiso   1.00
C38    C     0.36393   0.64820   1.00000   0.00000  Uiso   1.00
C39    C     0.39246   0.63315   1.00000   0.00000  Uiso   1.00
C40    C     0.83861   0.40672   1.00000   0.00000  Uiso   1.00
C41    C     0.86607   0.38970   0.84633   0.00000  Uiso   1.00
C42    C     0.91251   0.41642   0.85521   0.00000  Uiso   1.00
C43    C     0.93220   0.46067   1.00000   0.00000  Uiso   1.00
C44    C     0.90531   0.47793   1.09419   0.00000  Uiso   1.00
C45    C     0.85883   0.45113   1.08923   0.00000  Uiso   1.00
C46    C     0.97998   0.48839   1.00000   0.00000  Uiso   1.00
O47    O     0.42015   0.72046   1.00000   0.00000  Uiso   1.00
N48    N     0.37807   0.58720   1.00000   0.00000  Uiso   1.00
H49    H     0.42762   0.65731   1.00000   0.00000  Uiso   1.00
H50    H     0.34609   0.56706   1.00000   0.00000  Uiso   1.00
H51    H     0.85144   0.35565   0.74798   0.00000  Uiso   1.00
H52    H     0.93303   0.40270   0.76366   0.00000  Uiso   1.00
H53    H     0.92028   0.51203   1.19275   0.00000  Uiso   1.00
H54    H     0.83935   0.46542   1.19105   0.00000  Uiso   1.00
C55    C     0.69686   0.31502   1.00000   0.00000  Uiso   1.00
C56    C     0.64820   0.28427   1.00000   0.00000  Uiso   1.00
C57    C     0.63315   0.24069   1.00000   0.00000  Uiso   1.00
C58    C     0.40672   0.56811   1.00000   0.00000  Uiso   1.00
C59    C     0.38970   0.52363   0.84633   0.00000  Uiso   1.00
C60    C     0.41642   0.50391   0.85521   0.00000  Uiso   1.00
C61    C     0.46067   0.52847   1.00000   0.00000  Uiso   1.00
C62    C     0.47793   0.57262   1.09419   0.00000  Uiso   1.00
C63    C     0.45113   0.59230   1.08923   0.00000  Uiso   1.00
C64    C     0.48839   0.50841   1.00000   0.00000  Uiso   1.00
O65    O     0.72046   0.30031   1.00000   0.00000  Uiso   1.00
N66    N     0.58720   0.20913   1.00000   0.00000  Uiso   1.00
H67    H     0.65731   0.22969   1.00000   0.00000  Uiso   1.00
H68    H     0.56706   0.22097   1.00000   0.00000  Uiso   1.00
H69    H     0.35565   0.50421   0.74798   0.00000  Uiso   1.00
H70    H     0.40270   0.46967   0.76366   0.00000  Uiso   1.00
H71    H     0.51203   0.59175   1.19275   0.00000  Uiso   1.00
H72    H     0.46542   0.62607   1.19105   0.00000  Uiso   1.00
C73    C     0.68498   0.38184   1.00000   0.00000  Uiso   1.00
C74    C     0.71573   0.36393   1.00000   0.00000  Uiso   1.00
C75    C     0.75931   0.39246   1.00000   0.00000  Uiso   1.00
C76    C     0.43189   0.83861   1.00000   0.00000  Uiso   1.00
C77    C     0.47637   0.86607   0.84633   0.00000  Uiso   1.00
C78    C     0.49609   0.91251   0.85521   0.00000  Uiso   1.00
C79    C     0.47153   0.93220   1.00000   0.00000  Uiso   1.00
C80    C     0.42738   0.90531   1.09419   0.00000  Uiso   1.00
C81    C     0.40770   0.85883   1.08923   0.00000  Uiso   1.00
C82    C     0.49159   0.97998   1.00000   0.00000  Uiso   1.00
O83    O     0.69969   0.42015   1.00000   0.00000  Uiso   1.00
N84    N     0.79087   0.37807   1.00000   0.00000  Uiso   1.00
H85    H     0.77031   0.42762   1.00000   0.00000  Uiso   1.00
H86    H     0.77903   0.34609   1.00000   0.00000  Uiso   1.00
H87    H     0.49579   0.85144   0.74798   0.00000  Uiso   1.00
H88    H     0.53033   0.93303   0.76366   0.00000  Uiso   1.00
H89    H     0.40825   0.92028   1.19275   0.00000  Uiso   1.00
H90    H     0.37393   0.83935   1.19105   0.00000  Uiso   1.00
C91    C     0.61816   0.30314   1.00000   0.00000  Uiso   1.00
C92    C     0.63607   0.35180   1.00000   0.00000  Uiso   1.00
C93    C     0.60754   0.36685   1.00000   0.00000  Uiso   1.00
C94    C     0.16139   0.59328   1.00000   0.00000  Uiso   1.00
C95    C     0.13393   0.61030   0.84633   0.00000  Uiso   1.00
C96    C     0.08749   0.58358   0.85521   0.00000  Uiso   1.00
C97    C     0.06780   0.53933   1.00000   0.00000  Uiso   1.00
C98    C     0.09469   0.52207   1.09419   0.00000  Uiso   1.00
C99    C     0.14117   0.54887   1.08923   0.00000  Uiso   1.00
C100   C     0.02002   0.51161   1.00000   0.00000  Uiso   1.00
O101   O     0.57985   0.27954   1.00000   0.00000  Uiso   1.00
N102   N     0.62193   0.41280   1.00000   0.00000  Uiso   1.00
H103   H     0.57238   0.34269   1.00000   0.00000  Uiso   1.00
H104   H     0.65391   0.43294   1.00000   0.00000  Uiso   1.00
H105   H     0.14856   0.64435   0.74798   0.00000  Uiso   1.00
H106   H     0.06697   0.59730   0.76366   0.00000  Uiso   1.00
H107   H     0.07972   0.48797   1.19275   0.00000  Uiso   1.00
H108   H     0.16065   0.53458   1.19105   0.00000  Uiso   1.00
loop_
_geom_bond_atom_site_label_1
_geom_bond_atom_site_label_2
_geom_bond_distance
_geom_bond_site_symmetry_2
_ccdc_geom_bond_type
C1     C2      1.475   .     S
C1     O11     1.158   .     D
C1     C20     1.478   .     S
C2     C3      1.326   .     D
C2     C37     1.478   .     S
C3     N12     1.409   .     S
C3     H13     1.078   .     S
C4     C5      1.453   .     D
C4     C9      1.370   .     S
C4     N102    1.440   .     S
C5     C6      1.397   .     S
C5     H15     1.082   .     S
C6     C7      1.426   .     D
C6     H16     1.083   .     S
C7     C8      1.375   .     S
C7     C10     1.438   .     S
C8     C9      1.398   .     D
C8     H17     1.083   .     S
C9     H18     1.079   .     S
C10    C64     1.205   .     T
N12    H14     0.969   .     S
N12    C76     1.440   .     S
C19    C20     1.475   .     S
C19    O29     1.158   .     D
C19    C38     1.478   .     S
C20    C21     1.326   .     D
C21    N30     1.409   .     S
C21    H31     1.078   .     S
C22    C23     1.453   .     D
C22    C27     1.370   .     S
C22    N66     1.440   .     S
C23    C24     1.397   .     S
C23    H33     1.082   .     S
C24    C25     1.426   .     D
C24    H34     1.083   .     S
C25    C26     1.375   .     S
C25    C28     1.438   .     S
C26    C27     1.398   .     D
C26    H35     1.083   .     S
C27    H36     1.079   .     S
C28    C82     1.205   1_545 T
N30    H32     0.969   .     S
N30    C94     1.440   .     S
C37    C38     1.475   .     S
C37    O47     1.158   .     D
C38    C39     1.326   .     D
C39    N48     1.409   .     S
C39    H49     1.078   .     S
C40    C41     1.453   .     D
C40    C45     1.370   .     S
C40    N84     1.440   .     S
C41    C42     1.397   .     S
C41    H51     1.082   .     S
C42    C43     1.426   .     D
C42    H52     1.083   .     S
C43    C44     1.375   .     S
C43    C46     1.438   .     S
C44    C45     1.398   .     D
C44    H53     1.083   .     S
C45    H54     1.079   .     S
C46    C100    1.205   1_655 T
N48    H50     0.969   .     S
N48    C58     1.440   .     S
C55    C56     1.475   .     S
C55    O65     1.158   .     D
C55    C74     1.478   .     S
C56    C57     1.326   .     D
C56    C91     1.478   .     S
C57    N66     1.409   .     S
C57    H67     1.078   .     S
C58    C59     1.453   .     D
C58    C63     1.370   .     S
C59    C60     1.397   .     S
C59    H69     1.082   .     S
C60    C61     1.426   .     D
C60    H70     1.083   .     S
C61    C62     1.375   .     S
C61    C64     1.438   .     S
C62    C63     1.398   .     D
C62    H71     1.083   .     S
C63    H72     1.079   .     S
N66    H68     0.969   .     S
C73    C74     1.475   .     S
C73    O83     1.158   .     D
C73    C92     1.478   .     S
C74    C75     1.326   .     D
C75    N84     1.409   .     S
C75    H85     1.078   .     S
C76    C77     1.453   .     D
C76    C81     1.370   .     S
C77    C78     1.397   .     S
C77    H87     1.082   .     S
C78    C79     1.426   .     D
C78    H88     1.083   .     S
C79    C80     1.375   .     S
C79    C82     1.438   .     S
C80    C81     1.398   .     D
C80    H89     1.083   .     S
C81    H90     1.079   .     S
C82    C28     1.205   1_565 T
N84    H86     0.969   .     S
C91    C92     1.475   .     S
C91    O101    1.158   .     D
C92    C93     1.326   .     D
C93    N102    1.409   .     S
C93    H103    1.078   .     S
C94    C95     1.453   .     D
C94    C99     1.370   .     S
C95    C96     1.397   .     S
C95    H105    1.082   .     S
C96    C97     1.426   .     D
C96    H106    1.083   .     S
C97    C98     1.375   .     S
C97    C100    1.438   .     S
C98    C99     1.398   .     D
C98    H107    1.083   .     S
C99    H108    1.079   .     S
C100   C46     1.205   1_455 T
N102   H104    0.969   .     S
