data_544
_audit_creation_date              2023-09-08
_audit_creation_method            'Materials Studio'
_symmetry_space_group_name_H-M    'P1'
_symmetry_Int_Tables_number       1
_symmetry_cell_setting            triclinic
loop_
_symmetry_equiv_pos_as_xyz
  x,y,z
_cell_length_a                    37.5242
_cell_length_b                    37.5242
_cell_length_c                    6.2458
_cell_angle_alpha                 90.0000
_cell_angle_beta                  90.0000
_cell_angle_gamma                 120.0000
loop_
_atom_site_label
_atom_site_type_symbol
_atom_site_fract_x
_atom_site_fract_y
_atom_site_fract_z
_atom_site_U_iso_or_equiv
_atom_site_adp_type
_atom_site_occupancy
C1     C     0.48103   0.48099   0.50760   0.00000  Uiso   1.00
C2     C     0.51901   0.00004   0.50760   0.00000  Uiso   1.00
C3     C     0.99996   0.51897   0.50760   0.00000  Uiso   1.00
C4     C     0.51897   0.51901   0.50760   0.00000  Uiso   1.00
C5     C     0.48099   0.99996   0.50760   0.00000  Uiso   1.00
C6     C     0.00004   0.48103   0.50760   0.00000  Uiso   1.00
C7     C     0.44280   0.47974   0.51030   0.00000  Uiso   1.00
C8     C     0.52026   0.96306   0.51030   0.00000  Uiso   1.00
C9     C     0.03693   0.55720   0.51030   0.00000  Uiso   1.00
C10    C     0.55720   0.52026   0.51030   0.00000  Uiso   1.00
C11    C     0.47974   0.03693   0.51030   0.00000  Uiso   1.00
C12    C     0.96306   0.44280   0.51030   0.00000  Uiso   1.00
C13    C     0.41794   0.46787   0.32483   0.00000  Uiso   1.00
C14    C     0.53213   0.95008   0.32483   0.00000  Uiso   1.00
C15    C     0.04992   0.58206   0.32483   0.00000  Uiso   1.00
C16    C     0.58206   0.53213   0.32483   0.00000  Uiso   1.00
C17    C     0.46787   0.04992   0.32483   0.00000  Uiso   1.00
C18    C     0.95008   0.41794   0.32483   0.00000  Uiso   1.00
C19    C     0.38038   0.46772   0.32355   0.00000  Uiso   1.00
C20    C     0.53228   0.91266   0.32355   0.00000  Uiso   1.00
C21    C     0.08734   0.61962   0.32355   0.00000  Uiso   1.00
C22    C     0.61962   0.53228   0.32355   0.00000  Uiso   1.00
C23    C     0.46772   0.08734   0.32355   0.00000  Uiso   1.00
C24    C     0.91266   0.38038   0.32355   0.00000  Uiso   1.00
C25    C     0.36648   0.47835   0.50996   0.00000  Uiso   1.00
C26    C     0.52165   0.88813   0.50996   0.00000  Uiso   1.00
C27    C     0.11187   0.63352   0.50996   0.00000  Uiso   1.00
C28    C     0.63352   0.52165   0.50996   0.00000  Uiso   1.00
C29    C     0.47835   0.11187   0.50996   0.00000  Uiso   1.00
C30    C     0.88813   0.36648   0.50996   0.00000  Uiso   1.00
C31    C     0.39093   0.48952   0.69690   0.00000  Uiso   1.00
C32    C     0.51048   0.90141   0.69690   0.00000  Uiso   1.00
C33    C     0.09859   0.60907   0.69690   0.00000  Uiso   1.00
C34    C     0.60907   0.51048   0.69690   0.00000  Uiso   1.00
C35    C     0.48952   0.09859   0.69690   0.00000  Uiso   1.00
C36    C     0.90141   0.39093   0.69690   0.00000  Uiso   1.00
C37    C     0.42902   0.49068   0.69608   0.00000  Uiso   1.00
C38    C     0.50932   0.93834   0.69608   0.00000  Uiso   1.00
C39    C     0.06166   0.57098   0.69608   0.00000  Uiso   1.00
C40    C     0.57098   0.50932   0.69608   0.00000  Uiso   1.00
C41    C     0.49068   0.06166   0.69608   0.00000  Uiso   1.00
C42    C     0.93834   0.42902   0.69608   0.00000  Uiso   1.00
C43    C     0.47948   0.44258   0.50374   0.00000  Uiso   1.00
C44    C     0.55742   0.03690   0.50374   0.00000  Uiso   1.00
C45    C     0.96310   0.52052   0.50374   0.00000  Uiso   1.00
C46    C     0.52053   0.55742   0.50374   0.00000  Uiso   1.00
C47    C     0.44258   0.96310   0.50374   0.00000  Uiso   1.00
C48    C     0.03690   0.47948   0.50374   0.00000  Uiso   1.00
C49    C     0.46299   0.41522   0.67894   0.00000  Uiso   1.00
C50    C     0.58478   0.04777   0.67894   0.00000  Uiso   1.00
C51    C     0.95223   0.53701   0.67894   0.00000  Uiso   1.00
C52    C     0.53701   0.58478   0.67894   0.00000  Uiso   1.00
C53    C     0.41522   0.95223   0.67894   0.00000  Uiso   1.00
C54    C     0.04777   0.46299   0.67894   0.00000  Uiso   1.00
C55    C     0.46214   0.37732   0.67764   0.00000  Uiso   1.00
C56    C     0.62268   0.08482   0.67764   0.00000  Uiso   1.00
C57    C     0.91518   0.53786   0.67764   0.00000  Uiso   1.00
C58    C     0.53786   0.62268   0.67764   0.00000  Uiso   1.00
C59    C     0.37732   0.91518   0.67764   0.00000  Uiso   1.00
C60    C     0.08482   0.46214   0.67764   0.00000  Uiso   1.00
C61    C     0.47759   0.36583   0.50038   0.00000  Uiso   1.00
C62    C     0.63417   0.11176   0.50038   0.00000  Uiso   1.00
C63    C     0.88824   0.52241   0.50038   0.00000  Uiso   1.00
C64    C     0.52241   0.63417   0.50038   0.00000  Uiso   1.00
C65    C     0.36583   0.88824   0.50038   0.00000  Uiso   1.00
C66    C     0.11176   0.47759   0.50038   0.00000  Uiso   1.00
C67    C     0.49360   0.39290   0.32379   0.00000  Uiso   1.00
C68    C     0.60710   0.10070   0.32379   0.00000  Uiso   1.00
C69    C     0.89930   0.50639   0.32379   0.00000  Uiso   1.00
C70    C     0.50640   0.60710   0.32379   0.00000  Uiso   1.00
C71    C     0.39290   0.89930   0.32379   0.00000  Uiso   1.00
C72    C     0.10070   0.49360   0.32379   0.00000  Uiso   1.00
C73    C     0.49451   0.43084   0.32556   0.00000  Uiso   1.00
C74    C     0.56917   0.06368   0.32556   0.00000  Uiso   1.00
C75    C     0.93632   0.50549   0.32556   0.00000  Uiso   1.00
C76    C     0.50549   0.56917   0.32556   0.00000  Uiso   1.00
C77    C     0.43083   0.93632   0.32556   0.00000  Uiso   1.00
C78    C     0.06368   0.49451   0.32556   0.00000  Uiso   1.00
B79    B     0.32660   0.47790   0.50867   0.00000  Uiso   1.00
B80    B     0.52210   0.84870   0.50867   0.00000  Uiso   1.00
B81    B     0.15130   0.67340   0.50867   0.00000  Uiso   1.00
B82    B     0.67340   0.52210   0.50867   0.00000  Uiso   1.00
B83    B     0.47790   0.15130   0.50867   0.00000  Uiso   1.00
B84    B     0.84870   0.32661   0.50867   0.00000  Uiso   1.00
O85    O     0.29843   0.46574   0.68644   0.00000  Uiso   1.00
O86    O     0.53426   0.83269   0.68644   0.00000  Uiso   1.00
O87    O     0.16731   0.70157   0.68644   0.00000  Uiso   1.00
O88    O     0.70157   0.53426   0.68644   0.00000  Uiso   1.00
O89    O     0.46574   0.16731   0.68644   0.00000  Uiso   1.00
O90    O     0.83269   0.29843   0.68644   0.00000  Uiso   1.00
O91    O     0.31076   0.48965   0.32849   0.00000  Uiso   1.00
O92    O     0.51035   0.82111   0.32849   0.00000  Uiso   1.00
O93    O     0.17889   0.68924   0.32849   0.00000  Uiso   1.00
O94    O     0.68924   0.51036   0.32849   0.00000  Uiso   1.00
O95    O     0.48964   0.17889   0.32849   0.00000  Uiso   1.00
O96    O     0.82111   0.31076   0.32849   0.00000  Uiso   1.00
C97    C     0.26704   0.46989   0.61109   0.00000  Uiso   1.00
C98    C     0.53011   0.79715   0.61109   0.00000  Uiso   1.00
C99    C     0.20285   0.73296   0.61109   0.00000  Uiso   1.00
C100   C     0.73296   0.53011   0.61109   0.00000  Uiso   1.00
C101   C     0.46989   0.20285   0.61109   0.00000  Uiso   1.00
C102   C     0.79715   0.26704   0.61109   0.00000  Uiso   1.00
B103   B     0.47720   0.32591   0.50055   0.00000  Uiso   1.00
B104   B     0.67409   0.15129   0.50055   0.00000  Uiso   1.00
B105   B     0.84871   0.52280   0.50055   0.00000  Uiso   1.00
B106   B     0.52280   0.67409   0.50055   0.00000  Uiso   1.00
B107   B     0.32591   0.84871   0.50055   0.00000  Uiso   1.00
B108   B     0.15129   0.47720   0.50055   0.00000  Uiso   1.00
O109   O     0.49069   0.31046   0.32574   0.00000  Uiso   1.00
O110   O     0.68954   0.18024   0.32574   0.00000  Uiso   1.00
O111   O     0.81976   0.50930   0.32574   0.00000  Uiso   1.00
O112   O     0.50931   0.68954   0.32574   0.00000  Uiso   1.00
O113   O     0.31046   0.81976   0.32574   0.00000  Uiso   1.00
O114   O     0.18024   0.49069   0.32574   0.00000  Uiso   1.00
O115   O     0.46351   0.29722   0.67648   0.00000  Uiso   1.00
O116   O     0.70278   0.16629   0.67648   0.00000  Uiso   1.00
O117   O     0.83371   0.53648   0.67648   0.00000  Uiso   1.00
O118   O     0.53648   0.70278   0.67648   0.00000  Uiso   1.00
O119   O     0.29722   0.83371   0.67648   0.00000  Uiso   1.00
O120   O     0.16629   0.46352   0.67648   0.00000  Uiso   1.00
C121   C     0.48514   0.27420   0.39797   0.00000  Uiso   1.00
C122   C     0.72580   0.21094   0.39797   0.00000  Uiso   1.00
C123   C     0.78906   0.51486   0.39797   0.00000  Uiso   1.00
C124   C     0.51486   0.72580   0.39797   0.00000  Uiso   1.00
C125   C     0.27420   0.78906   0.39797   0.00000  Uiso   1.00
C126   C     0.21094   0.48514   0.39797   0.00000  Uiso   1.00
C127   C     0.49341   0.24623   0.29017   0.00000  Uiso   1.00
C128   C     0.75377   0.24718   0.29017   0.00000  Uiso   1.00
C129   C     0.75282   0.50659   0.29017   0.00000  Uiso   1.00
C130   C     0.50659   0.75377   0.29017   0.00000  Uiso   1.00
C131   C     0.24623   0.75282   0.29017   0.00000  Uiso   1.00
C132   C     0.24718   0.49341   0.29017   0.00000  Uiso   1.00
C133   C     0.46911   0.26640   0.60675   0.00000  Uiso   1.00
C134   C     0.73360   0.20271   0.60675   0.00000  Uiso   1.00
C135   C     0.79729   0.53089   0.60675   0.00000  Uiso   1.00
C136   C     0.53089   0.73360   0.60675   0.00000  Uiso   1.00
C137   C     0.26640   0.79729   0.60675   0.00000  Uiso   1.00
C138   C     0.20271   0.46911   0.60675   0.00000  Uiso   1.00
C139   C     0.48494   0.21015   0.40024   0.00000  Uiso   1.00
C140   C     0.78985   0.27479   0.40024   0.00000  Uiso   1.00
C141   C     0.72521   0.51506   0.40024   0.00000  Uiso   1.00
C142   C     0.51506   0.78985   0.40024   0.00000  Uiso   1.00
C143   C     0.21015   0.72521   0.40024   0.00000  Uiso   1.00
C144   C     0.27479   0.48494   0.40024   0.00000  Uiso   1.00
C145   C     0.23050   0.46100   0.71761   0.00000  Uiso   1.00
C146   C     0.53900   0.76950   0.71761   0.00000  Uiso   1.00
C147   C     0.23050   0.76950   0.71761   0.00000  Uiso   1.00
C148   C     0.76950   0.53900   0.71761   0.00000  Uiso   1.00
C149   C     0.46100   0.23050   0.71761   0.00000  Uiso   1.00
C150   C     0.76950   0.23050   0.71761   0.00000  Uiso   1.00
H151   H     0.42715   0.45943   0.18914   0.00000  Uiso   1.00
H152   H     0.36300   0.45932   0.18668   0.00000  Uiso   1.00
H153   H     0.38141   0.49748   0.83343   0.00000  Uiso   1.00
H154   H     0.44669   0.49962   0.83158   0.00000  Uiso   1.00
H155   H     0.45162   0.42281   0.80933   0.00000  Uiso   1.00
H156   H     0.45015   0.35813   0.80736   0.00000  Uiso   1.00
H157   H     0.50490   0.38527   0.19288   0.00000  Uiso   1.00
H158   H     0.50630   0.44991   0.19588   0.00000  Uiso   1.00
H159   H     0.50525   0.25196   0.13925   0.00000  Uiso   1.00
H160   H     0.22435   0.44911   0.86842   0.00000  Uiso   1.00
H161   H     0.54057   0.96772   0.18914   0.00000  Uiso   1.00
H162   H     0.54068   0.90367   0.18668   0.00000  Uiso   1.00
H163   H     0.50253   0.88393   0.83343   0.00000  Uiso   1.00
H164   H     0.50038   0.94707   0.83158   0.00000  Uiso   1.00
H165   H     0.57719   0.02881   0.80933   0.00000  Uiso   1.00
H166   H     0.64187   0.09201   0.80736   0.00000  Uiso   1.00
H167   H     0.61473   0.11964   0.19288   0.00000  Uiso   1.00
H168   H     0.55009   0.05639   0.19588   0.00000  Uiso   1.00
H169   H     0.74804   0.25328   0.13925   0.00000  Uiso   1.00
H170   H     0.55089   0.77524   0.86842   0.00000  Uiso   1.00
H171   H     0.03228   0.57285   0.18914   0.00000  Uiso   1.00
H172   H     0.09632   0.63700   0.18668   0.00000  Uiso   1.00
H173   H     0.11607   0.61859   0.83343   0.00000  Uiso   1.00
H174   H     0.05293   0.55331   0.83158   0.00000  Uiso   1.00
H175   H     0.97119   0.54838   0.80933   0.00000  Uiso   1.00
H176   H     0.90799   0.54985   0.80736   0.00000  Uiso   1.00
H177   H     0.88036   0.49510   0.19288   0.00000  Uiso   1.00
H178   H     0.94361   0.49370   0.19588   0.00000  Uiso   1.00
H179   H     0.74672   0.49475   0.13925   0.00000  Uiso   1.00
H180   H     0.22476   0.77565   0.86842   0.00000  Uiso   1.00
H181   H     0.57285   0.54057   0.18914   0.00000  Uiso   1.00
H182   H     0.63700   0.54068   0.18668   0.00000  Uiso   1.00
H183   H     0.61859   0.50252   0.83343   0.00000  Uiso   1.00
H184   H     0.55331   0.50038   0.83158   0.00000  Uiso   1.00
H185   H     0.54838   0.57719   0.80933   0.00000  Uiso   1.00
H186   H     0.54985   0.64187   0.80736   0.00000  Uiso   1.00
H187   H     0.49510   0.61473   0.19288   0.00000  Uiso   1.00
H188   H     0.49370   0.55009   0.19588   0.00000  Uiso   1.00
H189   H     0.49475   0.74804   0.13925   0.00000  Uiso   1.00
H190   H     0.77565   0.55089   0.86842   0.00000  Uiso   1.00
H191   H     0.45943   0.03228   0.18914   0.00000  Uiso   1.00
H192   H     0.45932   0.09633   0.18668   0.00000  Uiso   1.00
H193   H     0.49747   0.11607   0.83343   0.00000  Uiso   1.00
H194   H     0.49962   0.05293   0.83158   0.00000  Uiso   1.00
H195   H     0.42281   0.97119   0.80933   0.00000  Uiso   1.00
H196   H     0.35813   0.90799   0.80736   0.00000  Uiso   1.00
H197   H     0.38527   0.88036   0.19288   0.00000  Uiso   1.00
H198   H     0.44991   0.94361   0.19588   0.00000  Uiso   1.00
H199   H     0.25196   0.74672   0.13925   0.00000  Uiso   1.00
H200   H     0.44911   0.22476   0.86842   0.00000  Uiso   1.00
H201   H     0.96772   0.42715   0.18914   0.00000  Uiso   1.00
H202   H     0.90367   0.36300   0.18668   0.00000  Uiso   1.00
H203   H     0.88393   0.38140   0.83343   0.00000  Uiso   1.00
H204   H     0.94707   0.44669   0.83158   0.00000  Uiso   1.00
H205   H     0.02881   0.45162   0.80933   0.00000  Uiso   1.00
H206   H     0.09201   0.45015   0.80736   0.00000  Uiso   1.00
H207   H     0.11964   0.50490   0.19288   0.00000  Uiso   1.00
H208   H     0.05639   0.50630   0.19588   0.00000  Uiso   1.00
H209   H     0.25328   0.50525   0.13925   0.00000  Uiso   1.00
H210   H     0.77524   0.22435   0.86842   0.00000  Uiso   1.00
loop_
_geom_bond_atom_site_label_1
_geom_bond_atom_site_label_2
_geom_bond_distance
_geom_bond_site_symmetry_2
_ccdc_geom_bond_type
C1     C4      1.425   .     D
C1     C7      1.412   .     S
C1     C43     1.413   .     S
C2     C5      1.425   1_545 D
C2     C8      1.412   1_545 S
C2     C44     1.413   .     S
C3     C6      1.425   1_655 D
C3     C9      1.412   1_655 S
C3     C45     1.413   .     S
C4     C10     1.412   .     S
C4     C46     1.413   .     S
C5     C2      1.425   1_565 D
C5     C11     1.412   1_565 S
C5     C47     1.413   .     S
C6     C3      1.425   1_455 D
C6     C12     1.412   1_455 S
C6     C48     1.413   .     S
C7     C13     1.412   .     D
C7     C37     1.412   .     S
C8     C2      1.412   1_565 S
C8     C14     1.412   .     D
C8     C38     1.412   .     S
C9     C3      1.412   1_455 S
C9     C15     1.412   .     S
C9     C39     1.412   .     D
C10    C16     1.412   .     D
C10    C40     1.412   .     S
C11    C5      1.412   1_545 S
C11    C17     1.412   .     D
C11    C41     1.412   .     S
C12    C6      1.412   1_655 S
C12    C18     1.412   .     D
C12    C42     1.412   .     S
C13    C19     1.407   .     S
C13    H151    1.023   .     S
C14    C20     1.407   .     S
C14    H161    1.023   .     S
C15    C21     1.407   .     D
C15    H171    1.023   .     S
C16    C22     1.407   .     S
C16    H181    1.023   .     S
C17    C23     1.407   .     S
C17    H191    1.023   .     S
C18    C24     1.407   .     S
C18    H201    1.023   .     S
C19    C25     1.412   .     D
C19    H152    1.025   .     S
C20    C26     1.412   .     D
C20    H162    1.025   .     S
C21    C27     1.412   .     S
C21    H172    1.025   .     S
C22    C28     1.412   .     D
C22    H182    1.025   .     S
C23    C29     1.412   .     D
C23    H192    1.025   .     S
C24    C30     1.412   .     D
C24    H202    1.025   .     S
C25    C31     1.413   .     S
C25    B79     1.488   .     S
C26    C32     1.413   .     S
C26    B80     1.488   .     S
C27    C33     1.413   .     D
C27    B81     1.488   .     S
C28    C34     1.413   .     S
C28    B82     1.488   .     S
C29    C35     1.413   .     S
C29    B83     1.488   .     S
C30    C36     1.413   .     S
C30    B84     1.488   .     S
C31    C37     1.408   .     D
C31    H153    1.025   .     S
C32    C38     1.408   .     D
C32    H163    1.025   .     S
C33    C39     1.408   .     S
C33    H173    1.025   .     S
C34    C40     1.408   .     D
C34    H183    1.025   .     S
C35    C41     1.408   .     D
C35    H193    1.025   .     S
C36    C42     1.408   .     D
C36    H203    1.025   .     S
C37    H154    1.023   .     S
C38    H164    1.023   .     S
C39    H174    1.023   .     S
C40    H184    1.023   .     S
C41    H194    1.023   .     S
C42    H204    1.023   .     S
C43    C49     1.414   .     D
C43    C73     1.414   .     S
C44    C50     1.414   .     D
C44    C74     1.414   .     S
C45    C51     1.414   .     D
C45    C75     1.414   .     S
C46    C52     1.414   .     S
C46    C76     1.414   .     D
C47    C53     1.414   .     S
C47    C77     1.414   .     D
C48    C54     1.414   .     S
C48    C78     1.414   .     D
C49    C55     1.407   .     S
C49    H155    1.024   .     S
C50    C56     1.407   .     S
C50    H165    1.024   .     S
C51    C57     1.407   .     S
C51    H175    1.024   .     S
C52    C58     1.407   .     D
C52    H185    1.024   .     S
C53    C59     1.407   .     D
C53    H195    1.024   .     S
C54    C60     1.407   .     D
C54    H205    1.024   .     S
C55    C61     1.413   .     D
C55    H156    1.026   .     S
C56    C62     1.413   .     D
C56    H166    1.026   .     S
C57    C63     1.413   .     D
C57    H176    1.026   .     S
C58    C64     1.413   .     S
C58    H186    1.026   .     S
C59    C65     1.413   .     S
C59    H196    1.026   .     S
C60    C66     1.413   .     S
C60    H206    1.026   .     S
C61    C67     1.414   .     S
C61    B103    1.491   .     S
C62    C68     1.414   .     S
C62    B104    1.491   .     S
C63    C69     1.414   .     S
C63    B105    1.491   .     S
C64    C70     1.414   .     D
C64    B106    1.491   .     S
C65    C71     1.414   .     D
C65    B107    1.491   .     S
C66    C72     1.414   .     D
C66    B108    1.491   .     S
C67    C73     1.407   .     D
C67    H157    1.026   .     S
C68    C74     1.407   .     D
C68    H167    1.026   .     S
C69    C75     1.407   .     D
C69    H177    1.026   .     S
C70    C76     1.407   .     S
C70    H187    1.026   .     S
C71    C77     1.407   .     S
C71    H197    1.026   .     S
C72    C78     1.407   .     S
C72    H207    1.026   .     S
C73    H158    1.023   .     S
C74    H168    1.023   .     S
C75    H178    1.023   .     S
C76    H188    1.023   .     S
C77    H198    1.023   .     S
C78    H208    1.023   .     S
B79    O85     1.441   .     S
B79    O91     1.441   .     S
B80    O86     1.441   .     S
B80    O92     1.441   .     S
B81    O87     1.441   .     S
B81    O93     1.441   .     S
B82    O88     1.441   .     S
B82    O94     1.441   .     S
B83    O89     1.441   .     S
B83    O95     1.441   .     S
B84    O90     1.441   .     S
B84    O96     1.441   .     S
O85    C97     1.348   .     S
O86    C98     1.348   .     S
O87    C99     1.348   .     S
O88    C100    1.348   .     S
O89    C101    1.348   .     S
O90    C102    1.348   .     S
O91    C144    1.347   .     S
O92    C142    1.347   .     S
O93    C143    1.347   .     S
O94    C141    1.347   .     S
O95    C139    1.347   .     S
O96    C140    1.347   .     S
C97    C144    1.405   .     S
C97    C145    1.406   .     D
C98    C142    1.405   .     S
C98    C146    1.406   .     D
C99    C143    1.405   .     S
C99    C147    1.406   .     D
C100   C141    1.405   .     S
C100   C148    1.406   .     D
C101   C139    1.405   .     S
C101   C149    1.406   .     D
C102   C140    1.405   .     D
C102   C150    1.406   .     S
B103   O109    1.442   .     S
B103   O115    1.441   .     S
B104   O110    1.442   .     S
B104   O116    1.441   .     S
B105   O111    1.442   .     S
B105   O117    1.441   .     S
B106   O112    1.442   .     S
B106   O118    1.441   .     S
B107   O113    1.442   .     S
B107   O119    1.441   .     S
B108   O114    1.442   .     S
B108   O120    1.441   .     S
O109   C121    1.347   .     S
O110   C122    1.347   .     S
O111   C123    1.347   .     S
O112   C124    1.347   .     S
O113   C125    1.347   .     S
O114   C126    1.347   .     S
O115   C133    1.347   .     S
O116   C134    1.347   .     S
O117   C135    1.347   .     S
O118   C136    1.347   .     S
O119   C137    1.347   .     S
O120   C138    1.347   .     S
C121   C127    1.406   .     S
C121   C133    1.404   .     D
C122   C128    1.406   .     D
C122   C134    1.404   .     S
C123   C129    1.406   .     S
C123   C135    1.404   .     D
C124   C130    1.406   .     S
C124   C136    1.404   .     D
C125   C131    1.406   .     S
C125   C137    1.404   .     D
C126   C132    1.406   .     S
C126   C138    1.404   .     D
C127   C139    1.406   .     D
C127   H159    1.018   .     S
C128   C140    1.406   .     S
C128   H169    1.018   .     S
C129   C141    1.406   .     D
C129   H179    1.018   .     S
C130   C142    1.406   .     D
C130   H189    1.018   .     S
C131   C143    1.406   .     D
C131   H199    1.018   .     S
C132   C144    1.406   .     D
C132   H209    1.018   .     S
C133   C149    1.406   .     S
C134   C150    1.406   .     D
C135   C148    1.406   .     S
C136   C146    1.406   .     S
C137   C147    1.406   .     S
C138   C145    1.406   .     S
C145   H160    1.018   .     S
C146   H170    1.018   .     S
C147   H180    1.018   .     S
C148   H190    1.018   .     S
C149   H200    1.018   .     S
C150   H210    1.018   .     S
