data_545
_audit_creation_date              2023-09-08
_audit_creation_method            'Materials Studio'
_symmetry_space_group_name_H-M    'P1'
_symmetry_Int_Tables_number       1
_symmetry_cell_setting            triclinic
loop_
_symmetry_equiv_pos_as_xyz
  x,y,z
_cell_length_a                    37.4660
_cell_length_b                    37.4660
_cell_length_c                    4.4500
_cell_angle_alpha                 90.0000
_cell_angle_beta                  90.0000
_cell_angle_gamma                 120.0000
loop_
_atom_site_label
_atom_site_type_symbol
_atom_site_fract_x
_atom_site_fract_y
_atom_site_fract_z
_atom_site_U_iso_or_equiv
_atom_site_adp_type
_atom_site_occupancy
C1     C     0.43965   0.47826   0.51133   0.00000  Uiso   1.00
C2     C     0.52174   0.96139   0.51133   0.00000  Uiso   1.00
C3     C     0.03861   0.56035   0.51133   0.00000  Uiso   1.00
C4     C     0.56035   0.52174   0.51133   0.00000  Uiso   1.00
C5     C     0.47826   0.03861   0.51133   0.00000  Uiso   1.00
C6     C     0.96139   0.43965   0.51133   0.00000  Uiso   1.00
C7     C     0.47826   0.43965   0.48867   0.00000  Uiso   1.00
C8     C     0.96139   0.52174   0.48867   0.00000  Uiso   1.00
C9     C     0.56035   0.03861   0.48867   0.00000  Uiso   1.00
C10    C     0.52174   0.56035   0.48867   0.00000  Uiso   1.00
C11    C     0.03861   0.47826   0.48867   0.00000  Uiso   1.00
C12    C     0.43965   0.96139   0.48867   0.00000  Uiso   1.00
C13    C     0.40763   0.44694   0.68204   0.00000  Uiso   1.00
C14    C     0.55306   0.96069   0.68204   0.00000  Uiso   1.00
C15    C     0.03931   0.59236   0.68204   0.00000  Uiso   1.00
C16    C     0.59236   0.55306   0.68204   0.00000  Uiso   1.00
C17    C     0.44694   0.03931   0.68204   0.00000  Uiso   1.00
C18    C     0.96069   0.40763   0.68204   0.00000  Uiso   1.00
C19    C     0.44694   0.40763   0.31796   0.00000  Uiso   1.00
C20    C     0.96069   0.55306   0.31796   0.00000  Uiso   1.00
C21    C     0.59236   0.03931   0.31796   0.00000  Uiso   1.00
C22    C     0.55306   0.59236   0.31796   0.00000  Uiso   1.00
C23    C     0.03931   0.44694   0.31796   0.00000  Uiso   1.00
C24    C     0.40763   0.96069   0.31796   0.00000  Uiso   1.00
C25    C     0.36925   0.44400   0.70560   0.00000  Uiso   1.00
C26    C     0.55600   0.92525   0.70560   0.00000  Uiso   1.00
C27    C     0.07475   0.63075   0.70560   0.00000  Uiso   1.00
C28    C     0.63075   0.55600   0.70560   0.00000  Uiso   1.00
C29    C     0.44400   0.07475   0.70560   0.00000  Uiso   1.00
C30    C     0.92525   0.36925   0.70560   0.00000  Uiso   1.00
C31    C     0.44400   0.36925   0.29440   0.00000  Uiso   1.00
C32    C     0.92525   0.55600   0.29440   0.00000  Uiso   1.00
C33    C     0.63075   0.07475   0.29440   0.00000  Uiso   1.00
C34    C     0.55600   0.63075   0.29440   0.00000  Uiso   1.00
C35    C     0.07475   0.44400   0.29440   0.00000  Uiso   1.00
C36    C     0.36925   0.92525   0.29440   0.00000  Uiso   1.00
C37    C     0.36245   0.47302   0.56070   0.00000  Uiso   1.00
C38    C     0.52698   0.88943   0.56070   0.00000  Uiso   1.00
C39    C     0.11057   0.63755   0.56070   0.00000  Uiso   1.00
C40    C     0.63755   0.52698   0.56070   0.00000  Uiso   1.00
C41    C     0.47302   0.11057   0.56070   0.00000  Uiso   1.00
C42    C     0.88943   0.36246   0.56070   0.00000  Uiso   1.00
C43    C     0.47302   0.36246   0.43930   0.00000  Uiso   1.00
C44    C     0.88943   0.52698   0.43930   0.00000  Uiso   1.00
C45    C     0.63755   0.11057   0.43930   0.00000  Uiso   1.00
C46    C     0.52698   0.63755   0.43930   0.00000  Uiso   1.00
C47    C     0.11057   0.47302   0.43930   0.00000  Uiso   1.00
C48    C     0.36245   0.88943   0.43930   0.00000  Uiso   1.00
C49    C     0.39277   0.50268   0.37481   0.00000  Uiso   1.00
C50    C     0.49732   0.89010   0.37481   0.00000  Uiso   1.00
C51    C     0.10990   0.60723   0.37481   0.00000  Uiso   1.00
C52    C     0.60723   0.49732   0.37481   0.00000  Uiso   1.00
C53    C     0.50268   0.10990   0.37481   0.00000  Uiso   1.00
C54    C     0.89010   0.39278   0.37481   0.00000  Uiso   1.00
C55    C     0.50268   0.39277   0.62519   0.00000  Uiso   1.00
C56    C     0.89010   0.49732   0.62519   0.00000  Uiso   1.00
C57    C     0.60723   0.10990   0.62519   0.00000  Uiso   1.00
C58    C     0.49732   0.60723   0.62519   0.00000  Uiso   1.00
C59    C     0.10990   0.50268   0.62519   0.00000  Uiso   1.00
C60    C     0.39277   0.89010   0.62519   0.00000  Uiso   1.00
C61    C     0.43015   0.50379   0.34201   0.00000  Uiso   1.00
C62    C     0.49621   0.92636   0.34201   0.00000  Uiso   1.00
C63    C     0.07364   0.56985   0.34201   0.00000  Uiso   1.00
C64    C     0.56985   0.49621   0.34201   0.00000  Uiso   1.00
C65    C     0.50379   0.07364   0.34201   0.00000  Uiso   1.00
C66    C     0.92636   0.43015   0.34201   0.00000  Uiso   1.00
C67    C     0.50379   0.43015   0.65799   0.00000  Uiso   1.00
C68    C     0.92636   0.49621   0.65799   0.00000  Uiso   1.00
C69    C     0.56985   0.07364   0.65799   0.00000  Uiso   1.00
C70    C     0.49621   0.56985   0.65799   0.00000  Uiso   1.00
C71    C     0.07364   0.50379   0.65799   0.00000  Uiso   1.00
C72    C     0.43015   0.92636   0.65799   0.00000  Uiso   1.00
B73    B     0.32151   0.47257   0.60057   0.00000  Uiso   1.00
B74    B     0.52743   0.84894   0.60057   0.00000  Uiso   1.00
B75    B     0.15106   0.67849   0.60057   0.00000  Uiso   1.00
B76    B     0.67849   0.52743   0.60057   0.00000  Uiso   1.00
B77    B     0.47257   0.15106   0.60057   0.00000  Uiso   1.00
B78    B     0.84894   0.32151   0.60057   0.00000  Uiso   1.00
B79    B     0.47257   0.32151   0.39943   0.00000  Uiso   1.00
B80    B     0.84894   0.52743   0.39943   0.00000  Uiso   1.00
B81    B     0.67849   0.15106   0.39943   0.00000  Uiso   1.00
B82    B     0.52743   0.67849   0.39943   0.00000  Uiso   1.00
B83    B     0.15106   0.47257   0.39943   0.00000  Uiso   1.00
B84    B     0.32151   0.84894   0.39943   0.00000  Uiso   1.00
O85    O     0.28171   0.43441   0.59029   0.00000  Uiso   1.00
O86    O     0.56559   0.84730   0.59029   0.00000  Uiso   1.00
O87    O     0.15270   0.71829   0.59029   0.00000  Uiso   1.00
O88    O     0.71829   0.56559   0.59029   0.00000  Uiso   1.00
O89    O     0.43441   0.15270   0.59029   0.00000  Uiso   1.00
O90    O     0.84730   0.28171   0.59029   0.00000  Uiso   1.00
O91    O     0.43441   0.28171   0.40971   0.00000  Uiso   1.00
O92    O     0.84730   0.56559   0.40971   0.00000  Uiso   1.00
O93    O     0.71829   0.15270   0.40971   0.00000  Uiso   1.00
O94    O     0.56559   0.71829   0.40971   0.00000  Uiso   1.00
O95    O     0.15270   0.43441   0.40971   0.00000  Uiso   1.00
O96    O     0.28171   0.84730   0.40971   0.00000  Uiso   1.00
O97    O     0.31959   0.51035   0.57001   0.00000  Uiso   1.00
O98    O     0.48965   0.80924   0.57001   0.00000  Uiso   1.00
O99    O     0.19076   0.68041   0.57001   0.00000  Uiso   1.00
O100   O     0.68041   0.48965   0.57001   0.00000  Uiso   1.00
O101   O     0.51035   0.19076   0.57001   0.00000  Uiso   1.00
O102   O     0.80924   0.31959   0.57001   0.00000  Uiso   1.00
O103   O     0.51035   0.31959   0.42999   0.00000  Uiso   1.00
O104   O     0.80924   0.48965   0.42999   0.00000  Uiso   1.00
O105   O     0.68041   0.19076   0.42999   0.00000  Uiso   1.00
O106   O     0.48965   0.68041   0.42999   0.00000  Uiso   1.00
O107   O     0.19076   0.51035   0.42999   0.00000  Uiso   1.00
O108   O     0.31959   0.80924   0.42999   0.00000  Uiso   1.00
C109   C     0.25642   0.45079   0.54763   0.00000  Uiso   1.00
C110   C     0.54921   0.80563   0.54763   0.00000  Uiso   1.00
C111   C     0.19437   0.74358   0.54763   0.00000  Uiso   1.00
C112   C     0.74358   0.54921   0.54763   0.00000  Uiso   1.00
C113   C     0.45079   0.19437   0.54763   0.00000  Uiso   1.00
C114   C     0.80563   0.25642   0.54763   0.00000  Uiso   1.00
C115   C     0.45079   0.25642   0.45237   0.00000  Uiso   1.00
C116   C     0.80563   0.54921   0.45237   0.00000  Uiso   1.00
C117   C     0.74358   0.19437   0.45237   0.00000  Uiso   1.00
C118   C     0.54921   0.74358   0.45237   0.00000  Uiso   1.00
C119   C     0.19437   0.45079   0.45237   0.00000  Uiso   1.00
C120   C     0.25642   0.80563   0.45237   0.00000  Uiso   1.00
C121   C     0.49362   0.21580   0.54141   0.00000  Uiso   1.00
C122   C     0.78420   0.27782   0.54141   0.00000  Uiso   1.00
C123   C     0.72218   0.50638   0.54141   0.00000  Uiso   1.00
C124   C     0.50638   0.78420   0.54141   0.00000  Uiso   1.00
C125   C     0.21580   0.72218   0.54141   0.00000  Uiso   1.00
C126   C     0.27782   0.49362   0.54141   0.00000  Uiso   1.00
C127   C     0.21580   0.49362   0.45859   0.00000  Uiso   1.00
C128   C     0.27782   0.78420   0.45859   0.00000  Uiso   1.00
C129   C     0.50638   0.72218   0.45859   0.00000  Uiso   1.00
C130   C     0.78420   0.50638   0.45859   0.00000  Uiso   1.00
C131   C     0.72218   0.21580   0.45859   0.00000  Uiso   1.00
C132   C     0.49362   0.27782   0.45859   0.00000  Uiso   1.00
H133   H     0.41177   0.42357   0.78618   0.00000  Uiso   1.00
H134   H     0.57643   0.98820   0.78618   0.00000  Uiso   1.00
H135   H     0.01180   0.58823   0.78618   0.00000  Uiso   1.00
H136   H     0.58823   0.57643   0.78618   0.00000  Uiso   1.00
H137   H     0.42357   0.01180   0.78618   0.00000  Uiso   1.00
H138   H     0.98820   0.41177   0.78618   0.00000  Uiso   1.00
H139   H     0.42357   0.41177   0.21382   0.00000  Uiso   1.00
H140   H     0.98820   0.57643   0.21382   0.00000  Uiso   1.00
H141   H     0.58823   0.01180   0.21382   0.00000  Uiso   1.00
H142   H     0.57643   0.58823   0.21382   0.00000  Uiso   1.00
H143   H     0.01180   0.42357   0.21382   0.00000  Uiso   1.00
H144   H     0.41177   0.98820   0.21382   0.00000  Uiso   1.00
H145   H     0.34529   0.41975   0.84123   0.00000  Uiso   1.00
H146   H     0.58025   0.92554   0.84123   0.00000  Uiso   1.00
H147   H     0.07446   0.65471   0.84123   0.00000  Uiso   1.00
H148   H     0.65471   0.58025   0.84123   0.00000  Uiso   1.00
H149   H     0.41975   0.07446   0.84123   0.00000  Uiso   1.00
H150   H     0.92554   0.34529   0.84123   0.00000  Uiso   1.00
H151   H     0.41975   0.34529   0.15877   0.00000  Uiso   1.00
H152   H     0.92554   0.58025   0.15877   0.00000  Uiso   1.00
H153   H     0.65471   0.07446   0.15877   0.00000  Uiso   1.00
H154   H     0.58025   0.65471   0.15877   0.00000  Uiso   1.00
H155   H     0.07446   0.41975   0.15877   0.00000  Uiso   1.00
H156   H     0.34529   0.92554   0.15877   0.00000  Uiso   1.00
H157   H     0.38754   0.52492   0.25490   0.00000  Uiso   1.00
H158   H     0.47508   0.86262   0.25490   0.00000  Uiso   1.00
H159   H     0.13738   0.61246   0.25490   0.00000  Uiso   1.00
H160   H     0.61246   0.47508   0.25490   0.00000  Uiso   1.00
H161   H     0.52492   0.13738   0.25490   0.00000  Uiso   1.00
H162   H     0.86262   0.38754   0.25490   0.00000  Uiso   1.00
H163   H     0.52492   0.38754   0.74510   0.00000  Uiso   1.00
H164   H     0.86262   0.47508   0.74510   0.00000  Uiso   1.00
H165   H     0.61246   0.13738   0.74510   0.00000  Uiso   1.00
H166   H     0.47508   0.61246   0.74510   0.00000  Uiso   1.00
H167   H     0.13738   0.52492   0.74510   0.00000  Uiso   1.00
H168   H     0.38754   0.86262   0.74510   0.00000  Uiso   1.00
H169   H     0.45300   0.52706   0.20628   0.00000  Uiso   1.00
H170   H     0.47294   0.92594   0.20628   0.00000  Uiso   1.00
H171   H     0.07406   0.54700   0.20628   0.00000  Uiso   1.00
H172   H     0.54700   0.47294   0.20628   0.00000  Uiso   1.00
H173   H     0.52706   0.07406   0.20628   0.00000  Uiso   1.00
H174   H     0.92594   0.45300   0.20628   0.00000  Uiso   1.00
H175   H     0.52706   0.45300   0.79372   0.00000  Uiso   1.00
H176   H     0.92594   0.47294   0.79372   0.00000  Uiso   1.00
H177   H     0.54700   0.07406   0.79372   0.00000  Uiso   1.00
H178   H     0.47294   0.54700   0.79372   0.00000  Uiso   1.00
H179   H     0.07406   0.52706   0.79372   0.00000  Uiso   1.00
H180   H     0.45300   0.92594   0.79372   0.00000  Uiso   1.00
C181   C     0.25810   0.51620   0.50000   0.00000  Uiso   1.00
C182   C     0.21406   0.42812   0.50000   0.00000  Uiso   1.00
H183   H     0.27473   0.54946   0.50000   0.00000  Uiso   1.00
H184   H     0.19743   0.39487   0.50000   0.00000  Uiso   1.00
C185   C     0.48380   0.74190   0.50000   0.00000  Uiso   1.00
C186   C     0.57188   0.78594   0.50000   0.00000  Uiso   1.00
H187   H     0.45054   0.72527   0.50000   0.00000  Uiso   1.00
H188   H     0.60513   0.80257   0.50000   0.00000  Uiso   1.00
C189   C     0.25810   0.74190   0.50000   0.00000  Uiso   1.00
C190   C     0.21406   0.78594   0.50000   0.00000  Uiso   1.00
H191   H     0.27473   0.72527   0.50000   0.00000  Uiso   1.00
H192   H     0.19743   0.80257   0.50000   0.00000  Uiso   1.00
C193   C     0.74190   0.48380   0.50000   0.00000  Uiso   1.00
C194   C     0.78594   0.57188   0.50000   0.00000  Uiso   1.00
H195   H     0.72527   0.45054   0.50000   0.00000  Uiso   1.00
H196   H     0.80257   0.60513   0.50000   0.00000  Uiso   1.00
C197   C     0.51620   0.25810   0.50000   0.00000  Uiso   1.00
C198   C     0.42812   0.21406   0.50000   0.00000  Uiso   1.00
H199   H     0.54946   0.27473   0.50000   0.00000  Uiso   1.00
H200   H     0.39487   0.19743   0.50000   0.00000  Uiso   1.00
C201   C     0.74190   0.25810   0.50000   0.00000  Uiso   1.00
C202   C     0.78594   0.21406   0.50000   0.00000  Uiso   1.00
H203   H     0.72527   0.27473   0.50000   0.00000  Uiso   1.00
H204   H     0.80257   0.19743   0.50000   0.00000  Uiso   1.00
C205   C     0.51868   0.51868   0.50000   0.00000  Uiso   1.00
C206   C     0.48132  -0.00000   0.50000   0.00000  Uiso   1.00
C207   C     0.00000   0.48132   0.50000   0.00000  Uiso   1.00
C208   C     0.48132   0.48132   0.50000   0.00000  Uiso   1.00
C209   C     0.51868   0.00000   0.50000   0.00000  Uiso   1.00
C210   C     0.00000   0.51868   0.50000   0.00000  Uiso   1.00
loop_
_geom_bond_atom_site_label_1
_geom_bond_atom_site_label_2
_geom_bond_distance
_geom_bond_site_symmetry_2
_ccdc_geom_bond_type
C1     C13     1.409   .     S
C1     C61     1.396   .     D
C1     C208    1.508   .     S
C2     C14     1.409   .     D
C2     C62     1.396   .     S
C2     C209    1.508   1_565 S
C3     C15     1.409   .     D
C3     C63     1.396   .     S
C3     C210    1.508   .     S
C4     C16     1.409   .     S
C4     C64     1.396   .     D
C4     C205    1.508   .     S
C5     C17     1.409   .     D
C5     C65     1.396   .     S
C5     C206    1.508   .     S
C6     C18     1.409   .     D
C6     C66     1.396   .     S
C6     C207    1.508   1_655 S
C7     C19     1.409   .     D
C7     C67     1.396   .     S
C7     C208    1.508   .     S
C8     C20     1.409   .     D
C8     C68     1.396   .     S
C8     C210    1.508   1_655 S
C9     C21     1.409   .     D
C9     C69     1.396   .     S
C9     C209    1.508   .     S
C10    C22     1.409   .     D
C10    C70     1.396   .     S
C10    C205    1.508   .     S
C11    C23     1.409   .     D
C11    C71     1.396   .     S
C11    C207    1.508   .     S
C12    C24     1.409   .     D
C12    C72     1.396   .     S
C12    C206    1.508   1_565 S
C13    C25     1.390   .     D
C13    H133    1.068   .     S
C14    C26     1.390   .     S
C14    H134    1.068   .     S
C15    C27     1.390   .     S
C15    H135    1.068   .     S
C16    C28     1.390   .     D
C16    H136    1.068   .     S
C17    C29     1.390   .     S
C17    H137    1.068   .     S
C18    C30     1.390   .     S
C18    H138    1.068   .     S
C19    C31     1.390   .     S
C19    H139    1.068   .     S
C20    C32     1.390   .     S
C20    H140    1.068   .     S
C21    C33     1.390   .     S
C21    H141    1.068   .     S
C22    C34     1.390   .     S
C22    H142    1.068   .     S
C23    C35     1.390   .     S
C23    H143    1.068   .     S
C24    C36     1.390   .     S
C24    H144    1.068   .     S
C25    C37     1.393   .     S
C25    H145    1.086   .     S
C26    C38     1.393   .     D
C26    H146    1.086   .     S
C27    C39     1.393   .     D
C27    H147    1.086   .     S
C28    C40     1.393   .     S
C28    H148    1.086   .     S
C29    C41     1.393   .     D
C29    H149    1.086   .     S
C30    C42     1.393   .     D
C30    H150    1.086   .     S
C31    C43     1.393   .     D
C31    H151    1.086   .     S
C32    C44     1.393   .     D
C32    H152    1.086   .     S
C33    C45     1.393   .     D
C33    H153    1.086   .     S
C34    C46     1.393   .     D
C34    H154    1.086   .     S
C35    C47     1.393   .     D
C35    H155    1.086   .     S
C36    C48     1.393   .     D
C36    H156    1.086   .     S
C37    C49     1.395   .     D
C37    B73     1.536   .     S
C38    C50     1.395   .     S
C38    B74     1.536   .     S
C39    C51     1.395   .     S
C39    B75     1.536   .     S
C40    C52     1.395   .     D
C40    B76     1.536   .     S
C41    C53     1.395   .     S
C41    B77     1.536   .     S
C42    C54     1.395   .     S
C42    B78     1.536   .     S
C43    C55     1.395   .     S
C43    B79     1.536   .     S
C44    C56     1.395   .     S
C44    B80     1.536   .     S
C45    C57     1.395   .     S
C45    B81     1.536   .     S
C46    C58     1.395   .     S
C46    B82     1.536   .     S
C47    C59     1.395   .     S
C47    B83     1.536   .     S
C48    C60     1.395   .     S
C48    B84     1.536   .     S
C49    C61     1.388   .     S
C49    H157    1.087   .     S
C50    C62     1.388   .     D
C50    H158    1.087   .     S
C51    C63     1.388   .     D
C51    H159    1.087   .     S
C52    C64     1.388   .     S
C52    H160    1.087   .     S
C53    C65     1.388   .     D
C53    H161    1.087   .     S
C54    C66     1.388   .     D
C54    H162    1.087   .     S
C55    C67     1.388   .     D
C55    H163    1.087   .     S
C56    C68     1.388   .     D
C56    H164    1.087   .     S
C57    C69     1.388   .     D
C57    H165    1.087   .     S
C58    C70     1.388   .     D
C58    H166    1.087   .     S
C59    C71     1.388   .     D
C59    H167    1.087   .     S
C60    C72     1.388   .     D
C60    H168    1.087   .     S
C61    H169    1.054   .     S
C62    H170    1.054   .     S
C63    H171    1.054   .     S
C64    H172    1.054   .     S
C65    H173    1.054   .     S
C66    H174    1.054   .     S
C67    H175    1.054   .     S
C68    H176    1.054   .     S
C69    H177    1.054   .     S
C70    H178    1.054   .     S
C71    H179    1.054   .     S
C72    H180    1.054   .     S
B73    O85     1.462   .     S
B73    O97     1.459   .     S
B74    O86     1.462   .     S
B74    O98     1.459   .     S
B75    O87     1.462   .     S
B75    O99     1.459   .     S
B76    O88     1.462   .     S
B76    O100    1.459   .     S
B77    O89     1.462   .     S
B77    O101    1.459   .     S
B78    O90     1.462   .     S
B78    O102    1.459   .     S
B79    O91     1.462   .     S
B79    O103    1.459   .     S
B80    O92     1.462   .     S
B80    O104    1.459   .     S
B81    O93     1.462   .     S
B81    O105    1.459   .     S
B82    O94     1.462   .     S
B82    O106    1.459   .     S
B83    O95     1.462   .     S
B83    O107    1.459   .     S
B84    O96     1.462   .     S
B84    O108    1.459   .     S
O85    C109    1.376   .     S
O86    C110    1.376   .     S
O87    C111    1.376   .     S
O88    C112    1.376   .     S
O89    C113    1.376   .     S
O90    C114    1.376   .     S
O91    C115    1.376   .     S
O92    C116    1.376   .     S
O93    C117    1.376   .     S
O94    C118    1.376   .     S
O95    C119    1.376   .     S
O96    C120    1.376   .     S
O97    C126    1.370   .     S
O98    C124    1.370   .     S
O99    C125    1.370   .     S
O100   C123    1.370   .     S
O101   C121    1.370   .     S
O102   C122    1.370   .     S
O103   C132    1.370   .     S
O104   C130    1.370   .     S
O105   C131    1.370   .     S
O106   C129    1.370   .     S
O107   C127    1.370   .     S
O108   C128    1.370   .     S
C109   C126    1.390   .     S
C109   C182    1.392   .     D
C110   C124    1.390   .     S
C110   C186    1.392   .     D
C111   C125    1.390   .     D
C111   C190    1.392   .     S
C112   C123    1.390   .     D
C112   C194    1.392   .     S
C113   C121    1.390   .     D
C113   C198    1.392   .     S
C114   C122    1.390   .     S
C114   C202    1.392   .     D
C115   C132    1.390   .     S
C115   C198    1.392   .     D
C116   C130    1.390   .     S
C116   C194    1.392   .     D
C117   C131    1.390   .     D
C117   C202    1.392   .     S
C118   C129    1.390   .     D
C118   C186    1.392   .     S
C119   C127    1.390   .     D
C119   C182    1.392   .     S
C120   C128    1.390   .     S
C120   C190    1.392   .     D
C121   C197    1.386   .     S
C122   C201    1.386   .     D
C123   C193    1.386   .     S
C124   C185    1.386   .     D
C125   C189    1.386   .     S
C126   C181    1.386   .     D
C127   C181    1.386   .     S
C128   C189    1.386   .     D
C129   C185    1.386   .     S
C130   C193    1.386   .     D
C131   C201    1.386   .     S
C132   C197    1.386   .     D
C181   H183    1.079   .     S
C182   H184    1.079   .     S
C185   H187    1.079   .     S
C186   H188    1.079   .     S
C189   H191    1.079   .     S
C190   H192    1.079   .     S
C193   H195    1.079   .     S
C194   H196    1.079   .     S
C197   H199    1.079   .     S
C198   H200    1.079   .     S
C201   H203    1.079   .     S
C202   H204    1.079   .     S
C205   C208    1.400   .     D
C206   C12     1.508   1_545 S
C206   C209    1.400   .     D
C207   C6      1.508   1_455 S
C207   C210    1.400   .     D
C209   C2      1.508   1_545 S
C210   C8      1.508   1_455 S
