data_546
_audit_creation_date              2023-09-08
_audit_creation_method            'Materials Studio'
_symmetry_space_group_name_H-M    'P1'
_symmetry_Int_Tables_number       1
_symmetry_cell_setting            triclinic
loop_
_symmetry_equiv_pos_as_xyz
  x,y,z
_cell_length_a                    31.9982
_cell_length_b                    31.5291
_cell_length_c                    4.2840
_cell_angle_alpha                 90.4039
_cell_angle_beta                  89.9188
_cell_angle_gamma                 89.9188
loop_
_atom_site_label
_atom_site_type_symbol
_atom_site_fract_x
_atom_site_fract_y
_atom_site_fract_z
_atom_site_U_iso_or_equiv
_atom_site_adp_type
_atom_site_occupancy
H1     H     0.15384   0.28197   0.01823   0.00000  Uiso   1.00
H2     H     0.14427   0.11251   0.04111   0.00000  Uiso   1.00
H3     H     0.19835   0.05418   0.07047   0.00000  Uiso   1.00
H4     H     0.42210   0.09479   0.07092   0.00000  Uiso   1.00
H5     H     0.43176   0.26400   0.05466   0.00000  Uiso   1.00
H6     H     0.37757   0.32230   0.04919   0.00000  Uiso   1.00
H7     H     0.26137   0.16835   0.04157   0.00000  Uiso   1.00
H8     H     0.31483   0.20791   0.02860   0.00000  Uiso   1.00
H9     H     0.13546   0.14962   0.50352   0.00000  Uiso   1.00
H10    H     0.06202   0.13830   0.50020   0.00000  Uiso   1.00
H11    H     0.44412   0.22636   0.50020   0.00000  Uiso   1.00
H12    H     0.51825   0.23278   0.48725   0.00000  Uiso   1.00
H13    H     0.24944   0.35022   0.32823   0.00000  Uiso   1.00
H14    H     0.32793   0.03306   0.41585   0.00000  Uiso   1.00
H15    H     0.33278   0.95902   0.37377   0.00000  Uiso   1.00
H16    H     0.21389   0.33095  -0.10445   0.00000  Uiso   1.00
H17    H     0.36260   0.04510  -0.04390   0.00000  Uiso   1.00
H18    H     0.12093   0.24336  -0.24034   0.00000  Uiso   1.00
H19    H     0.04729   0.23819  -0.18568   0.00000  Uiso   1.00
H20    H     0.45096   0.13195  -0.24447   0.00000  Uiso   1.00
H21    H     0.52504   0.13188  -0.19554   0.00000  Uiso   1.00
H22    H     0.34476   0.33911  -0.39938   0.00000  Uiso   1.00
H23    H     0.35264   0.41371  -0.40244   0.00000  Uiso   1.00
H24    H     0.23337   0.02978  -0.32620   0.00000  Uiso   1.00
H25    H     0.23229   0.95521  -0.31131   0.00000  Uiso   1.00
H26    H     0.25161   0.42481   0.26895   0.00000  Uiso   1.00
H27    H     0.34430   0.54306   0.28013   0.00000  Uiso   1.00
H28    H     0.35014   0.61713   0.36396   0.00000  Uiso   1.00
H29    H     0.34350   0.74028   0.44985   0.00000  Uiso   1.00
H30    H     0.41562   0.75757   0.44898   0.00000  Uiso   1.00
H31    H     0.23021   0.75451   0.47406   0.00000  Uiso   1.00
H32    H     0.23499   0.63408   0.44125   0.00000  Uiso   1.00
H33    H     0.23052   0.82942   0.46436   0.00000  Uiso   1.00
H34    H     0.16149   0.62176   0.43070   0.00000  Uiso   1.00
H35    H     0.23946   0.56221  -0.34017   0.00000  Uiso   1.00
H36    H     0.24844   0.63619  -0.29590   0.00000  Uiso   1.00
H37    H     0.36696   0.64290  -0.24766   0.00000  Uiso   1.00
H38    H     0.43954   0.65600  -0.19967   0.00000  Uiso   1.00
H39    H     0.33179   0.75318  -0.20289   0.00000  Uiso   1.00
H40    H     0.21872   0.73622  -0.22574   0.00000  Uiso   1.00
H41    H     0.33551   0.82803  -0.16987   0.00000  Uiso   1.00
H42    H     0.14505   0.72685  -0.19906   0.00000  Uiso   1.00
H43    H     0.93614   0.61434   0.01823   0.00000  Uiso   1.00
H44    H     0.94584   0.78379   0.04111   0.00000  Uiso   1.00
H45    H     0.89180   0.84216   0.07047   0.00000  Uiso   1.00
H46    H     0.66802   0.80172   0.07092   0.00000  Uiso   1.00
H47    H     0.65823   0.63251   0.05466   0.00000  Uiso   1.00
H48    H     0.71238   0.57417   0.04919   0.00000  Uiso   1.00
H49    H     0.82869   0.72804   0.04157   0.00000  Uiso   1.00
H50    H     0.77521   0.68851   0.02860   0.00000  Uiso   1.00
H51    H     0.95462   0.74667   0.50352   0.00000  Uiso   1.00
H52    H     0.02397   0.75669   0.50020   0.00000  Uiso   1.00
H53    H     0.64591   0.67016   0.50020   0.00000  Uiso   1.00
H54    H     0.57177   0.66380   0.48725   0.00000  Uiso   1.00
H55    H     0.84049   0.54616   0.32823   0.00000  Uiso   1.00
H56    H     0.76224   0.86337   0.41585   0.00000  Uiso   1.00
H57    H     0.75476   0.93781   0.37377   0.00000  Uiso   1.00
H58    H     0.87605   0.56540  -0.10445   0.00000  Uiso   1.00
H59    H     0.72756   0.85137  -0.04390   0.00000  Uiso   1.00
H60    H     0.96908   0.65292  -0.24034   0.00000  Uiso   1.00
H61    H     0.03862   0.65679  -0.18568   0.00000  Uiso   1.00
H62    H     0.63914   0.76458  -0.24447   0.00000  Uiso   1.00
H63    H     0.56505   0.76470  -0.19554   0.00000  Uiso   1.00
H64    H     0.74518   0.55733  -0.39938   0.00000  Uiso   1.00
H65    H     0.73725   0.48275  -0.40244   0.00000  Uiso   1.00
H66    H     0.85680   0.86658  -0.32620   0.00000  Uiso   1.00
H67    H     0.85526   0.94155  -0.31131   0.00000  Uiso   1.00
H68    H     0.74548   0.35342   0.28013   0.00000  Uiso   1.00
H69    H     0.73959   0.27935   0.36396   0.00000  Uiso   1.00
H70    H     0.74614   0.15619   0.44985   0.00000  Uiso   1.00
H71    H     0.67401   0.13896   0.44898   0.00000  Uiso   1.00
H72    H     0.85942   0.14187   0.47406   0.00000  Uiso   1.00
H73    H     0.85473   0.26231   0.44125   0.00000  Uiso   1.00
H74    H     0.85905   0.06697   0.46436   0.00000  Uiso   1.00
H75    H     0.92824   0.27457   0.43070   0.00000  Uiso   1.00
H76    H     0.85031   0.33418  -0.34017   0.00000  Uiso   1.00
H77    H     0.84127   0.26021  -0.29590   0.00000  Uiso   1.00
H78    H     0.72275   0.25359  -0.24766   0.00000  Uiso   1.00
H79    H     0.65016   0.24054  -0.19967   0.00000  Uiso   1.00
H80    H     0.75784   0.14328  -0.20289   0.00000  Uiso   1.00
H81    H     0.87092   0.16016  -0.22574   0.00000  Uiso   1.00
H82    H     0.75407   0.06844  -0.16987   0.00000  Uiso   1.00
H83    H     0.94460   0.16947  -0.19906   0.00000  Uiso   1.00
C84    C     0.18572   0.27282   0.00520   0.00000  Uiso   1.00
C85    C     0.20310   0.23205   0.04169   0.00000  Uiso   1.00
C86    C     0.18016   0.19547   0.07265   0.00000  Uiso   1.00
C87    C     0.19802   0.15578   0.05795   0.00000  Uiso   1.00
C88    C     0.17703   0.11744   0.05333   0.00000  Uiso   1.00
C89    C     0.20544   0.08670   0.05769   0.00000  Uiso   1.00
C90    C     0.24492   0.10489   0.04413   0.00000  Uiso   1.00
C91    C     0.39025   0.10382   0.04849   0.00000  Uiso   1.00
C92    C     0.32162   0.10159   0.01341   0.00000  Uiso   1.00
C93    C     0.39573   0.18120   0.08326   0.00000  Uiso   1.00
C94    C     0.37802   0.22082   0.06021   0.00000  Uiso   1.00
C95    C     0.39896   0.25911   0.05430   0.00000  Uiso   1.00
C96    C     0.37047   0.28975   0.04123   0.00000  Uiso   1.00
C97    C     0.33106   0.27142   0.01946   0.00000  Uiso   1.00
C98    C     0.28242   0.08347   0.02447   0.00000  Uiso   1.00
C99    C     0.37270   0.14467   0.06624   0.00000  Uiso   1.00
C100   C     0.13520   0.19617   0.11249   0.00000  Uiso   1.00
C101   C     0.11672   0.16783   0.33154   0.00000  Uiso   1.00
C102   C     0.07492   0.16186   0.33609   0.00000  Uiso   1.00
C103   C     0.04927   0.18677   0.14077   0.00000  Uiso   1.00
C104   C     0.44074   0.17950   0.11299   0.00000  Uiso   1.00
C105   C     0.46130   0.20693   0.32673   0.00000  Uiso   1.00
C106   C     0.50343   0.21003   0.32643   0.00000  Uiso   1.00
C107   C     0.52696   0.18312   0.13207   0.00000  Uiso   1.00
C108   C     0.27068   0.36353   0.14666   0.00000  Uiso   1.00
C109   C     0.27239   0.40591   0.11985   0.00000  Uiso   1.00
C110   C     0.28122   0.03805   0.03028   0.00000  Uiso   1.00
C111   C     0.30893   0.01651   0.23538   0.00000  Uiso   1.00
C112   C     0.31007   0.97467   0.21780   0.00000  Uiso   1.00
C113   C     0.28355   0.95194   0.01384   0.00000  Uiso   1.00
C114   C     0.25437   0.27476  -0.00794   0.00000  Uiso   1.00
C115   C     0.21704   0.29860  -0.04043   0.00000  Uiso   1.00
C116   C     0.35906   0.07768   0.00943   0.00000  Uiso   1.00
C117   C     0.29364   0.29275  -0.00318   0.00000  Uiso   1.00
C118   C     0.10883   0.22174  -0.05576   0.00000  Uiso   1.00
C119   C     0.06671   0.21847  -0.03079   0.00000  Uiso   1.00
C120   C     0.46494   0.15249  -0.06038   0.00000  Uiso   1.00
C121   C     0.50720   0.15281  -0.03916   0.00000  Uiso   1.00
C122   C     0.29644   0.33807  -0.02641   0.00000  Uiso   1.00
C123   C     0.32543   0.35740  -0.23303   0.00000  Uiso   1.00
C124   C     0.32971   0.39968  -0.23971   0.00000  Uiso   1.00
C125   C     0.25453   0.01470  -0.15246   0.00000  Uiso   1.00
C126   C     0.25297   0.97253  -0.14927   0.00000  Uiso   1.00
C127   C     0.30235   0.42456  -0.06217   0.00000  Uiso   1.00
C128   C     0.10330   0.67111   0.12361   0.00000  Uiso   1.00
C129   C     0.36368   0.72297   0.28339   0.00000  Uiso   1.00
C130   C     0.40498   0.73226   0.29133   0.00000  Uiso   1.00
C131   C     0.43326   0.70822   0.11523   0.00000  Uiso   1.00
C132   C     0.28175   0.74741   0.13583   0.00000  Uiso   1.00
C133   C     0.25298   0.77018   0.31948   0.00000  Uiso   1.00
C134   C     0.21587   0.65359   0.28160   0.00000  Uiso   1.00
C135   C     0.25335   0.81266   0.31793   0.00000  Uiso   1.00
C136   C     0.17405   0.64699   0.28211   0.00000  Uiso   1.00
C137   C     0.28359   0.83417   0.14303   0.00000  Uiso   1.00
C138   C     0.29071   0.54701  -0.01898   0.00000  Uiso   1.00
C139   C     0.26381   0.57420  -0.17937   0.00000  Uiso   1.00
C140   C     0.32267   0.56361   0.17169   0.00000  Uiso   1.00
C141   C     0.26836   0.61625  -0.14739   0.00000  Uiso   1.00
C142   C     0.32616   0.60561   0.21439   0.00000  Uiso   1.00
C143   C     0.29864   0.63303   0.06137   0.00000  Uiso   1.00
C144   C     0.30750   0.67674   0.10303   0.00000  Uiso   1.00
C145   C     0.34833   0.69088   0.10070   0.00000  Uiso   1.00
C146   C     0.27347   0.70432   0.12385   0.00000  Uiso   1.00
C147   C     0.37696   0.66747  -0.07970   0.00000  Uiso   1.00
C148   C     0.41829   0.67526  -0.05748   0.00000  Uiso   1.00
C149   C     0.23315   0.68604   0.11521   0.00000  Uiso   1.00
C150   C     0.31082   0.76927  -0.03465   0.00000  Uiso   1.00
C151   C     0.20661   0.71155  -0.06817   0.00000  Uiso   1.00
C152   C     0.31235   0.81170  -0.02431   0.00000  Uiso   1.00
C153   C     0.16488   0.70599  -0.05724   0.00000  Uiso   1.00
C154   C     0.14769   0.67366   0.12693   0.00000  Uiso   1.00
C155   C     0.28471   0.50272  -0.04609   0.00000  Uiso   1.00
C156   C     0.47794   0.70953   0.10253   0.00000  Uiso   1.00
C157   C     0.27885   0.87849   0.12418   0.00000  Uiso   1.00
C158   C     0.90427   0.62350   0.00520   0.00000  Uiso   1.00
C159   C     0.88692   0.66429   0.04169   0.00000  Uiso   1.00
C160   C     0.90989   0.70085   0.07265   0.00000  Uiso   1.00
C161   C     0.89206   0.74055   0.05795   0.00000  Uiso   1.00
C162   C     0.91307   0.77888   0.05333   0.00000  Uiso   1.00
C163   C     0.88469   0.80965   0.05769   0.00000  Uiso   1.00
C164   C     0.84519   0.79149   0.04413   0.00000  Uiso   1.00
C165   C     0.69987   0.79266   0.04849   0.00000  Uiso   1.00
C166   C     0.76850   0.79484   0.01341   0.00000  Uiso   1.00
C167   C     0.69432   0.71529   0.08326   0.00000  Uiso   1.00
C168   C     0.71201   0.67566   0.06021   0.00000  Uiso   1.00
C169   C     0.69105   0.63737   0.05430   0.00000  Uiso   1.00
C170   C     0.71950   0.60672   0.04123   0.00000  Uiso   1.00
C171   C     0.75893   0.62502   0.01946   0.00000  Uiso   1.00
C172   C     0.80771   0.81293   0.02447   0.00000  Uiso   1.00
C173   C     0.71738   0.75179   0.06624   0.00000  Uiso   1.00
C174   C     0.95485   0.70012   0.11249   0.00000  Uiso   1.00
C175   C     0.97334   0.72844   0.33154   0.00000  Uiso   1.00
C176   C     0.01105   0.73315   0.33609   0.00000  Uiso   1.00
C177   C     0.03668   0.70822   0.14077   0.00000  Uiso   1.00
C178   C     0.64931   0.71702   0.11299   0.00000  Uiso   1.00
C179   C     0.62874   0.68961   0.32674   0.00000  Uiso   1.00
C180   C     0.58661   0.68654   0.32643   0.00000  Uiso   1.00
C181   C     0.56310   0.71347   0.13207   0.00000  Uiso   1.00
C182   C     0.81924   0.53287   0.14666   0.00000  Uiso   1.00
C183   C     0.81750   0.49049   0.11985   0.00000  Uiso   1.00
C184   C     0.80895   0.85835   0.03027   0.00000  Uiso   1.00
C185   C     0.78125   0.87992   0.23538   0.00000  Uiso   1.00
C186   C     0.77747   0.92214   0.21780   0.00000  Uiso   1.00
C187   C     0.80400   0.94485   0.01384   0.00000  Uiso   1.00
C188   C     0.83562   0.62162  -0.00794   0.00000  Uiso   1.00
C189   C     0.87293   0.59775  -0.04043   0.00000  Uiso   1.00
C190   C     0.73107   0.81878   0.00943   0.00000  Uiso   1.00
C191   C     0.79634   0.60366  -0.00318   0.00000  Uiso   1.00
C192   C     0.98120   0.67453  -0.05576   0.00000  Uiso   1.00
C193   C     0.01921   0.67653  -0.03079   0.00000  Uiso   1.00
C194   C     0.62513   0.74405  -0.06038   0.00000  Uiso   1.00
C195   C     0.58288   0.74376  -0.03916   0.00000  Uiso   1.00
C196   C     0.79350   0.55834  -0.02641   0.00000  Uiso   1.00
C197   C     0.76449   0.53903  -0.23303   0.00000  Uiso   1.00
C198   C     0.76018   0.49676  -0.23971   0.00000  Uiso   1.00
C199   C     0.83565   0.88168  -0.15246   0.00000  Uiso   1.00
C200   C     0.83456   0.92424  -0.14927   0.00000  Uiso   1.00
C201   C     0.78753   0.47186  -0.06217   0.00000  Uiso   1.00
C202   C     0.98639   0.22518   0.12361   0.00000  Uiso   1.00
C203   C     0.72597   0.17352   0.28339   0.00000  Uiso   1.00
C204   C     0.68466   0.16426   0.29134   0.00000  Uiso   1.00
C205   C     0.65641   0.18831   0.11523   0.00000  Uiso   1.00
C206   C     0.80788   0.14901   0.13583   0.00000  Uiso   1.00
C207   C     0.83663   0.12623   0.31948   0.00000  Uiso   1.00
C208   C     0.87384   0.24278   0.28160   0.00000  Uiso   1.00
C209   C     0.83623   0.08375   0.31793   0.00000  Uiso   1.00
C210   C     0.91566   0.24935   0.28211   0.00000  Uiso   1.00
C211   C     0.80598   0.06225   0.14303   0.00000  Uiso   1.00
C212   C     0.79907   0.34942  -0.01898   0.00000  Uiso   1.00
C213   C     0.82595   0.32221  -0.17937   0.00000  Uiso   1.00
C214   C     0.76710   0.33285   0.17169   0.00000  Uiso   1.00
C215   C     0.82137   0.28016  -0.14739   0.00000  Uiso   1.00
C216   C     0.76358   0.29085   0.21439   0.00000  Uiso   1.00
C217   C     0.79108   0.26341   0.06137   0.00000  Uiso   1.00
C218   C     0.78219   0.21970   0.10303   0.00000  Uiso   1.00
C219   C     0.74135   0.20560   0.10070   0.00000  Uiso   1.00
C220   C     0.81620   0.19210   0.12385   0.00000  Uiso   1.00
C221   C     0.71274   0.22902  -0.07970   0.00000  Uiso   1.00
C222   C     0.67139   0.22127  -0.05748   0.00000  Uiso   1.00
C223   C     0.85652   0.21035   0.11521   0.00000  Uiso   1.00
C224   C     0.77880   0.12718  -0.03465   0.00000  Uiso   1.00
C225   C     0.88305   0.18481  -0.06817   0.00000  Uiso   1.00
C226   C     0.77724   0.08475  -0.02431   0.00000  Uiso   1.00
C227   C     0.92478   0.19035  -0.05724   0.00000  Uiso   1.00
C228   C     0.94199   0.22266   0.12693   0.00000  Uiso   1.00
C229   C     0.80511   0.39371  -0.04609   0.00000  Uiso   1.00
C230   C     0.61173   0.18704   0.10253   0.00000  Uiso   1.00
C231   C     0.81068   0.01793   0.12418   0.00000  Uiso   1.00
N232   N     0.24460   0.23455   0.02418   0.00000  Uiso   1.00
N233   N     0.23876   0.14650   0.04564   0.00000  Uiso   1.00
N234   N     0.33122   0.14201   0.04683   0.00000  Uiso   1.00
N235   N     0.33730   0.22988   0.03570   0.00000  Uiso   1.00
N236   N     0.28627   0.90921   0.00409   0.00000  Uiso   1.00
N237   N     0.56962   0.18659   0.12447   0.00000  Uiso   1.00
N238   N     0.00700   0.17996   0.13443   0.00000  Uiso   1.00
N239   N     0.30687   0.46717  -0.06478   0.00000  Uiso   1.00
N240   N     0.84541   0.66182   0.02418   0.00000  Uiso   1.00
N241   N     0.85132   0.74987   0.04564   0.00000  Uiso   1.00
N242   N     0.75887   0.75443   0.04684   0.00000  Uiso   1.00
N243   N     0.75272   0.66656   0.03570   0.00000  Uiso   1.00
N244   N     0.80131   0.98759   0.00409   0.00000  Uiso   1.00
N245   N     0.52044   0.71003   0.12447   0.00000  Uiso   1.00
N246   N     0.07988   0.70465   0.13443   0.00000  Uiso   1.00
N247   N     0.78298   0.42925  -0.06478   0.00000  Uiso   1.00
H248   H     0.83953   0.47683   0.31056   0.00000  Uiso   1.00
loop_
_geom_bond_atom_site_label_1
_geom_bond_atom_site_label_2
_geom_bond_distance
_geom_bond_site_symmetry_2
_ccdc_geom_bond_type
H1     C84     1.061   .     S
H2     C88     1.061   .     S
H3     C89     1.052   .     S
H4     C91     1.062   .     S
H5     C95     1.061   .     S
H6     C96     1.052   .     S
H7     N233    1.000   .     S
H8     N235    1.000   .     S
H9     C101    1.113   .     S
H10    C102    1.106   .     S
H11    C105    1.105   .     S
H12    C106    1.100   .     S
H13    C108    1.117   .     S
H14    C111    1.112   .     S
H15    C112    1.106   .     S
H16    C115    1.063   .     S
H17    C116    1.057   .     S
H18    C118    1.117   .     S
H19    C119    1.104   .     S
H20    C120    1.112   .     S
H21    C121    1.096   .     S
H22    C123    1.102   .     S
H23    C124    1.106   .     S
H24    C125    1.115   .     S
H25    C126    1.102   .     S
H26    C109    1.095   .     S
H27    C140    1.058   .     S
H28    C142    1.063   .     S
H29    C129    1.103   .     S
H30    C130    1.097   .     S
H31    C133    1.104   .     S
H32    C134    1.108   .     S
H33    C135    1.095   .     S
H34    C136    1.099   .     S
H35    C139    1.106   .     S
H36    C141    1.101   .     S
H37    C147    1.102   .     S
H38    C148    1.093   .     S
H39    C150    1.104   .     S
H40    C151    1.104   .     S
H41    C152    1.099   .     S
H42    C153    1.100   .     S
H43    C158    1.061   .     S
H44    C162    1.061   .     S
H45    C163    1.051   .     S
H46    C165    1.062   .     S
H47    C169    1.061   .     S
H48    C170    1.052   .     S
H49    N241    1.000   .     S
H50    N243    1.000   .     S
H51    C175    1.106   .     S
H52    C176    1.100   .     S
H53    C179    1.112   .     S
H54    C180    1.105   .     S
H55    C182    1.114   .     S
H56    C185    1.116   .     S
H57    C186    1.100   .     S
H58    C189    1.059   .     S
H59    C190    1.060   .     S
H60    C192    1.111   .     S
H61    C193    1.098   .     S
H62    C194    1.117   .     S
H63    C195    1.103   .     S
H64    C197    1.108   .     S
H65    C198    1.103   .     S
H66    C199    1.110   .     S
H67    C200    1.106   .     S
H68    C214    1.053   .     S
H69    C216    1.065   .     S
H70    C203    1.109   .     S
H71    C204    1.103   .     S
H72    C207    1.101   .     S
H73    C208    1.101   .     S
H74    C209    1.101   .     S
H75    C210    1.093   .     S
H76    C213    1.108   .     S
H77    C215    1.095   .     S
H78    C221    1.108   .     S
H79    C222    1.099   .     S
H80    C224    1.110   .     S
H81    C225    1.098   .     S
H82    C226    1.096   .     S
H83    C227    1.094   .     S
C84    C85     1.410   .     S
C84    C115    1.307   .     D
C85    C86     1.375   .     D
C85    N232    1.332   .     S
C86    C87     1.376   .     S
C86    C100    1.449   .     S
C87    C88     1.384   .     D
C87    N233    1.337   .     S
C88    C89     1.328   .     S
C89    C90     1.389   .     D
C90    C98     1.378   .     S
C90    N233    1.327   .     S
C91    C99     1.406   .     S
C91    C116    1.305   .     D
C92    C98     1.380   .     D
C92    C116    1.415   .     S
C92    N234    1.318   .     S
C93    C94     1.375   .     D
C93    C99     1.370   .     S
C93    C104    1.447   .     S
C94    C95     1.382   .     S
C94    N235    1.338   .     S
C95    C96     1.329   .     D
C96    C97     1.391   .     S
C97    C117    1.376   .     D
C97    N235    1.327   .     S
C98    C110    1.433   .     S
C99    N234    1.333   .     D
C100   C101    1.428   .     D
C100   C118    1.374   .     S
C101   C102    1.351   .     S
C102   C103    1.414   .     D
C103   C119    1.364   .     S
C103   N238    1.370   .     S
C104   C105    1.418   .     D
C104   C120    1.365   .     S
C105   C106    1.352   .     S
C106   C107    1.402   .     D
C107   C121    1.358   .     S
C107   N237    1.370   .     S
C108   C109    1.343   .     S
C108   C122    1.364   .     D
C109   C127    1.371   .     D
C110   C111    1.424   .     D
C110   C125    1.371   .     S
C111   C112    1.321   1_545 S
C112   C111    1.321   1_565 S
C112   C113    1.411   .     D
C113   C126    1.369   .     S
C113   N236    1.350   .     S
C114   C115    1.418   .     S
C114   C117    1.380   .     S
C114   N232    1.314   .     D
C117   C122    1.436   .     S
C118   C119    1.356   .     D
C120   C121    1.355   .     D
C122   C123    1.422   .     S
C123   C124    1.341   .     D
C124   C127    1.396   .     S
C125   C126    1.331   1_545 D
C126   C125    1.331   1_565 D
C127   N239    1.351   .     S
C128   C154    1.423   .     S
C128   N246    1.296   .     T
C129   C130    1.354   .     D
C129   C145    1.367   .     S
C130   C131    1.396   .     S
C131   C148    1.360   .     D
C131   C156    1.431   .     S
C132   C133    1.403   .     S
C132   C146    1.385   .     D
C132   C150    1.371   .     S
C133   C135    1.339   .     D
C134   C136    1.355   .     S
C134   C149    1.368   .     D
C135   C137    1.402   .     S
C136   C154    1.367   .     D
C137   C152    1.361   .     S
C137   C157    1.408   .     D
C138   C139    1.398   .     S
C138   C140    1.409   .     S
C138   C155    1.414   .     D
C139   C141    1.340   .     D
C140   C142    1.340   .     D
C141   C143    1.420   .     S
C142   C143    1.400   .     S
C143   C144    1.418   .     D
C144   C145    1.381   .     S
C144   C146    1.395   .     S
C145   C147    1.403   .     D
C146   C149    1.414   .     S
C147   C148    1.349   .     S
C149   C151    1.412   .     S
C150   C152    1.339   .     D
C151   C153    1.348   .     D
C153   C154    1.406   .     S
C155   N239    1.327   .     D
C156   N245    1.363   .     T
C157   N236    1.125   .     D
C158   C159    1.408   .     S
C158   C189    1.305   .     D
C159   C160    1.374   .     S
C159   N240    1.333   .     D
C160   C161    1.377   .     D
C160   C174    1.449   .     S
C161   C162    1.384   .     S
C161   N241    1.337   .     S
C162   C163    1.328   .     D
C163   C164    1.389   .     S
C164   C172    1.379   .     D
C164   N241    1.327   .     S
C165   C173    1.407   .     S
C165   C190    1.306   .     D
C166   C172    1.380   .     S
C166   C190    1.415   .     S
C166   N242    1.320   .     D
C167   C168    1.374   .     S
C167   C173    1.370   .     D
C167   C178    1.447   .     S
C168   C169    1.382   .     D
C168   N243    1.337   .     S
C169   C170    1.328   .     S
C170   C171    1.391   .     D
C171   C191    1.375   .     S
C171   N243    1.326   .     S
C172   C184    1.433   .     S
C173   N242    1.333   .     S
C174   C175    1.421   .     D
C174   C192    1.367   .     S
C175   C176    1.216   1_655 S
C176   C175    1.216   1_455 S
C176   C177    1.406   .     D
C177   C193    1.358   .     S
C177   N246    1.387   .     S
C178   C179    1.425   .     D
C178   C194    1.373   .     S
C179   C180    1.352   .     S
C180   C181    1.411   .     D
C181   C195    1.364   .     S
C181   N245    1.370   .     S
C182   C183    1.341   .     S
C182   C196    1.372   .     D
C183   C201    1.368   .     D
C183   H248    1.164   .     S
C184   C185    1.417   .     D
C184   C199    1.375   .     S
C185   C186    1.339   .     S
C186   C187    1.416   .     D
C187   C200    1.363   .     S
C187   N244    1.351   .     S
C188   C189    1.416   .     S
C188   C191    1.380   .     D
C188   N240    1.312   .     S
C191   C196    1.435   .     S
C192   C193    1.223   1_655 D
C193   C192    1.223   1_455 D
C194   C195    1.355   .     D
C196   C197    1.418   .     S
C197   C198    1.340   .     D
C198   C201    1.403   .     S
C199   C200    1.342   .     D
C201   N247    1.351   .     S
C202   C228    1.423   .     S
C202   N238    1.571   1_655 T
C203   C204    1.355   .     D
C203   C219    1.374   .     S
C204   C205    1.403   .     S
C205   C222    1.367   .     D
C205   C230    1.431   .     S
C206   C207    1.411   .     S
C206   C220    1.386   .     D
C206   C224    1.368   .     S
C207   C209    1.339   .     D
C208   C210    1.355   .     D
C208   C223    1.361   .     S
C209   C211    1.398   .     S
C210   C228    1.360   .     S
C211   C226    1.367   .     S
C211   C231    1.407   .     D
C212   C213    1.391   .     S
C212   C214    1.411   .     S
C212   C229    1.416   .     D
C213   C215    1.342   .     D
C214   C216    1.343   .     D
C215   C217    1.423   .     S
C216   C217    1.393   .     S
C217   C218    1.420   .     D
C218   C219    1.381   .     S
C218   C220    1.396   .     S
C219   C221    1.410   .     D
C220   C223    1.414   .     S
C221   C222    1.349   .     S
C223   C225    1.405   .     D
C224   C226    1.340   .     D
C225   C227    1.348   .     S
C227   C228    1.398   .     D
C229   N247    1.328   .     D
C230   N237    1.351   .     T
C231   N244    1.124   1_545 D
N238   C202    1.571   1_455 T
N244   C231    1.124   1_565 D
