data_548
_audit_creation_date              2023-09-08
_audit_creation_method            'Materials Studio'
_symmetry_space_group_name_H-M    'P1'
_symmetry_Int_Tables_number       1
_symmetry_cell_setting            triclinic
loop_
_symmetry_equiv_pos_as_xyz
  x,y,z
_cell_length_a                    28.3805
_cell_length_b                    28.3805
_cell_length_c                    6.0482
_cell_angle_alpha                 90.0000
_cell_angle_beta                  90.0000
_cell_angle_gamma                 120.0000
loop_
_atom_site_label
_atom_site_type_symbol
_atom_site_fract_x
_atom_site_fract_y
_atom_site_fract_z
_atom_site_U_iso_or_equiv
_atom_site_adp_type
_atom_site_occupancy
C1     C     0.03923   0.88073   0.57785   0.00000  Uiso   1.00
C2     C     0.28751   0.62687  -0.49772   0.00000  Uiso   1.00
C3     C     0.17962   0.78893  -0.15172   0.00000  Uiso   1.00
C4     C     0.22337   0.78408  -0.23455   0.00000  Uiso   1.00
C5     C     0.71303   0.87830   0.26517   0.00000  Uiso   1.00
C6     C     0.76684   0.91873   0.31437   0.00000  Uiso   1.00
C7     C     0.80183   0.95580   0.15571   0.00000  Uiso   1.00
C8     C     0.78809   0.92264   0.52721   0.00000  Uiso   1.00
C9     C     0.21832   0.75881  -0.43949   0.00000  Uiso   1.00
C10    C     0.85550   0.99311   0.20411   0.00000  Uiso   1.00
C11    C     0.87658   0.99536   0.41480   0.00000  Uiso   1.00
C12    C     0.27287   0.80350  -0.12123   0.00000  Uiso   1.00
C13    C     0.96462   0.01352   0.46089   0.00000  Uiso   1.00
C14    C     0.25992   0.75242  -0.52688   0.00000  Uiso   1.00
C15    C     0.31462   0.79715  -0.20663   0.00000  Uiso   1.00
C16    C     0.30849   0.77090  -0.40926   0.00000  Uiso   1.00
O17    O     0.23531   0.58516  -0.48677   0.00000  Uiso   1.00
O18    O     0.92940   0.03261   0.45980   0.00000  Uiso   1.00
N19    N     0.70828   0.32647   0.00377   0.00000  Uiso   1.00
N20    N     0.19113   0.36683   0.03781   0.00000  Uiso   1.00
N21    N     0.68516   0.87511   0.08849   0.00000  Uiso   1.00
N22    N     0.96302   0.01420   0.95987   0.00000  Uiso   1.00
H23    H     0.18759   0.54011  -0.11475   0.00000  Uiso   1.00
H24    H     0.22531   0.36665  -0.25561   0.00000  Uiso   1.00
H25    H     0.68911   0.84410   0.38842   0.00000  Uiso   1.00
H26    H     0.78759   0.95540  -0.01326   0.00000  Uiso   1.00
H27    H     0.76217   0.89465   0.65763   0.00000  Uiso   1.00
H28    H     0.88182   0.02046   0.07318   0.00000  Uiso   1.00
H29    H     0.85698   0.96369   0.74619   0.00000  Uiso   1.00
H30    H     0.18030   0.74309  -0.53419   0.00000  Uiso   1.00
H31    H     0.27966   0.82420   0.03886   0.00000  Uiso   1.00
H32    H     0.25437   0.73176  -0.68672   0.00000  Uiso   1.00
C33    C     0.11927   0.15850   0.57785   0.00000  Uiso   1.00
C34    C     0.37313   0.66064  -0.49772   0.00000  Uiso   1.00
C35    C     0.21107   0.39069  -0.15172   0.00000  Uiso   1.00
C36    C     0.21592   0.43929  -0.23455   0.00000  Uiso   1.00
C37    C     0.12170   0.83473   0.26517   0.00000  Uiso   1.00
C38    C     0.08127   0.84811   0.31437   0.00000  Uiso   1.00
C39    C     0.04420   0.84603   0.15571   0.00000  Uiso   1.00
C40    C     0.07736   0.86545   0.52721   0.00000  Uiso   1.00
C41    C     0.24119   0.45951  -0.43949   0.00000  Uiso   1.00
C42    C     0.00689   0.86239   0.20411   0.00000  Uiso   1.00
C43    C     0.00464   0.88122   0.41480   0.00000  Uiso   1.00
C44    C     0.19650   0.46937  -0.12123   0.00000  Uiso   1.00
C45    C     0.98648   0.95110   0.46089   0.00000  Uiso   1.00
C46    C     0.24758   0.50750  -0.52688   0.00000  Uiso   1.00
C47    C     0.20285   0.51747  -0.20663   0.00000  Uiso   1.00
C48    C     0.22910   0.53759  -0.40926   0.00000  Uiso   1.00
O49    O     0.41484   0.65015  -0.48677   0.00000  Uiso   1.00
O50    O     0.96739   0.89679   0.45980   0.00000  Uiso   1.00
N51    N     0.67353   0.38181   0.00377   0.00000  Uiso   1.00
N52    N     0.63317   0.82430   0.03781   0.00000  Uiso   1.00
N53    N     0.12489   0.81005   0.08849   0.00000  Uiso   1.00
N54    N     0.98580   0.94882   0.95987   0.00000  Uiso   1.00
H55    H     0.45989   0.64748  -0.11475   0.00000  Uiso   1.00
H56    H     0.63335   0.85866  -0.25561   0.00000  Uiso   1.00
H57    H     0.15590   0.84501   0.38842   0.00000  Uiso   1.00
H58    H     0.04460   0.83219  -0.01326   0.00000  Uiso   1.00
H59    H     0.10535   0.86752   0.65763   0.00000  Uiso   1.00
H60    H     0.97954   0.86136   0.07318   0.00000  Uiso   1.00
H61    H     0.03631   0.89329   0.74619   0.00000  Uiso   1.00
H62    H     0.25691   0.43721  -0.53419   0.00000  Uiso   1.00
H63    H     0.17580   0.45546   0.03886   0.00000  Uiso   1.00
H64    H     0.26824   0.52261  -0.68672   0.00000  Uiso   1.00
C65    C     0.84150   0.96077   0.57785   0.00000  Uiso   1.00
C66    C     0.33936   0.71249  -0.49772   0.00000  Uiso   1.00
C67    C     0.60931   0.82038  -0.15172   0.00000  Uiso   1.00
C68    C     0.56071   0.77663  -0.23455   0.00000  Uiso   1.00
C69    C     0.16527   0.28697   0.26517   0.00000  Uiso   1.00
C70    C     0.15189   0.23316   0.31437   0.00000  Uiso   1.00
C71    C     0.15397   0.19817   0.15571   0.00000  Uiso   1.00
C72    C     0.13455   0.21191   0.52721   0.00000  Uiso   1.00
C73    C     0.54049   0.78168  -0.43949   0.00000  Uiso   1.00
C74    C     0.13761   0.14450   0.20411   0.00000  Uiso   1.00
C75    C     0.11878   0.12342   0.41480   0.00000  Uiso   1.00
C76    C     0.53063   0.72713  -0.12123   0.00000  Uiso   1.00
C77    C     0.04890   0.03538   0.46089   0.00000  Uiso   1.00
C78    C     0.49250   0.74008  -0.52688   0.00000  Uiso   1.00
C79    C     0.48253   0.68538  -0.20663   0.00000  Uiso   1.00
C80    C     0.46241   0.69151  -0.40926   0.00000  Uiso   1.00
O81    O     0.34985   0.76469  -0.48677   0.00000  Uiso   1.00
O82    O     0.10321   0.07060   0.45980   0.00000  Uiso   1.00
N83    N     0.61819   0.29172   0.00377   0.00000  Uiso   1.00
N84    N     0.17570   0.80887   0.03781   0.00000  Uiso   1.00
N85    N     0.18995   0.31484   0.08849   0.00000  Uiso   1.00
N86    N     0.05118   0.03698   0.95987   0.00000  Uiso   1.00
H87    H     0.35252   0.81241  -0.11475   0.00000  Uiso   1.00
H88    H     0.14134   0.77469  -0.25561   0.00000  Uiso   1.00
H89    H     0.15499   0.31089   0.38842   0.00000  Uiso   1.00
H90    H     0.16781   0.21241  -0.01326   0.00000  Uiso   1.00
H91    H     0.13248   0.23783   0.65763   0.00000  Uiso   1.00
H92    H     0.13864   0.11818   0.07318   0.00000  Uiso   1.00
H93    H     0.10671   0.14302   0.74619   0.00000  Uiso   1.00
H94    H     0.56279   0.81970  -0.53419   0.00000  Uiso   1.00
H95    H     0.54454   0.72034   0.03886   0.00000  Uiso   1.00
H96    H     0.47739   0.74563  -0.68672   0.00000  Uiso   1.00
C97    C     0.96077   0.11927   1.07785   0.00000  Uiso   1.00
C98    C     0.71249   0.37313   0.00228   0.00000  Uiso   1.00
C99    C     0.82038   0.21107   0.34828   0.00000  Uiso   1.00
C100   C     0.77663   0.21592   0.26545   0.00000  Uiso   1.00
C101   C     0.28697   0.12170   0.76517   0.00000  Uiso   1.00
C102   C     0.23316   0.08127   0.81437   0.00000  Uiso   1.00
C103   C     0.19817   0.04420   0.65571   0.00000  Uiso   1.00
C104   C     0.21191   0.07736   1.02721   0.00000  Uiso   1.00
C105   C     0.78168   0.24119   0.06051   0.00000  Uiso   1.00
C106   C     0.14450   0.00689   0.70411   0.00000  Uiso   1.00
C107   C     0.12342   0.00464   0.91480   0.00000  Uiso   1.00
C108   C     0.72713   0.19650   0.37877   0.00000  Uiso   1.00
C109   C     0.03538   0.98648   0.96089   0.00000  Uiso   1.00
C110   C     0.74008   0.24758  -0.02688   0.00000  Uiso   1.00
C111   C     0.68538   0.20285   0.29337   0.00000  Uiso   1.00
C112   C     0.69151   0.22910   0.09074   0.00000  Uiso   1.00
O113   O     0.76469   0.41484   0.01323   0.00000  Uiso   1.00
O114   O     0.07060   0.96739   0.95980   0.00000  Uiso   1.00
N115   N     0.29172   0.67353  -0.49623   0.00000  Uiso   1.00
N116   N     0.80887   0.63317   0.53781   0.00000  Uiso   1.00
N117   N     0.31484   0.12489   0.58849   0.00000  Uiso   1.00
N118   N     0.03698   0.98580   0.45987   0.00000  Uiso   1.00
H119   H     0.81241   0.45989   0.38525   0.00000  Uiso   1.00
H120   H     0.77469   0.63335   0.24439   0.00000  Uiso   1.00
H121   H     0.31089   0.15590   0.88842   0.00000  Uiso   1.00
H122   H     0.21241   0.04460   0.48674   0.00000  Uiso   1.00
H123   H     0.23783   0.10535   1.15763   0.00000  Uiso   1.00
H124   H     0.11818   0.97954   0.57318   0.00000  Uiso   1.00
H125   H     0.14302   0.03631   1.24619   0.00000  Uiso   1.00
H126   H     0.81970   0.25691  -0.03419   0.00000  Uiso   1.00
H127   H     0.72034   0.17580   0.53886   0.00000  Uiso   1.00
H128   H     0.74563   0.26824  -0.18672   0.00000  Uiso   1.00
C129   C     0.88073   0.84150   1.07785   0.00000  Uiso   1.00
C130   C     0.62687   0.33936   0.00228   0.00000  Uiso   1.00
C131   C     0.78893   0.60931   0.34828   0.00000  Uiso   1.00
C132   C     0.78408   0.56071   0.26545   0.00000  Uiso   1.00
C133   C     0.87830   0.16527   0.76517   0.00000  Uiso   1.00
C134   C     0.91873   0.15189   0.81437   0.00000  Uiso   1.00
C135   C     0.95580   0.15397   0.65571   0.00000  Uiso   1.00
C136   C     0.92264   0.13455   1.02721   0.00000  Uiso   1.00
C137   C     0.75881   0.54049   0.06051   0.00000  Uiso   1.00
C138   C     0.99311   0.13761   0.70411   0.00000  Uiso   1.00
C139   C     0.99536   0.11878   0.91480   0.00000  Uiso   1.00
C140   C     0.80350   0.53063   0.37877   0.00000  Uiso   1.00
C141   C     0.01352   0.04890   0.96089   0.00000  Uiso   1.00
C142   C     0.75242   0.49250  -0.02688   0.00000  Uiso   1.00
C143   C     0.79715   0.48253   0.29337   0.00000  Uiso   1.00
C144   C     0.77090   0.46241   0.09074   0.00000  Uiso   1.00
O145   O     0.58516   0.34985   0.01323   0.00000  Uiso   1.00
O146   O     0.03261   0.10321   0.95980   0.00000  Uiso   1.00
N147   N     0.32647   0.61819  -0.49623   0.00000  Uiso   1.00
N148   N     0.36683   0.17570   0.53781   0.00000  Uiso   1.00
N149   N     0.87511   0.18995   0.58849   0.00000  Uiso   1.00
N150   N     0.01420   0.05118   0.45987   0.00000  Uiso   1.00
H151   H     0.54011   0.35252   0.38525   0.00000  Uiso   1.00
H152   H     0.36665   0.14134   0.24439   0.00000  Uiso   1.00
H153   H     0.84410   0.15499   0.88842   0.00000  Uiso   1.00
H154   H     0.95540   0.16781   0.48674   0.00000  Uiso   1.00
H155   H     0.89465   0.13248   1.15763   0.00000  Uiso   1.00
H156   H     0.02046   0.13864   0.57318   0.00000  Uiso   1.00
H157   H     0.96369   0.10671   1.24619   0.00000  Uiso   1.00
H158   H     0.74309   0.56279  -0.03419   0.00000  Uiso   1.00
H159   H     0.82420   0.54454   0.53886   0.00000  Uiso   1.00
H160   H     0.73176   0.47739  -0.18672   0.00000  Uiso   1.00
C161   C     0.15850   0.03923   1.07785   0.00000  Uiso   1.00
C162   C     0.66064   0.28751   0.00228   0.00000  Uiso   1.00
C163   C     0.39069   0.17962   0.34828   0.00000  Uiso   1.00
C164   C     0.43929   0.22337   0.26545   0.00000  Uiso   1.00
C165   C     0.83473   0.71303   0.76517   0.00000  Uiso   1.00
C166   C     0.84811   0.76684   0.81437   0.00000  Uiso   1.00
C167   C     0.84603   0.80183   0.65571   0.00000  Uiso   1.00
C168   C     0.86545   0.78809   1.02721   0.00000  Uiso   1.00
C169   C     0.45951   0.21832   0.06051   0.00000  Uiso   1.00
C170   C     0.86239   0.85550   0.70411   0.00000  Uiso   1.00
C171   C     0.88122   0.87658   0.91480   0.00000  Uiso   1.00
C172   C     0.46937   0.27287   0.37877   0.00000  Uiso   1.00
C173   C     0.95110   0.96462   0.96089   0.00000  Uiso   1.00
C174   C     0.50750   0.25992  -0.02688   0.00000  Uiso   1.00
C175   C     0.51747   0.31462   0.29337   0.00000  Uiso   1.00
C176   C     0.53759   0.30849   0.09074   0.00000  Uiso   1.00
O177   O     0.65015   0.23531   0.01323   0.00000  Uiso   1.00
O178   O     0.89679   0.92940   0.95980   0.00000  Uiso   1.00
N179   N     0.38181   0.70828  -0.49623   0.00000  Uiso   1.00
N180   N     0.82430   0.19113   0.53781   0.00000  Uiso   1.00
N181   N     0.81005   0.68516   0.58849   0.00000  Uiso   1.00
N182   N     0.94882   0.96302   0.45987   0.00000  Uiso   1.00
H183   H     0.64748   0.18759   0.38525   0.00000  Uiso   1.00
H184   H     0.85866   0.22531   0.24439   0.00000  Uiso   1.00
H185   H     0.84501   0.68911   0.88842   0.00000  Uiso   1.00
H186   H     0.83219   0.78759   0.48674   0.00000  Uiso   1.00
H187   H     0.86752   0.76217   1.15763   0.00000  Uiso   1.00
H188   H     0.86136   0.88182   0.57318   0.00000  Uiso   1.00
H189   H     0.89329   0.85698   1.24619   0.00000  Uiso   1.00
H190   H     0.43721   0.18030  -0.03419   0.00000  Uiso   1.00
H191   H     0.45546   0.27966   0.53886   0.00000  Uiso   1.00
H192   H     0.52261   0.25437  -0.18672   0.00000  Uiso   1.00
loop_
_geom_bond_atom_site_label_1
_geom_bond_atom_site_label_2
_geom_bond_distance
_geom_bond_site_symmetry_2
_ccdc_geom_bond_type
C1     C40     1.386   .     S
C1     C43     1.396   .     D
C1     H61     1.095   .     S
C2     O17     1.359   .     S
C2     N115    1.269   .     D
C2     N147    1.247   .     S
C3     C4      1.408   .     S
C3     N84     1.308   .     D
C3     H88     1.140   .     S
C4     C9      1.403   .     S
C4     C12     1.405   .     D
C5     C6      1.409   .     S
C5     N21     1.305   .     D
C5     H25     1.140   .     S
C6     C7      1.403   .     S
C6     C8      1.402   .     D
C7     C10     1.384   .     D
C7     H26     1.097   .     S
C8     H27     1.100   .     S
C8     C65     1.386   .     S
C9     C14     1.386   .     D
C9     H30     1.100   .     S
C10    C11     1.396   .     S
C10    H28     1.099   1_565 S
C11    O18     1.362   1_565 S
C11    C65     1.396   .     D
C12    C15     1.384   .     S
C12    H31     1.098   .     S
C13    O18     1.354   .     S
C13    N150    1.272   1_655 D
C13    N182    1.270   1_545 S
C14    C16     1.399   .     S
C14    H32     1.100   .     S
C15    C16     1.399   .     D
C15    H87     1.090   .     S
C16    O81     1.355   .     S
O17    C48     1.355   .     S
O18    C11     1.362   1_545 S
N19    C98     1.269   .     D
N19    C162    1.247   .     S
N20    C35     1.308   .     D
N20    N85     1.491   .     S
N21    N52     1.491   .     S
N22    C141    1.270   1_655 S
N22    C173    1.272   1_545 D
H23    C47     1.090   .     S
H24    C35     1.140   .     S
H28    C10     1.099   1_545 S
H29    C65     1.095   .     S
C33    C72     1.386   .     D
C33    C75     1.396   .     S
C33    H93     1.095   .     S
C34    O49     1.359   .     S
C34    N147    1.269   .     D
C34    N179    1.247   .     S
C35    C36     1.408   .     S
C36    C41     1.403   .     S
C36    C44     1.405   .     D
C37    C38     1.409   .     S
C37    N53     1.305   .     D
C37    H57     1.140   .     S
C38    C39     1.403   .     S
C38    C40     1.402   .     D
C39    C42     1.384   .     D
C39    H58     1.097   .     S
C40    H59     1.100   .     S
C41    C46     1.386   .     D
C41    H62     1.100   .     S
C42    C43     1.396   .     S
C42    H60     1.099   1_455 S
C43    O50     1.362   1_455 S
C44    C47     1.384   .     S
C44    H63     1.098   .     S
C45    O50     1.354   .     S
C45    N118    1.270   1_655 S
C45    N182    1.272   .     D
C46    C48     1.399   .     S
C46    H64     1.100   .     S
C47    C48     1.399   .     D
O49    C80     1.355   .     S
O50    C43     1.362   1_655 S
N51    C98     1.247   .     S
N51    C130    1.269   .     D
N52    C67     1.308   .     D
N53    N84     1.491   .     S
N54    C109    1.272   1_655 D
N54    C173    1.270   .     S
H55    C79     1.090   .     S
H56    C67     1.140   .     S
H60    C42     1.099   1_655 S
C66    O81     1.359   .     S
C66    N115    1.247   .     S
C66    N179    1.269   .     D
C67    C68     1.408   .     S
C68    C73     1.403   .     D
C68    C76     1.405   .     S
C69    C70     1.409   .     S
C69    N85     1.305   .     D
C69    H89     1.140   .     S
C70    C71     1.403   .     D
C70    C72     1.402   .     S
C71    C74     1.384   .     S
C71    H90     1.097   .     S
C72    H91     1.100   .     S
C73    C78     1.386   .     S
C73    H94     1.100   .     S
C74    C75     1.396   .     D
C74    H92     1.099   .     S
C75    O82     1.362   .     S
C76    C79     1.384   .     D
C76    H95     1.098   .     S
C77    O82     1.354   .     S
C77    N118    1.272   1_545 D
C77    N150    1.270   .     S
C78    C80     1.399   .     D
C78    H96     1.100   .     S
C79    C80     1.399   .     S
N83    C130    1.247   .     S
N83    C162    1.269   .     D
N86    C109    1.270   1_545 S
N86    C141    1.272   .     D
C97    C136    1.386   .     S
C97    C139    1.396   .     D
C97    H157    1.095   .     S
C98    O113    1.359   .     S
C99    C100    1.408   .     S
C99    N180    1.308   .     D
C99    H184    1.140   .     S
C100   C105    1.403   .     D
C100   C108    1.405   .     S
C101   C102    1.409   .     S
C101   N117    1.305   .     D
C101   H121    1.140   .     S
C102   C103    1.403   .     S
C102   C104    1.402   .     D
C103   C106    1.384   .     D
C103   H122    1.097   .     S
C104   H123    1.100   .     S
C104   C161    1.386   .     S
C105   C110    1.386   .     S
C105   H126    1.100   .     S
C106   C107    1.396   .     S
C106   H124    1.099   1_545 S
C107   O114    1.362   1_545 S
C107   C161    1.396   .     D
C108   C111    1.384   .     D
C108   H127    1.098   .     S
C109   N54     1.272   1_455 D
C109   N86     1.270   1_565 S
C109   O114    1.354   .     S
C110   C112    1.399   .     D
C110   H128    1.100   .     S
C111   C112    1.399   .     S
C111   H183    1.090   .     S
C112   O177    1.355   .     S
O113   C144    1.355   .     S
O114   C107    1.362   1_565 S
N116   C131    1.308   .     D
N116   N181    1.491   .     S
N117   N148    1.491   .     S
N118   C45     1.270   1_455 S
N118   C77     1.272   1_565 D
H119   C143    1.090   .     S
H120   C131    1.140   .     S
H124   C106    1.099   1_565 S
H125   C161    1.095   .     S
C129   C168    1.386   .     S
C129   C171    1.396   .     D
C129   H189    1.095   .     S
C130   O145    1.359   .     S
C131   C132    1.408   .     S
C132   C137    1.403   .     D
C132   C140    1.405   .     S
C133   C134    1.409   .     S
C133   N149    1.305   .     D
C133   H153    1.140   .     S
C134   C135    1.403   .     S
C134   C136    1.402   .     D
C135   C138    1.384   .     D
C135   H154    1.097   .     S
C136   H155    1.100   .     S
C137   C142    1.386   .     S
C137   H158    1.100   .     S
C138   C139    1.396   .     S
C138   H156    1.099   1_655 S
C139   O146    1.362   1_655 S
C140   C143    1.384   .     D
C140   H159    1.098   .     S
C141   N22     1.270   1_455 S
C141   O146    1.354   .     S
C142   C144    1.399   .     D
C142   H160    1.100   .     S
C143   C144    1.399   .     S
O145   C176    1.355   .     S
O146   C139    1.362   1_455 S
N148   C163    1.308   .     D
N149   N180    1.491   .     S
N150   C13     1.272   1_455 D
H151   C175    1.090   .     S
H152   C163    1.140   .     S
H156   C138    1.099   1_455 S
C162   O177    1.359   .     S
C163   C164    1.408   .     S
C164   C169    1.403   .     S
C164   C172    1.405   .     D
C165   C166    1.409   .     S
C165   N181    1.305   .     D
C165   H185    1.140   .     S
C166   C167    1.403   .     S
C166   C168    1.402   .     D
C167   C170    1.384   .     D
C167   H186    1.097   .     S
C168   H187    1.100   .     S
C169   C174    1.386   .     D
C169   H190    1.100   .     S
C170   C171    1.396   .     S
C170   H188    1.099   .     S
C171   O178    1.362   .     S
C172   C175    1.384   .     S
C172   H191    1.098   .     S
C173   N22     1.272   1_565 D
C173   O178    1.354   .     S
C174   C176    1.399   .     S
C174   H192    1.100   .     S
C175   C176    1.399   .     D
N182   C13     1.270   1_565 S
