data_550
_audit_creation_date              2023-09-08
_audit_creation_method            'Materials Studio'
_symmetry_space_group_name_H-M    'P1'
_symmetry_Int_Tables_number       1
_symmetry_cell_setting            triclinic
loop_
_symmetry_equiv_pos_as_xyz
  x,y,z
_cell_length_a                    33.1269
_cell_length_b                    33.3520
_cell_length_c                    3.7203
_cell_angle_alpha                 87.5191
_cell_angle_beta                  89.5664
_cell_angle_gamma                 59.2975
loop_
_atom_site_label
_atom_site_type_symbol
_atom_site_fract_x
_atom_site_fract_y
_atom_site_fract_z
_atom_site_U_iso_or_equiv
_atom_site_adp_type
_atom_site_occupancy
C1     C     0.84511   0.30330   0.41025   0.00000  Uiso   1.00
C2     C     0.86651   0.43893   0.52791   0.00000  Uiso   1.00
C3     C     0.70570   0.46533   0.39003   0.00000  Uiso   1.00
C4     C     0.89580   0.22537   0.51686   0.00000  Uiso   1.00
C5     C     0.86444   0.20852   0.50487   0.00000  Uiso   1.00
C6     C     0.94382   0.19342   0.55671   0.00000  Uiso   1.00
C7     C     0.88110   0.16088   0.52737   0.00000  Uiso   1.00
C8     C     0.15817   0.68524   0.54419   0.00000  Uiso   1.00
C9     C     0.23595   0.67032   0.45082   0.00000  Uiso   1.00
C10    C     0.07773   0.69650   0.61620   0.00000  Uiso   1.00
C11    C     0.31319   0.64904   0.36851   0.00000  Uiso   1.00
C12    C     0.34145   0.66631   0.29682   0.00000  Uiso   1.00
C13    C     0.33422   0.60037   0.40716   0.00000  Uiso   1.00
C14    C     0.38909   0.63655   0.26878   0.00000  Uiso   1.00
C15    C     0.82724   0.35374   0.41674   0.00000  Uiso   1.00
C16    C     0.85503   0.37339   0.45950   0.00000  Uiso   1.00
C17    C     0.83472   0.42175   0.48799   0.00000  Uiso   1.00
C18    C     0.78545   0.45093   0.46238   0.00000  Uiso   1.00
C19    C     0.75651   0.43309   0.41393   0.00000  Uiso   1.00
C20    C     0.77821   0.38442   0.39136   0.00000  Uiso   1.00
C21    C     0.38184   0.57059   0.37871   0.00000  Uiso   1.00
C22    C     0.41020   0.58811   0.31205   0.00000  Uiso   1.00
C23    C     0.53238   0.54159   0.25606   0.00000  Uiso   1.00
C24    C     0.56255   0.55821   0.20382   0.00000  Uiso   1.00
C25    C     0.55212   0.49458   0.32065   0.00000  Uiso   1.00
C26    C     0.61106   0.52948   0.22268   0.00000  Uiso   1.00
C27    C     0.60051   0.46559   0.33640   0.00000  Uiso   1.00
N28    N     0.88107   0.27301   0.50546   0.00000  Uiso   1.00
N29    N     0.85213   0.48081   0.57549   0.00000  Uiso   1.00
N30    N     0.67888   0.45292   0.31719   0.00000  Uiso   1.00
N31    N     0.94420   0.08110   0.58214   0.00000  Uiso   1.00
O32    O     0.77394   0.49966   0.43723   0.00000  Uiso   1.00
O33    O     0.74258   0.36848   0.38727   0.00000  Uiso   1.00
C34    C     0.96037   0.14591   0.57955   0.00000  Uiso   1.00
C35    C     0.92913   0.12895   0.56587   0.00000  Uiso   1.00
C36    C     0.88362   0.49655   0.60103   0.00000  Uiso   1.00
C37    C     0.92884   0.46839   0.68059   0.00000  Uiso   1.00
C38    C     0.86857   0.54335   0.54639   0.00000  Uiso   1.00
C39    C     0.95851   0.48620   0.69821   0.00000  Uiso   1.00
C40    C     0.89850   0.56082   0.56141   0.00000  Uiso   1.00
C41    C     0.94427   0.53229   0.63618   0.00000  Uiso   1.00
C42    C     0.00336   0.00678   0.64695   0.00000  Uiso   1.00
C43    C     0.97719   0.98763   0.58011   0.00000  Uiso   1.00
C44    C     0.04924   0.97637   0.71665   0.00000  Uiso   1.00
C45    C     0.99685   0.93954   0.58019   0.00000  Uiso   1.00
C46    C     0.06930   0.92812   0.71447   0.00000  Uiso   1.00
C47    C     0.04360   0.90915   0.64209   0.00000  Uiso   1.00
C48    C     0.99454   0.60424   0.59271   0.00000  Uiso   1.00
C49    C     0.97888   0.65056   0.52937   0.00000  Uiso   1.00
C50    C     0.04177   0.57563   0.65304   0.00000  Uiso   1.00
C51    C     0.00894   0.66824   0.52852   0.00000  Uiso   1.00
C52    C     0.07215   0.59289   0.64868   0.00000  Uiso   1.00
C53    C     0.05607   0.63964   0.58942   0.00000  Uiso   1.00
C54    C     0.10336   0.83255   0.58029   0.00000  Uiso   1.00
C55    C     0.12114   0.78231   0.56836   0.00000  Uiso   1.00
C56    C     0.16892   0.75222   0.52457   0.00000  Uiso   1.00
C57    C     0.09238   0.76256   0.59664   0.00000  Uiso   1.00
C58    C     0.18798   0.70349   0.50633   0.00000  Uiso   1.00
C59    C     0.11029   0.71386   0.58883   0.00000  Uiso   1.00
C60    C     0.63049   0.48313   0.29378   0.00000  Uiso   1.00
C61    C     0.76275   0.54713   0.41271   0.00000  Uiso   1.00
C62    C     0.95584   0.33859   0.46284   0.00000  Uiso   1.00
C63    C     0.70036   0.36426   0.36270   0.00000  Uiso   1.00
C64    C     0.19635   0.82320   0.50504   0.00000  Uiso   1.00
C65    C    -0.00281   0.83521   0.57575   0.00000  Uiso   1.00
C66    C     0.22917   0.58279   0.59736   0.00000  Uiso   1.00
N67    N     0.98665   0.05495   0.64250   0.00000  Uiso   1.00
N68    N     0.97690   0.54728   0.65060   0.00000  Uiso   1.00
N69    N     0.96197   0.58911   0.58593   0.00000  Uiso   1.00
N70    N     0.06166   0.86111   0.63427   0.00000  Uiso   1.00
N71    N     0.26658   0.68204   0.40818   0.00000  Uiso   1.00
N72    N     0.08840   0.65486   0.57885   0.00000  Uiso   1.00
N73    N     0.45861   0.55605   0.30282   0.00000  Uiso   1.00
N74    N     0.48371   0.57352   0.24845   0.00000  Uiso   1.00
O75    O     0.90724   0.35125   0.45733   0.00000  Uiso   1.00
O76    O     0.04212   0.79381   0.60579   0.00000  Uiso   1.00
O77    O     0.18733   0.78472   0.49031   0.00000  Uiso   1.00
O78    O     0.18800   0.63173   0.58003   0.00000  Uiso   1.00
H79    H     0.81414   0.29769   0.39123   0.00000  Uiso   1.00
H80    H     0.90410   0.41415   0.52721   0.00000  Uiso   1.00
H81    H     0.69292   0.50150   0.40419   0.00000  Uiso   1.00
H82    H     0.82610   0.23297   0.47940   0.00000  Uiso   1.00
H83    H     0.97024   0.20411   0.56499   0.00000  Uiso   1.00
H84    H     0.85167   0.15288   0.51926   0.00000  Uiso   1.00
H85    H     0.24891   0.63238   0.49368   0.00000  Uiso   1.00
H86    H     0.04089   0.72359   0.64217   0.00000  Uiso   1.00
H87    H     0.32921   0.70412   0.28799   0.00000  Uiso   1.00
H88    H     0.31047   0.58533   0.38942   0.00000  Uiso   1.00
H89    H     0.41062   0.65350   0.25344   0.00000  Uiso   1.00
H90    H     0.39998   0.53101   0.36942   0.00000  Uiso   1.00
H91    H     0.54904   0.59630   0.17993   0.00000  Uiso   1.00
H92    H     0.52740   0.48054   0.32922   0.00000  Uiso   1.00
H93    H     0.63094   0.54791   0.20257   0.00000  Uiso   1.00
H94    H     0.61866   0.42575   0.34509   0.00000  Uiso   1.00
H95    H     0.99927   0.12295   0.60248   0.00000  Uiso   1.00
H96    H     0.94968   0.42885   0.68676   0.00000  Uiso   1.00
H97    H     0.83038   0.57065   0.51933   0.00000  Uiso   1.00
H98    H     0.99735   0.46207   0.71711   0.00000  Uiso   1.00
H99    H     0.88402   0.59897   0.53209   0.00000  Uiso   1.00
H100   H     0.93850   1.01209   0.55500   0.00000  Uiso   1.00
H101   H     0.07262   0.99108   0.73148   0.00000  Uiso   1.00
H102   H     0.96837   0.93008   0.57355   0.00000  Uiso   1.00
H103   H     0.10860   0.90907   0.72005   0.00000  Uiso   1.00
H104   H     0.94055   0.67837   0.51562   0.00000  Uiso   1.00
H105   H     0.06047   0.53619   0.66613   0.00000  Uiso   1.00
H106   H    -0.00775   0.70639   0.50271   0.00000  Uiso   1.00
H107   H     0.10989   0.56646   0.65857   0.00000  Uiso   1.00
H108   H     0.12680   0.84565   0.58059   0.00000  Uiso   1.00
H109   H     0.72470   0.57184   0.40221   0.00000  Uiso   1.00
H110   H     0.77481   0.55122   0.15275   0.00000  Uiso   1.00
H111   H     0.77951   0.55527   0.62449   0.00000  Uiso   1.00
H112   H     0.96485   0.34948   0.21009   0.00000  Uiso   1.00
H113   H     0.98031   0.30086   0.49117   0.00000  Uiso   1.00
H114   H     0.96297   0.35478   0.68232   0.00000  Uiso   1.00
H115   H     0.71216   0.32791   0.35182   0.00000  Uiso   1.00
H116   H     0.68235   0.37700   0.10222   0.00000  Uiso   1.00
H117   H     0.67552   0.37157   0.59326   0.00000  Uiso   1.00
H118   H     0.17822   0.84923   0.28410   0.00000  Uiso   1.00
H119   H     0.23476   0.80884   0.50516   0.00000  Uiso   1.00
H120   H     0.18445   0.84016   0.76010   0.00000  Uiso   1.00
H121   H    -0.03160   0.82828   0.60867   0.00000  Uiso   1.00
H122   H    -0.00894   0.85133   0.30848   0.00000  Uiso   1.00
H123   H    -0.00735   0.85956   0.77363   0.00000  Uiso   1.00
H124   H     0.25119   0.57380   0.83336   0.00000  Uiso   1.00
H125   H     0.25113   0.57360   0.36159   0.00000  Uiso   1.00
H126   H     0.21551   0.55977   0.63299   0.00000  Uiso   1.00
loop_
_geom_bond_atom_site_label_1
_geom_bond_atom_site_label_2
_geom_bond_distance
_geom_bond_site_symmetry_2
_ccdc_geom_bond_type
C1     C15     1.472   .     S
C1     N28     1.145   .     D
C1     H79     1.136   .     S
C2     C17     1.444   .     S
C2     N29     1.245   .     D
C2     H80     1.088   .     S
C3     C19     1.464   .     S
C3     N30     1.193   .     D
C3     H81     1.059   .     S
C4     C5      1.413   .     D
C4     C6      1.395   .     S
C4     N28     1.403   .     S
C5     C7      1.389   .     S
C5     H82     1.107   .     S
C6     C34     1.386   .     D
C6     H83     1.102   .     S
C7     C35     1.395   .     D
C7     H84     1.135   .     S
C8     C58     1.403   .     D
C8     C59     1.385   .     S
C8     O78     1.536   .     S
C9     C58     1.418   .     S
C9     N71     1.267   .     D
C9     H85     1.113   .     S
C10    C59     1.463   .     S
C10    N72     1.260   .     D
C10    H86     1.093   .     S
C11    C12     1.346   .     D
C11    C13     1.403   .     S
C11    N71     1.376   .     S
C12    C14     1.376   .     S
C12    H87     1.109   .     S
C13    C21     1.376   .     D
C13    H88     1.132   .     S
C14    C22     1.397   .     D
C14    H89     1.113   .     S
C15    C16     1.389   .     S
C15    C20     1.411   .     D
C16    C17     1.404   .     D
C16    O75     1.494   .     S
C17    C18     1.412   .     S
C18    C19     1.378   .     D
C18    O32     1.466   .     S
C19    C20     1.406   .     S
C20    O33     1.522   .     S
C21    C22     1.353   .     S
C21    H90     1.139   .     S
C22    N73     1.403   .     S
C23    C24     1.377   .     D
C23    C25     1.366   .     S
C23    N74     1.407   .     S
C24    C26     1.389   .     S
C24    H91     1.110   .     S
C25    C27     1.386   .     D
C25    H92     1.132   .     S
C26    C60     1.351   .     D
C26    H93     1.107   .     S
C27    C60     1.392   .     S
C27    H94     1.144   .     S
N29    C36     1.392   .     S
N30    C60     1.392   .     S
N31    C35     1.407   .     S
N31    N67     1.235   .     D
O32    C61     1.429   .     S
O33    C63     1.479   .     S
C34    C35     1.412   .     S
C34    H95     1.115   .     S
C36    C37     1.327   .     S
C36    C38     1.380   .     D
C37    C39     1.387   .     D
C37    H96     1.133   .     S
C38    C40     1.385   .     S
C38    H97     1.121   .     S
C39    C41     1.367   .     S
C39    H98     1.117   .     S
C40    C41     1.339   .     D
C40    H99     1.107   .     S
C41    N68     1.406   .     S
C42    C43     1.343   1_445 S
C42    C44     1.347   1_545 D
C42    N67     1.406   1_455 S
C43    C42     1.343   1_665 S
C43    C45     1.389   .     D
C43    H100    1.116   .     S
C44    C42     1.347   1_565 D
C44    C46     1.393   .     S
C44    H101    1.111   .     S
C45    C47     1.364   1_655 S
C45    H102    1.138   .     S
C46    C47     1.329   .     D
C46    H103    1.120   .     S
C47    C45     1.364   1_455 S
C47    N70     1.397   .     S
C48    C49     1.365   .     D
C48    C50     1.368   1_655 S
C48    N69     1.406   .     S
C49    C51     1.392   1_655 S
C49    H104    1.127   .     S
C50    C48     1.368   1_455 S
C50    C52     1.391   .     D
C50    H105    1.131   .     S
C51    C49     1.392   1_455 S
C51    C53     1.366   .     D
C51    H106    1.098   .     S
C52    C53     1.374   .     S
C52    H107    1.102   .     S
C53    N72     1.400   .     S
C54    C55     1.468   .     S
C54    N70     1.235   .     D
C54    H108    1.068   .     S
C55    C56     1.388   .     D
C55    C57     1.409   .     S
C56    C58     1.416   .     S
C56    O77     1.492   .     S
C57    C59     1.418   .     D
C57    O76     1.446   .     S
C61    H109    1.099   .     S
C61    H110    1.073   .     S
C61    H111    1.087   .     S
C62    O75     1.441   .     S
C62    H112    1.087   .     S
C62    H113    1.095   .     S
C62    H114    1.089   .     S
C63    H115    1.070   .     S
C63    H116    1.091   .     S
C63    H117    1.129   .     S
C64    O77     1.462   .     S
C64    H118    1.097   .     S
C64    H119    1.107   .     S
C64    H120    1.090   .     S
C65    O76     1.423   .     S
C65    H121    1.095   .     S
C65    H122    1.079   .     S
C65    H123    1.072   .     S
C66    O78     1.499   .     S
C66    H124    1.076   .     S
C66    H125    1.086   .     S
C66    H126    1.076   .     S
N67    C42     1.406   1_655 S
N68    N69     1.232   .     D
N73    N74     1.246   .     D
