data_551
_audit_creation_date              2023-09-08
_audit_creation_method            'Materials Studio'
_symmetry_space_group_name_H-M    'P1'
_symmetry_Int_Tables_number       1
_symmetry_cell_setting            triclinic
loop_
_symmetry_equiv_pos_as_xyz
  x,y,z
_cell_length_a                    29.9058
_cell_length_b                    29.8788
_cell_length_c                    3.9964
_cell_angle_alpha                 85.5110
_cell_angle_beta                  89.0512
_cell_angle_gamma                 59.9859
loop_
_atom_site_label
_atom_site_type_symbol
_atom_site_fract_x
_atom_site_fract_y
_atom_site_fract_z
_atom_site_U_iso_or_equiv
_atom_site_adp_type
_atom_site_occupancy
C1     C     0.21441   0.80187  -0.03582   0.00000  Uiso   1.00
C2     C     0.20242   0.85431  -0.05248   0.00000  Uiso   1.00
C3     C     0.17839   0.78432  -0.08681   0.00000  Uiso   1.00
C4     C     0.14029   0.73155  -0.00744   0.00000  Uiso   1.00
C5     C     0.16580   0.68261  -0.07560   0.00000  Uiso   1.00
C6     C     0.14231   0.65257  -0.07902   0.00000  Uiso   1.00
C7     C     0.09200   0.67022  -0.01784   0.00000  Uiso   1.00
C8     C     0.06779   0.63707  -0.01345   0.00000  Uiso   1.00
C9     C     0.01739   0.65603  -0.08029   0.00000  Uiso   1.00
C10    C     0.99433   0.62545  -0.06980   0.00000  Uiso   1.00
C11    C     0.99102   0.51626  -0.05684   0.00000  Uiso   1.00
C12    C     0.95506   0.49646  -0.02767   0.00000  Uiso   1.00
C13    C     0.96566   0.44805  -0.08288   0.00000  Uiso   1.00
C14    C     0.92696   0.43428  -0.09545   0.00000  Uiso   1.00
C15    C     0.87564   0.47014  -0.05364   0.00000  Uiso   1.00
C16    C     0.94669   0.37988  -0.14106   0.00000  Uiso   1.00
N17    N     0.18690   0.95976  -0.08032   0.00000  Uiso   1.00
N18    N     0.96888   0.34260  -0.02646   0.00000  Uiso   1.00
O19    O     0.25317   0.98108  -0.22578   0.00000  Uiso   1.00
O20    O     0.23069   0.05997  -0.31561   0.00000  Uiso   1.00
O21    O     0.75411   0.64269  -0.16449   0.00000  Uiso   1.00
O22    O     0.67692   0.70925  -0.18812   0.00000  Uiso   1.00
C23    C     0.68826   0.63736  -0.02528   0.00000  Uiso   1.00
C24    C     0.99670   0.29000  -0.04921   0.00000  Uiso   1.00
C25    C     0.04545   0.26852  -0.12529   0.00000  Uiso   1.00
C26    C     0.07644   0.21514  -0.13047   0.00000  Uiso   1.00
C27    C     0.06100   0.17991  -0.06075   0.00000  Uiso   1.00
C28    C     0.09441   0.12301  -0.06576   0.00000  Uiso   1.00
C29    C     0.14238   0.10124  -0.14437   0.00000  Uiso   1.00
C30    C     0.17448   0.04720  -0.14703   0.00000  Uiso   1.00
C31    C     0.15956   0.01258  -0.06698   0.00000  Uiso   1.00
C32    C     0.10490   0.89619  -0.11710   0.00000  Uiso   1.00
C33    C     0.06747   0.40321  -0.12304   0.00000  Uiso   1.00
C34    C     0.78694   0.46089  -0.06266   0.00000  Uiso   1.00
N35    N     0.22248   0.02840  -0.23301   0.00000  Uiso   1.00
N36    N     0.70766   0.66490  -0.13036   0.00000  Uiso   1.00
O37    O     0.15637   0.89476  -0.12149   0.00000  Uiso   1.00
O38    O     0.01371   0.41086  -0.13470   0.00000  Uiso   1.00
O39    O     0.83407   0.46274  -0.06242   0.00000  Uiso   1.00
H40    H     0.09982   0.87788   0.11173   0.00000  Uiso   1.00
H41    H     0.09899   0.88041  -0.33593   0.00000  Uiso   1.00
H42    H     0.07190   0.93583  -0.12721   0.00000  Uiso   1.00
H43    H     0.07700   0.42125  -0.33874   0.00000  Uiso   1.00
H44    H     0.09667   0.36198  -0.10995   0.00000  Uiso   1.00
H45    H     0.07485   0.41620   0.10563   0.00000  Uiso   1.00
H46    H     0.76966   0.47889  -0.30143   0.00000  Uiso   1.00
H47    H     0.76736   0.47719   0.15756   0.00000  Uiso   1.00
H48    H     0.79059   0.42225  -0.04805   0.00000  Uiso   1.00
C49    C     0.26398   0.76325   0.02939   0.00000  Uiso   1.00
C50    C     0.30244   0.77563   0.07141   0.00000  Uiso   1.00
C51    C     0.28784   0.82907   0.06433   0.00000  Uiso   1.00
C52    C     0.23789   0.86869   0.00556   0.00000  Uiso   1.00
C53    C     0.35799   0.73696   0.07813   0.00000  Uiso   1.00
C54    C     0.21871   0.92387   0.02659   0.00000  Uiso   1.00
C55    C     0.08998   0.74899   0.05644   0.00000  Uiso   1.00
C56    C     0.06605   0.71884   0.04733   0.00000  Uiso   1.00
C57    C     0.09399   0.58674   0.06521   0.00000  Uiso   1.00
C58    C     0.07065   0.55570   0.07991   0.00000  Uiso   1.00
C59    C     0.02024   0.57445   0.01008   0.00000  Uiso   1.00
C60    C     0.90451   0.52920   0.02921   0.00000  Uiso   1.00
C61    C     0.86481   0.51691   0.01722   0.00000  Uiso   1.00
C62    C     0.81269   0.55177   0.07781   0.00000  Uiso   1.00
C63    C     0.44444   0.71461   0.14627   0.00000  Uiso   1.00
C64    C     0.46840   0.74020   0.06137   0.00000  Uiso   1.00
C65    C     0.47752   0.66406   0.22450   0.00000  Uiso   1.00
N66    N     0.16749   0.75674   0.01804   0.00000  Uiso   1.00
N67    N     0.39107   0.74300   0.15964   0.00000  Uiso   1.00
N68    N     0.99302   0.54833   0.03662   0.00000  Uiso   1.00
N69    N     0.77239   0.55680   0.00497   0.00000  Uiso   1.00
N70    N     0.93341   0.27399   0.11129   0.00000  Uiso   1.00
O71    O     0.90418   0.32142   0.11154   0.00000  Uiso   1.00
O72    O     0.92436   0.24229   0.18873   0.00000  Uiso   1.00
O73    O     0.13812   0.49581   0.25223   0.00000  Uiso   1.00
O74    O     0.08290   0.47484   0.17005   0.00000  Uiso   1.00
O75    O     0.02112   0.80747   0.20102   0.00000  Uiso   1.00
O76    O     0.08347   0.82318   0.14966   0.00000  Uiso   1.00
O77    O     0.48979   0.59529   0.40665   0.00000  Uiso   1.00
O78    O     0.41158   0.65013   0.32004   0.00000  Uiso   1.00
C79    C     0.52165   0.71618   0.04719   0.00000  Uiso   1.00
C80    C     0.53157   0.64033   0.20965   0.00000  Uiso   1.00
C81    C     0.55499   0.66505   0.11932   0.00000  Uiso   1.00
C82    C     0.61166   0.63851   0.09660   0.00000  Uiso   1.00
C83    C     0.64485   0.58679   0.16456   0.00000  Uiso   1.00
C84    C     0.63478   0.66296   0.00279   0.00000  Uiso   1.00
C85    C     0.69772   0.56109   0.13957   0.00000  Uiso   1.00
C86    C     0.72111   0.58566   0.04487   0.00000  Uiso   1.00
C87    C     0.98118   0.25517   0.02384   0.00000  Uiso   1.00
C88    C     0.01262   0.20134   0.01558   0.00000  Uiso   1.00
C89    C     0.07952   0.08800   0.01051   0.00000  Uiso   1.00
C90    C     0.11076   0.03464   0.00970   0.00000  Uiso   1.00
C91    C     0.32998   0.88718   0.07123   0.00000  Uiso   1.00
C92    C     0.32047   0.66193   0.07422   0.00000  Uiso   1.00
C93    C     0.84722   0.62784   0.04979   0.00000  Uiso   1.00
N94    N     0.09919   0.50564   0.17107   0.00000  Uiso   1.00
N95    N     0.06292   0.79634   0.13826   0.00000  Uiso   1.00
N96    N     0.45858   0.63460   0.32135   0.00000  Uiso   1.00
O97    O     0.32540   0.83932   0.11477   0.00000  Uiso   1.00
O98    O     0.27170   0.71363   0.03642   0.00000  Uiso   1.00
O99    O     0.89511   0.57431   0.10223   0.00000  Uiso   1.00
H100   H     0.37033   0.87808   0.06214   0.00000  Uiso   1.00
H101   H     0.31469   0.91001   0.28478   0.00000  Uiso   1.00
H102   H     0.31267   0.91005  -0.16293   0.00000  Uiso   1.00
H103   H     0.34346   0.65422  -0.14617   0.00000  Uiso   1.00
H104   H     0.31221   0.62991   0.10026   0.00000  Uiso   1.00
H105   H     0.34187   0.65586   0.30381   0.00000  Uiso   1.00
H106   H     0.82297   0.63694   0.26803   0.00000  Uiso   1.00
H107   H     0.82479   0.63299  -0.17519   0.00000  Uiso   1.00
H108   H     0.85685   0.65883   0.01718   0.00000  Uiso   1.00
H109   H     0.36097   0.70082   0.06519   0.00000  Uiso   1.00
H110   H     0.25125   0.92774   0.06567   0.00000  Uiso   1.00
H111   H     0.02344   0.73723   0.06444   0.00000  Uiso   1.00
H112   H     0.13675   0.56882   0.09367   0.00000  Uiso   1.00
H113   H     0.80909   0.58795   0.11159   0.00000  Uiso   1.00
H114   H     0.45281   0.78237   0.04100   0.00000  Uiso   1.00
H115   H     0.53651   0.74375   0.01039   0.00000  Uiso   1.00
H116   H     0.55527   0.59729   0.24853   0.00000  Uiso   1.00
H117   H     0.62824   0.56055   0.20378   0.00000  Uiso   1.00
H118   H     0.61134   0.70595  -0.03362   0.00000  Uiso   1.00
H119   H     0.70756   0.52066   0.17986   0.00000  Uiso   1.00
H120   H     0.03738   0.10153   0.02910   0.00000  Uiso   1.00
H121   H     0.08210   0.02181   0.02324   0.00000  Uiso   1.00
H122   H     0.14349   0.81812  -0.15087   0.00000  Uiso   1.00
H123   H     0.20704   0.65451  -0.06074   0.00000  Uiso   1.00
H124   H     0.17028   0.61008  -0.08293   0.00000  Uiso   1.00
H125   H     0.95200   0.65081  -0.08824   0.00000  Uiso   1.00
H126   H     0.90984   0.38100  -0.17736   0.00000  Uiso   1.00
H127   H     0.07066   0.28555  -0.13768   0.00000  Uiso   1.00
H128   H     0.11856   0.20159  -0.15141   0.00000  Uiso   1.00
H129   H     0.15977   0.12659  -0.17989   0.00000  Uiso   1.00
H130   H     0.99518   0.17598   0.04953   0.00000  Uiso   1.00
H131   H     0.99062   0.69871  -0.11716   0.00000  Uiso   1.00
H132   H     0.02919   0.48406  -0.09332   0.00000  Uiso   1.00
loop_
_geom_bond_atom_site_label_1
_geom_bond_atom_site_label_2
_geom_bond_distance
_geom_bond_site_symmetry_2
_ccdc_geom_bond_type
C1     C2      1.418   .     D
C1     C3      1.437   .     S
C1     C49     1.361   .     S
C2     O37     1.315   .     S
C2     C52     1.358   .     S
C3     N66     1.082   .     D
C3     H122    1.043   .     S
C4     C5      1.317   .     D
C4     C55     1.351   .     S
C4     N66     1.366   .     S
C5     C6      1.390   .     S
C5     H123    1.090   .     S
C6     C7      1.348   .     D
C6     H124    1.119   .     S
C7     C8      1.490   .     S
C7     C56     1.306   .     S
C8     C9      1.341   .     D
C8     C57     1.315   .     S
C9     C10     1.391   1_455 S
C9     H131    1.114   1_455 S
C10    C9      1.391   1_655 S
C10    C59     1.332   1_655 D
C10    H125    1.103   .     S
C11    C12     1.463   .     S
C11    N68     1.084   .     D
C11    H132    1.081   1_655 S
C12    C13     1.353   .     D
C12    C60     1.356   .     S
C13    C14     1.412   .     S
C13    O38     1.331   1_655 S
C14    C15     1.381   .     D
C14    C16     1.451   .     S
C15    O39     1.369   .     S
C15    C61     1.321   .     S
C16    N18     1.040   .     D
C16    H126    1.097   .     S
N17    C31     1.372   1_565 S
N17    C54     1.076   .     D
N18    C24     1.372   .     S
O19    N35     1.240   1_565 D
O20    N35     1.113   .     S
O21    N36     1.214   .     S
O22    N36     1.181   .     D
C23    N36     1.267   .     S
C23    C84     1.393   .     D
C23    C86     1.361   .     S
C24    C25     1.308   1_655 S
C24    C87     1.347   .     D
C25    C24     1.308   1_455 S
C25    C26     1.389   .     D
C25    H127    1.099   .     S
C26    C27     1.355   .     S
C26    H128    1.118   .     S
C27    C28     1.481   .     S
C27    C88     1.298   .     D
C28    C29     1.290   .     S
C28    C89     1.341   .     D
C29    C30     1.407   .     D
C29    H129    1.113   .     S
C30    C31     1.333   .     S
C30    N35     1.304   .     S
C31    N17     1.372   1_545 S
C31    C90     1.309   .     D
C32    O37     1.518   .     S
C32    H40     1.077   .     S
C32    H41     1.082   .     S
C32    H42     1.097   .     S
C33    O38     1.508   .     S
C33    H43     1.090   .     S
C33    H44     1.094   .     S
C33    H45     1.087   .     S
C34    O39     1.438   .     S
C34    H46     1.061   .     S
C34    H47     1.058   .     S
C34    H48     1.101   .     S
N35    O19     1.240   1_545 D
O38    C13     1.331   1_455 S
C49    C50     1.389   .     D
C49    O98     1.380   .     S
C50    C51     1.427   .     S
C50    C53     1.474   .     S
C51    C52     1.374   .     D
C51    O97     1.326   .     S
C52    C54     1.459   .     S
C53    N67     1.147   .     D
C53    H109    1.044   .     S
C54    H110    1.051   .     S
C55    C56     1.406   .     D
C55    N95     1.297   .     S
C56    H111    1.110   .     S
C57    C58     1.410   .     D
C57    H112    1.116   .     S
C58    C59     1.345   .     S
C58    N94     1.321   .     S
C59    C10     1.332   1_455 D
C59    N68     1.379   1_455 S
C60    C61     1.410   .     D
C60    O99     1.289   .     S
C61    C62     1.406   .     S
C62    N69     1.176   .     D
C62    H113    1.051   .     S
C63    C64     1.309   .     D
C63    C65     1.341   .     S
C63    N67     1.386   .     S
C64    C79     1.384   .     S
C64    H114    1.100   .     S
C65    C80     1.406   .     D
C65    N96     1.298   .     S
N68    C59     1.379   1_655 S
N69    C86     1.346   .     S
N70    O71     1.238   .     D
N70    O72     1.129   .     S
N70    C87     1.300   .     S
O73    N94     1.097   .     D
O74    N94     1.238   .     S
O75    N95     1.150   .     D
O76    N95     1.234   .     S
O77    N96     1.104   .     S
O78    N96     1.240   .     D
C79    C81     1.352   .     D
C79    H115    1.115   .     S
C80    C81     1.278   .     S
C80    H116    1.114   .     S
C81    C82     1.473   .     S
C82    C83     1.362   .     D
C82    C84     1.267   .     S
C83    C85     1.375   .     S
C83    H117    1.120   .     S
C84    H118    1.112   .     S
C85    C86     1.278   .     D
C85    H119    1.090   .     S
C87    C88     1.402   1_655 S
C88    C87     1.402   1_455 S
C88    H130    1.114   1_455 S
C89    C90     1.388   .     S
C89    H120    1.118   .     S
C90    H121    1.099   .     S
C91    O97     1.500   .     S
C91    H100    1.097   .     S
C91    H101    1.081   .     S
C91    H102    1.083   .     S
C92    O98     1.501   .     S
C92    H103    1.075   .     S
C92    H104    1.099   .     S
C92    H105    1.078   .     S
C93    O99     1.523   .     S
C93    H106    1.086   .     S
C93    H107    1.085   .     S
C93    H108    1.097   .     S
H130   C88     1.114   1_655 S
H131   C9      1.114   1_655 S
H132   C11     1.081   1_455 S
