data_552
_audit_creation_date              2023-09-08
_audit_creation_method            'Materials Studio'
_symmetry_space_group_name_H-M    'P1'
_symmetry_Int_Tables_number       1
_symmetry_cell_setting            triclinic
loop_
_symmetry_equiv_pos_as_xyz
  x,y,z
_cell_length_a                    29.5152
_cell_length_b                    29.8231
_cell_length_c                    3.7400
_cell_angle_alpha                 78.3317
_cell_angle_beta                  90.5805
_cell_angle_gamma                 59.8399
loop_
_atom_site_label
_atom_site_type_symbol
_atom_site_fract_x
_atom_site_fract_y
_atom_site_fract_z
_atom_site_U_iso_or_equiv
_atom_site_adp_type
_atom_site_occupancy
C1     C     0.20265   0.77423   0.21444   0.00000  Uiso   1.00
C2     C     0.25725   0.74414   0.19937   0.00000  Uiso   1.00
C3     C     0.28979   0.76702   0.17929   0.00000  Uiso   1.00
C4     C     0.26532   0.82214   0.17818   0.00000  Uiso   1.00
C5     C     0.21128   0.85319   0.19863   0.00000  Uiso   1.00
C6     C     0.18059   0.82855   0.22406   0.00000  Uiso   1.00
C7     C     0.16649   0.75388   0.21081   0.00000  Uiso   1.00
C8     C     0.34526   0.73236   0.15729   0.00000  Uiso   1.00
C9     C     0.19117   0.91097   0.18166   0.00000  Uiso   1.00
C10    C     0.59763   0.61232   0.13962   0.00000  Uiso   1.00
C11    C     0.62295   0.55764   0.23074   0.00000  Uiso   1.00
C12    C     0.67700   0.52489   0.23051   0.00000  Uiso   1.00
C13    C     0.67682   0.60227   0.05010   0.00000  Uiso   1.00
C14    C     0.70555   0.54720   0.14124   0.00000  Uiso   1.00
C15    C     0.01281   0.27580  -0.02022   0.00000  Uiso   1.00
C16    C     0.06830   0.24050   0.01624   0.00000  Uiso   1.00
C17    C     0.98137   0.25535  -0.06552   0.00000  Uiso   1.00
C18    C     0.00614   0.20155  -0.06699   0.00000  Uiso   1.00
C19    C     0.14371   0.69270   0.14938   0.00000  Uiso   1.00
C20    C     0.09091   0.72639   0.06427   0.00000  Uiso   1.00
C21    C     0.16238   0.63753   0.21511   0.00000  Uiso   1.00
C22    C     0.05963   0.70411   0.05200   0.00000  Uiso   1.00
C23    C     0.08111   0.64881   0.12433   0.00000  Uiso   1.00
C24    C     0.04941   0.62349   0.11486   0.00000  Uiso   1.00
C25    C     0.07189   0.56793   0.18510   0.00000  Uiso   1.00
C26    C     0.04130   0.54490   0.17421   0.00000  Uiso   1.00
C27    C     0.96839   0.63354   0.02930   0.00000  Uiso   1.00
C28    C     0.98806   0.57814   0.09325   0.00000  Uiso   1.00
C29    C     0.96723   0.51518   0.03837   0.00000  Uiso   1.00
C30    C     0.93244   0.49310   0.03927   0.00000  Uiso   1.00
C31    C     0.87797   0.52153   0.05925   0.00000  Uiso   1.00
C32    C     0.95541   0.43886   0.03198   0.00000  Uiso   1.00
C33    C     0.84743   0.49663   0.08643   0.00000  Uiso   1.00
C34    C     0.92598   0.41280   0.04900   0.00000  Uiso   1.00
C35    C     0.87257   0.44179   0.08251   0.00000  Uiso   1.00
C36    C     0.79220   0.53005   0.11532   0.00000  Uiso   1.00
C37    C     0.94783   0.35703   0.03943   0.00000  Uiso   1.00
C38    C     0.43237   0.71436   0.13221   0.00000  Uiso   1.00
C39    C     0.46141   0.73634   0.04468   0.00000  Uiso   1.00
C40    C     0.46081   0.65929   0.22374   0.00000  Uiso   1.00
C41    C     0.51544   0.70335   0.04551   0.00000  Uiso   1.00
C42    C     0.54038   0.64868   0.13614   0.00000  Uiso   1.00
N43    N     0.17925   0.71046   0.16139   0.00000  Uiso   1.00
N44    N     0.37849   0.74865   0.13794   0.00000  Uiso   1.00
N45    N     0.15389   0.94698   0.05376   0.00000  Uiso   1.00
N46    N     0.95319   0.55937   0.08411   0.00000  Uiso   1.00
N47    N     0.75928   0.51340   0.13158   0.00000  Uiso   1.00
N48    N     0.99289   0.32930  -0.01569   0.00000  Uiso   1.00
N49    N     0.13196   0.61679   0.20423   0.00000  Uiso   1.00
O50    O     0.28967   0.85216   0.12608   0.00000  Uiso   1.00
O51    O     0.12831   0.85269   0.25417   0.00000  Uiso   1.00
O52    O     0.28127   0.69104   0.18437   0.00000  Uiso   1.00
O53    O     0.85273   0.57497   0.07327   0.00000  Uiso   1.00
C54    C     0.06160   0.16871  -0.02225   0.00000  Uiso   1.00
C55    C     0.08868   0.11084  -0.01068   0.00000  Uiso   1.00
C56    C     0.14352   0.07720   0.04870   0.00000  Uiso   1.00
C57    C     0.08121   0.03848  -0.03534   0.00000  Uiso   1.00
C58    C     0.16716   0.02225   0.07080   0.00000  Uiso   1.00
C59    C     0.13520   0.00175   0.03280   0.00000  Uiso   1.00
C60    C     0.34718   0.84165   0.15390   0.00000  Uiso   1.00
C61    C     0.27461   0.64267   0.27343   0.00000  Uiso   1.00
C62    C     0.07070   0.86142   0.22685   0.00000  Uiso   1.00
C63    C     0.06564   0.40925   0.01905   0.00000  Uiso   1.00
C64    C     0.79761   0.62909  -0.04204   0.00000  Uiso   1.00
C65    C     0.79146   0.42194   0.11705   0.00000  Uiso   1.00
N66    N     0.99823   0.65505   0.03824   0.00000  Uiso   1.00
N67    N     0.51265   0.62807   0.22393   0.00000  Uiso   1.00
N68    N     0.62502   0.63321   0.05096   0.00000  Uiso   1.00
N69    N     0.09155   0.18888   0.01726   0.00000  Uiso   1.00
N70    N     0.05882   0.09094  -0.05390   0.00000  Uiso   1.00
O71    O     0.00843   0.41250  -0.00063   0.00000  Uiso   1.00
O72    O     0.84826   0.41183   0.13333   0.00000  Uiso   1.00
H73    H     0.36849   0.82631  -0.05646   0.00000  Uiso   1.00
H74    H     0.36960   0.82908   0.41085   0.00000  Uiso   1.00
H75    H     0.35148   0.87667   0.09549   0.00000  Uiso   1.00
H76    H     0.25705   0.63673   0.05285   0.00000  Uiso   1.00
H77    H     0.25767   0.63837   0.51377   0.00000  Uiso   1.00
H78    H     0.31192   0.60394   0.33960   0.00000  Uiso   1.00
H79    H     0.05859   0.84649   0.47318   0.00000  Uiso   1.00
H80    H     0.05842   0.84943   0.00647   0.00000  Uiso   1.00
H81    H     0.03902   0.90381   0.16323   0.00000  Uiso   1.00
H82    H     0.07747   0.42273   0.23107   0.00000  Uiso   1.00
H83    H     0.10086   0.36886   0.08885   0.00000  Uiso   1.00
H84    H     0.08029   0.42008  -0.22770   0.00000  Uiso   1.00
H85    H     0.77026   0.63919   0.16029   0.00000  Uiso   1.00
H86    H     0.77327   0.63802  -0.29315   0.00000  Uiso   1.00
H87    H     0.80100   0.66481  -0.09407   0.00000  Uiso   1.00
H88    H     0.78738   0.38648   0.16781   0.00000  Uiso   1.00
H89    H     0.77035   0.43976  -0.14503   0.00000  Uiso   1.00
H90    H     0.76993   0.43624   0.33301   0.00000  Uiso   1.00
H91    H     0.12559   0.78081   0.16729   0.00000  Uiso   1.00
H92    H     0.35910   0.68999   0.22123   0.00000  Uiso   1.00
H93    H     0.22206   0.92194   0.17522   0.00000  Uiso   1.00
H94    H     0.59925   0.53667   0.26572   0.00000  Uiso   1.00
H95    H     0.69071   0.48067   0.29971   0.00000  Uiso   1.00
H96    H     0.20845   0.60396   0.27330   0.00000  Uiso   1.00
H97    H     0.11933   0.54031   0.23687   0.00000  Uiso   1.00
H98    H     0.06387   0.49860   0.25353   0.00000  Uiso   1.00
H99    H     0.77007   0.57346   0.04498   0.00000  Uiso   1.00
H100   H     0.43881   0.63698   0.26270   0.00000  Uiso   1.00
H101   H     0.69565   0.62931   0.00083   0.00000  Uiso   1.00
H102   H     0.09892   0.25342   0.00241   0.00000  Uiso   1.00
H103   H     0.93633   0.27404  -0.09207   0.00000  Uiso   1.00
H104   H     0.98249   0.17959  -0.03538   0.00000  Uiso   1.00
H105   H     0.06627   0.77164  -0.00832   0.00000  Uiso   1.00
H106   H     0.01525   0.73251   0.00108   0.00000  Uiso   1.00
H107   H     0.92441   0.66191  -0.02253   0.00000  Uiso   1.00
H108   H     1.00900   0.48704   0.08207   0.00000  Uiso   1.00
H109   H     0.92106   0.34272   0.06442   0.00000  Uiso   1.00
H110   H     0.44484   0.78212  -0.03291   0.00000  Uiso   1.00
H111   H     0.54279   0.72195   0.00956   0.00000  Uiso   1.00
H112   H     0.17222   0.09297   0.03090   0.00000  Uiso   1.00
H113   H     0.05394   0.02053  -0.01216   0.00000  Uiso   1.00
H114   H     0.21136   0.99860   0.10966   0.00000  Uiso   1.00
loop_
_geom_bond_atom_site_label_1
_geom_bond_atom_site_label_2
_geom_bond_distance
_geom_bond_site_symmetry_2
_ccdc_geom_bond_type
C1     C2      1.405   .     D
C1     C6      1.419   .     S
C1     C7      1.470   .     S
C2     C3      1.426   .     S
C2     O52     1.386   .     S
C3     C4      1.424   .     D
C3     C8      1.446   .     S
C4     C5      1.398   .     S
C4     O50     1.391   .     S
C5     C6      1.418   .     D
C5     C9      1.501   .     S
C6     O51     1.354   .     S
C7     N43     1.209   .     D
C7     H91     1.048   .     S
C8     N44     1.292   .     D
C8     H92     1.085   .     S
C9     N45     1.090   .     D
C9     H93     1.112   .     S
C10    C11     1.371   .     D
C10    C42     1.478   .     S
C10    N68     1.257   .     S
C11    C12     1.391   .     S
C11    H94     1.143   .     S
C12    C14     1.320   .     D
C12    H95     1.137   .     S
C13    C14     1.379   .     S
C13    N68     1.331   .     D
C13    H101    1.177   .     S
C14    N47     1.394   .     S
C15    C16     1.419   .     D
C15    C17     1.367   1_455 S
C15    N48     1.400   1_455 S
C16    N69     1.333   .     S
C16    H102    1.145   .     S
C17    H103    1.148   .     S
C17    C15     1.367   1_655 S
C17    C18     1.391   1_655 D
C18    C54     1.409   .     S
C18    C17     1.391   1_455 D
C18    H104    1.166   1_455 S
C19    C20     1.352   .     D
C19    C21     1.412   .     S
C19    N43     1.396   .     S
C20    C22     1.387   .     S
C20    H105    1.134   .     S
C21    N49     1.326   .     D
C21    H96     1.199   .     S
C22    C23     1.400   .     D
C22    H106    1.133   .     S
C23    C24     1.472   .     S
C23    N49     1.300   .     S
C24    C25     1.404   .     S
C24    N66     1.305   1_455 D
C25    C26     1.386   .     D
C25    H97     1.203   .     S
C26    H98     1.159   .     S
C26    C28     1.359   1_455 S
C27    C28     1.413   .     D
C27    N66     1.328   .     S
C27    H107    1.124   .     S
C28    N46     1.400   .     S
C28    C26     1.359   1_655 S
C29    C30     1.472   .     S
C29    N46     1.217   .     D
C29    H108    1.073   .     S
C30    C31     1.403   .     S
C30    C32     1.412   .     D
C31    C33     1.421   .     D
C31    O53     1.393   .     S
C32    C34     1.422   .     S
C32    O71     1.374   1_655 S
C33    C35     1.420   .     S
C33    C36     1.441   .     S
C34    C35     1.388   .     D
C34    C37     1.460   .     S
C35    O72     1.388   .     S
C36    N47     1.292   .     D
C36    H99     1.087   .     S
C37    N48     1.210   .     D
C37    H109    1.067   .     S
C38    C39     1.325   .     D
C38    C40     1.379   .     S
C38    N44     1.397   .     S
C39    C41     1.390   .     S
C39    H110    1.163   .     S
C40    N67     1.333   .     D
C40    H100    1.132   .     S
C41    C42     1.371   .     D
C41    H111    1.183   .     S
C42    N67     1.259   .     S
N45    C59     1.421   1_565 S
N48    C15     1.400   1_655 S
O50    C60     1.562   .     S
O51    C62     1.584   .     S
O52    C61     1.524   .     S
O53    C64     1.582   .     S
C54    C55     1.484   .     S
C54    N69     1.316   .     D
C55    C56     1.395   .     D
C55    N70     1.310   .     S
C56    C58     1.405   .     S
C56    H112    1.154   .     S
C57    C59     1.389   .     S
C57    N70     1.344   .     D
C57    H113    1.165   .     S
C58    C59     1.377   .     D
C58    H114    1.118   1_545 S
C59    N45     1.421   1_545 S
C60    H73     1.044   .     S
C60    H74     1.046   .     S
C60    H75     1.094   .     S
C61    H76     1.060   .     S
C61    H77     1.049   .     S
C61    H78     1.099   .     S
C62    H79     1.084   .     S
C62    H80     1.087   .     S
C62    H81     1.102   .     S
C63    O71     1.642   .     S
C63    H82     1.085   .     S
C63    H83     1.099   .     S
C63    H84     1.082   .     S
C64    H85     1.084   .     S
C64    H86     1.078   .     S
C64    H87     1.098   .     S
C65    O72     1.545   .     S
C65    H88     1.103   .     S
C65    H89     1.037   .     S
C65    H90     1.056   .     S
N66    C24     1.305   1_655 D
O71    C32     1.374   1_455 S
H104   C18     1.166   1_655 S
H114   C58     1.118   1_565 S
