data_553
_audit_creation_date              2023-09-08
_audit_creation_method            'Materials Studio'
_symmetry_space_group_name_H-M    'P1'
_symmetry_Int_Tables_number       1
_symmetry_cell_setting            triclinic
loop_
_symmetry_equiv_pos_as_xyz
  x,y,z
_cell_length_a                    29.8513
_cell_length_b                    29.8678
_cell_length_c                    3.7019
_cell_angle_alpha                 87.0050
_cell_angle_beta                  83.2850
_cell_angle_gamma                 59.1293
loop_
_atom_site_label
_atom_site_type_symbol
_atom_site_fract_x
_atom_site_fract_y
_atom_site_fract_z
_atom_site_U_iso_or_equiv
_atom_site_adp_type
_atom_site_occupancy
C1     C     0.26687   0.64113   0.68970   0.00000  Uiso   1.00
C2     C     0.20929   0.66826   0.70099   0.00000  Uiso   1.00
C3     C     0.18707   0.63570   0.70853   0.00000  Uiso   1.00
C4     C     0.17465   0.72302   0.71328   0.00000  Uiso   1.00
C5     C     0.13209   0.65689   0.73371   0.00000  Uiso   1.00
C6     C     0.11929   0.74548   0.75164   0.00000  Uiso   1.00
C7     C     0.09898   0.71155   0.77054   0.00000  Uiso   1.00
C8     C     0.10567   0.62675   0.73381   0.00000  Uiso   1.00
C9     C     0.08850   0.80309   0.75739   0.00000  Uiso   1.00
C10    C     0.21549   0.54491   0.79853   0.00000  Uiso   1.00
C11    C     0.23651   0.74936   0.57208   0.00000  Uiso   1.00
C12    C     0.00945   0.77390   0.91282   0.00000  Uiso   1.00
C13    C     0.87256   0.42132   0.67884   0.00000  Uiso   1.00
C14    C     0.03732   0.08113   0.00660   0.00000  Uiso   1.00
C15    C     0.01033   0.13529   0.02021   0.00000  Uiso   1.00
C16    C     0.01877   0.88488   0.68429   0.00000  Uiso   1.00
C17    C     0.04397   0.91226   0.61696   0.00000  Uiso   1.00
C18    C     0.96479   0.91278   0.74606   0.00000  Uiso   1.00
C19    C     0.01611   0.96696   0.61687   0.00000  Uiso   1.00
C20    C     0.93734   0.96700   0.74888   0.00000  Uiso   1.00
C21    C     0.96242   0.99474   0.68572   0.00000  Uiso   1.00
C22    C     0.04380   0.99517   0.54494   0.00000  Uiso   1.00
C23    C     0.93204   0.05273   0.69518   0.00000  Uiso   1.00
C24    C     0.84617   0.39073   0.69435   0.00000  Uiso   1.00
C25    C     0.88008   0.33550   0.69813   0.00000  Uiso   1.00
C26    C     0.79127   0.41123   0.71067   0.00000  Uiso   1.00
C27    C     0.86002   0.30144   0.71560   0.00000  Uiso   1.00
C28    C     0.76966   0.37812   0.73796   0.00000  Uiso   1.00
C29    C     0.80454   0.32356   0.74346   0.00000  Uiso   1.00
C30    C     0.89125   0.24408   0.71194   0.00000  Uiso   1.00
C31    C     0.71189   0.40494   0.74961   0.00000  Uiso   1.00
C32    C     0.96923   0.27303   0.77994   0.00000  Uiso   1.00
C33    C     0.76379   0.49988   0.59502   0.00000  Uiso   1.00
C34    C     0.74274   0.29616   0.87578   0.00000  Uiso   1.00
C35    C     0.09414   0.56115   0.62773   0.00000  Uiso   1.00
C36    C     0.01206   0.05306   0.06248   0.00000  Uiso   1.00
C37    C     0.03891   0.08159   0.50536   0.00000  Uiso   1.00
C38    C     0.93259   0.13528   0.63995   0.00000  Uiso   1.00
C39    C     0.01163   0.13577   0.51921   0.00000  Uiso   1.00
C40    C     0.95819   0.16334   0.58895   0.00000  Uiso   1.00
C41    C     0.01577   0.55447   0.69424   0.00000  Uiso   1.00
N42    N     0.29113   0.65677   0.77865   0.00000  Uiso   1.00
N43    N     0.12129   0.58824   0.62336   0.00000  Uiso   1.00
N44    N     0.04561   0.83005   0.68307   0.00000  Uiso   1.00
N45    N     0.85651   0.46202   0.77836   0.00000  Uiso   1.00
N46    N     0.93196   0.21807   0.59663   0.00000  Uiso   1.00
N47    N     0.68773   0.38890   0.66246   0.00000  Uiso   1.00
C48    C     0.01395   0.05321   0.56086   0.00000  Uiso   1.00
C49    C     0.96021   0.08076   0.62913   0.00000  Uiso   1.00
C50    C     0.88371   0.48911   0.76996   0.00000  Uiso   1.00
C51    C     0.93768   0.46602   0.71143   0.00000  Uiso   1.00
C52    C     0.85543   0.54149   0.83131   0.00000  Uiso   1.00
C53    C     0.96249   0.49517   0.70732   0.00000  Uiso   1.00
C54    C     0.88021   0.57024   0.83037   0.00000  Uiso   1.00
C55    C     0.93374   0.54780   0.76760   0.00000  Uiso   1.00
C56    C     0.01913   0.47004   0.63495   0.00000  Uiso   1.00
C57    C     0.95938   0.57937   0.76876   0.00000  Uiso   1.00
C58    C     0.04454   0.50188   0.63348   0.00000  Uiso   1.00
C59    C     0.09781   0.47992   0.56730   0.00000  Uiso   1.00
C60    C     0.04035   0.58386   0.68864   0.00000  Uiso   1.00
O61    O     0.18933   0.75992   0.68745   0.00000  Uiso   1.00
O62    O     0.22424   0.58324   0.69704   0.00000  Uiso   1.00
O63    O     0.04728   0.72595   0.81565   0.00000  Uiso   1.00
O64    O     0.75324   0.46308   0.69819   0.00000  Uiso   1.00
O65    O     0.93235   0.32038   0.69222   0.00000  Uiso   1.00
O66    O     0.79020   0.28625   0.76354   0.00000  Uiso   1.00
C67    C     0.34611   0.62890   0.77300   0.00000  Uiso   1.00
C68    C     0.37774   0.57537   0.72862   0.00000  Uiso   1.00
C69    C     0.37030   0.65614   0.82011   0.00000  Uiso   1.00
C70    C     0.43243   0.55013   0.72319   0.00000  Uiso   1.00
C71    C     0.42453   0.63093   0.81811   0.00000  Uiso   1.00
C72    C     0.45637   0.57793   0.76825   0.00000  Uiso   1.00
C73    C     0.46465   0.49411   0.66493   0.00000  Uiso   1.00
C74    C     0.51435   0.55185   0.76674   0.00000  Uiso   1.00
C75    C     0.52260   0.46782   0.66584   0.00000  Uiso   1.00
C76    C     0.54650   0.49565   0.71099   0.00000  Uiso   1.00
C77    C     0.55450   0.41463   0.61851   0.00000  Uiso   1.00
C78    C     0.60113   0.47031   0.70806   0.00000  Uiso   1.00
C79    C     0.60866   0.38929   0.61953   0.00000  Uiso   1.00
C80    C     0.63276   0.41661   0.66667   0.00000  Uiso   1.00
C81    C     0.12233   0.50896   0.56439   0.00000  Uiso   1.00
O82    O     0.08900   0.97137   0.47377   0.00000  Uiso   1.00
O83    O     0.88616   0.07667   0.75977   0.00000  Uiso   1.00
O84    O     0.04310   0.42545   0.57483   0.00000  Uiso   1.00
O85    O     0.93567   0.62358   0.83227   0.00000  Uiso   1.00
O86    O     0.44410   0.47130   0.61408   0.00000  Uiso   1.00
O87    O     0.53499   0.57497   0.81415   0.00000  Uiso   1.00
H88    H     0.25124   0.51213   0.92150   0.00000  Uiso   1.00
H89    H     0.20796   0.52939   0.55171   0.00000  Uiso   1.00
H90    H     0.17975   0.56027   1.00961   0.00000  Uiso   1.00
H91    H     0.23861   0.75861   0.27002   0.00000  Uiso   1.00
H92    H     0.26544   0.70623   0.61516   0.00000  Uiso   1.00
H93    H     0.24695   0.77396   0.72967   0.00000  Uiso   1.00
H94    H    -0.01792   0.77208   1.14747   0.00000  Uiso   1.00
H95    H    -0.01372   0.79424   0.67185   0.00000  Uiso   1.00
H96    H     0.02743   0.79664   1.00276   0.00000  Uiso   1.00
H97    H     0.98874   0.24796   0.52336   0.00000  Uiso   1.00
H98    H     0.95078   0.25458   0.97376   0.00000  Uiso   1.00
H99    H     0.99991   0.27581   0.91818   0.00000  Uiso   1.00
H100   H     0.76046   0.50689   0.29111   0.00000  Uiso   1.00
H101   H     0.80535   0.48713   0.65313   0.00000  Uiso   1.00
H102   H     0.73468   0.53745   0.75156   0.00000  Uiso   1.00
H103   H     0.74453   0.25892   0.98462   0.00000  Uiso   1.00
H104   H     0.71757   0.31124   0.63923   0.00000  Uiso   1.00
H105   H     0.72478   0.32695   1.10127   0.00000  Uiso   1.00
H106   H     0.29198   0.59940   0.58128   0.00000  Uiso   1.00
H107   H     0.10652   0.82610   0.84165   0.00000  Uiso   1.00
H108   H     0.91494   0.40348   0.55222   0.00000  Uiso   1.00
H109   H     0.08189   0.05829  -0.05236   0.00000  Uiso   1.00
H110   H     0.03276   0.15689  -0.02716   0.00000  Uiso   1.00
H111   H     0.08855   0.89067   0.55928   0.00000  Uiso   1.00
H112   H     0.94215   0.89140   0.79559   0.00000  Uiso   1.00
H113   H     0.89273   0.98959   0.80483   0.00000  Uiso   1.00
H114   H     0.87324   0.22068   0.84209   0.00000  Uiso   1.00
H115   H     0.68653   0.44675   0.85613   0.00000  Uiso   1.00
H116   H     0.08349   0.05898   0.44651   0.00000  Uiso   1.00
H117   H     0.88796   0.15670   0.69219   0.00000  Uiso   1.00
H118   H     0.03383   0.15761   0.47218   0.00000  Uiso   1.00
H119   H     0.96330   0.42209   0.66475   0.00000  Uiso   1.00
H120   H     0.81083   0.56240   0.88441   0.00000  Uiso   1.00
H121   H     0.85595   0.61412   0.88303   0.00000  Uiso   1.00
H122   H     0.12388   0.43622   0.51172   0.00000  Uiso   1.00
H123   H     0.01454   0.62776   0.73632   0.00000  Uiso   1.00
H124   H     0.35942   0.55064   0.69529   0.00000  Uiso   1.00
H125   H     0.34602   0.70024   0.86193   0.00000  Uiso   1.00
H126   H     0.44404   0.65433   0.85878   0.00000  Uiso   1.00
H127   H     0.53664   0.38973   0.57652   0.00000  Uiso   1.00
H128   H     0.62072   0.49388   0.74023   0.00000  Uiso   1.00
H129   H     0.63348   0.34516   0.58067   0.00000  Uiso   1.00
H130   H     0.16689   0.48815   0.50752   0.00000  Uiso   1.00
H131   H     1.06344   0.64401   0.86221   0.00000  Uiso   1.00
loop_
_geom_bond_atom_site_label_1
_geom_bond_atom_site_label_2
_geom_bond_distance
_geom_bond_site_symmetry_2
_ccdc_geom_bond_type
C1     C2      1.473   .     S
C1     N42     1.127   .     D
C1     H106    1.140   .     S
C2     C3      1.429   .     S
C2     C4      1.417   .     D
C3     C5      1.417   .     D
C3     O62     1.378   .     S
C4     C6      1.421   .     S
C4     O61     1.375   .     S
C5     C7      1.413   .     S
C5     C8      1.470   .     S
C6     C7      1.419   .     D
C6     C9      1.477   .     S
C7     O63     1.364   .     S
C8     N43     1.078   .     D
C8     H131    1.140   1_455 S
C9     N44     1.168   .     D
C9     H107    1.140   .     S
C10    O62     1.326   .     S
C10    H88     1.140   .     S
C10    H89     1.140   .     S
C10    H90     1.140   .     S
C11    O61     1.297   .     S
C11    H91     1.140   .     S
C11    H92     1.140   .     S
C11    H93     1.140   .     S
C12    O63     1.325   .     S
C12    H94     1.140   .     S
C12    H95     1.140   .     S
C12    H96     1.140   .     S
C13    C24     1.477   .     S
C13    N45     1.118   .     D
C13    H108    1.140   .     S
C14    C15     1.389   .     S
C14    C36     1.381   .     D
C14    H109    1.140   .     S
C15    H110    1.140   .     S
C16    C17     1.365   .     D
C16    N44     1.406   .     S
C16    C18     1.378   1_455 S
C17    C19     1.402   .     S
C17    H111    1.140   .     S
C18    C20     1.390   .     D
C18    H112    1.140   .     S
C18    C16     1.378   1_655 S
C19    C22     1.450   .     S
C19    C21     1.373   1_455 D
C20    C21     1.370   .     S
C20    H113    1.140   .     S
C21    C19     1.373   1_655 D
C21    C23     1.487   1_565 S
C22    O82     1.161   .     D
C22    C48     1.489   1_565 S
C23    C49     1.456   .     S
C23    O83     1.175   .     D
C23    C21     1.487   1_545 S
C24    C25     1.426   .     S
C24    C26     1.420   .     D
C25    C27     1.417   .     D
C25    O65     1.382   .     S
C26    C28     1.426   .     S
C26    O64     1.375   .     S
C27    C29     1.426   .     S
C27    C30     1.471   .     S
C28    C29     1.414   .     D
C28    C31     1.479   .     S
C29    O66     1.380   .     S
C30    N46     1.099   .     D
C30    H114    1.140   .     S
C31    N47     1.131   .     D
C31    H115    1.140   .     S
C32    O65     1.325   .     S
C32    H97     1.140   .     S
C32    H98     1.140   .     S
C32    H99     1.140   .     S
C33    O64     1.318   .     S
C33    H100    1.140   .     S
C33    H101    1.140   .     S
C33    H102    1.140   .     S
C34    O66     1.309   .     S
C34    H103    1.140   .     S
C34    H104    1.140   .     S
C34    H105    1.140   .     S
C35    N43     1.407   .     S
C35    C60     1.379   .     D
C35    C81     1.356   .     S
C37    C39     1.390   .     D
C37    C48     1.382   .     S
C37    H116    1.140   .     S
C38    C40     1.389   .     D
C38    C49     1.398   .     S
C38    H117    1.140   .     S
C39    H118    1.140   .     S
C39    C40     1.367   1_455 S
C40    N46     1.404   .     S
C40    C39     1.367   1_655 S
C41    C58     1.365   .     D
C41    C60     1.402   .     S
C41    C57     1.446   1_455 S
N42    C67     1.407   .     S
N45    C50     1.407   .     S
N47    C80     1.407   .     S
C48    C22     1.489   1_545 S
C48    C49     1.374   1_455 D
C49    C48     1.374   1_655 D
C50    C51     1.383   .     D
C50    C52     1.360   .     S
C51    C53     1.402   .     S
C51    H119    1.140   .     S
C52    C54     1.391   .     D
C52    H120    1.140   .     S
C53    C55     1.366   .     D
C53    C56     1.451   1_655 S
C54    C55     1.374   .     S
C54    H121    1.140   .     S
C55    C57     1.489   .     S
C56    C58     1.489   .     S
C56    O84     1.162   .     D
C56    C53     1.451   1_455 S
C57    O85     1.155   .     D
C57    C41     1.446   1_655 S
C58    C59     1.369   .     S
C59    C81     1.392   .     D
C59    H122    1.140   .     S
C60    H123    1.140   .     S
C67    C68     1.384   .     S
C67    C69     1.364   .     D
C68    C70     1.402   .     D
C68    H124    1.140   .     S
C69    C71     1.391   .     S
C69    H125    1.140   .     S
C70    C72     1.371   .     S
C70    C73     1.452   .     S
C71    C72     1.374   .     D
C71    H126    1.140   .     S
C72    C74     1.489   .     S
C73    C75     1.489   .     S
C73    O86     1.160   .     D
C74    C76     1.455   .     S
C74    O87     1.167   .     D
C75    C76     1.371   .     S
C75    C77     1.378   .     D
C76    C78     1.401   .     D
C77    C79     1.390   .     S
C77    H127    1.140   .     S
C78    C80     1.388   .     S
C78    H128    1.140   .     S
C79    C80     1.364   .     D
C79    H129    1.140   .     S
C81    H130    1.140   .     S
H131   C8      1.140   1_655 S
