data_554
_audit_creation_date              2023-09-08
_audit_creation_method            'Materials Studio'
_symmetry_space_group_name_H-M    'P1'
_symmetry_Int_Tables_number       1
_symmetry_cell_setting            triclinic
loop_
_symmetry_equiv_pos_as_xyz
  x,y,z
_cell_length_a                    22.2864
_cell_length_b                    22.7925
_cell_length_c                    3.7685
_cell_angle_alpha                 85.9030
_cell_angle_beta                  88.6221
_cell_angle_gamma                 59.0270
loop_
_atom_site_label
_atom_site_type_symbol
_atom_site_fract_x
_atom_site_fract_y
_atom_site_fract_z
_atom_site_U_iso_or_equiv
_atom_site_adp_type
_atom_site_occupancy
C1     C     0.01822   0.94081   0.53176   0.00000  Uiso   1.00
C2     C     0.06199   0.96546   0.57818   0.00000  Uiso   1.00
C3     C     0.03467   0.03573   0.58417   0.00000  Uiso   1.00
C4     C     0.96394   0.08339   0.53789   0.00000  Uiso   1.00
C5     C     0.92001   0.05853   0.49411   0.00000  Uiso   1.00
C6     C     0.94665   0.98821   0.49412   0.00000  Uiso   1.00
C7     C     0.09985   0.82644   0.46846   0.00000  Uiso   1.00
C8     C     0.12519   0.75252   0.48273   0.00000  Uiso   1.00
C9     C     0.08169   0.72528   0.52767   0.00000  Uiso   1.00
C10    C     0.02750   0.54535   0.59095   0.00000  Uiso   1.00
C11    C     0.05234   0.47733   0.66014   0.00000  Uiso   1.00
C12    C     0.95746   0.58589   0.52796   0.00000  Uiso   1.00
C13    C     0.00917   0.44975   0.66258   0.00000  Uiso   1.00
C14    C     0.91401   0.55856   0.53228   0.00000  Uiso   1.00
C15    C     0.94004   0.48961   0.59386   0.00000  Uiso   1.00
C16    C     0.56427   0.46564   0.39770   0.00000  Uiso   1.00
C17    C     0.53302   0.53679   0.35309   0.00000  Uiso   1.00
C18    C     0.52124   0.43723   0.42533   0.00000  Uiso   1.00
C19    C     0.46034   0.57861   0.34274   0.00000  Uiso   1.00
C20    C     0.44861   0.47936   0.42015   0.00000  Uiso   1.00
C21    C     0.41723   0.55090   0.38178   0.00000  Uiso   1.00
C22    C     0.29564   0.45877   0.54739   0.00000  Uiso   1.00
C23    C     0.31404   0.72879   0.42588   0.00000  Uiso   1.00
C24    C     0.92565   0.77593   0.53398   0.00000  Uiso   1.00
C25    C     0.03581   0.18889   0.47551   0.00000  Uiso   1.00
C26    C     0.74242   0.21699   0.48668   0.00000  Uiso   1.00
C27    C     0.77172   0.56706   0.47143   0.00000  Uiso   1.00
C28    C     0.19713   0.70495   0.45575   0.00000  Uiso   1.00
C29    C     0.10765   0.65395   0.54040   0.00000  Uiso   1.00
C30    C     0.22620   0.63294   0.47240   0.00000  Uiso   1.00
C31    C     0.17984   0.60804   0.50676   0.00000  Uiso   1.00
C32    C     0.05840   0.63030   0.58139   0.00000  Uiso   1.00
C33    C     0.30324   0.58635   0.47742   0.00000  Uiso   1.00
C34    C     0.88918   0.20017   0.44754   0.00000  Uiso   1.00
C35    C     0.86220   0.27433   0.45957   0.00000  Uiso   1.00
C36    C     0.90320   0.30552   0.46923   0.00000  Uiso   1.00
C37    C     0.78844   0.31730   0.46430   0.00000  Uiso   1.00
C38    C     0.87157   0.37592   0.50669   0.00000  Uiso   1.00
C39    C     0.75468   0.38854   0.48762   0.00000  Uiso   1.00
C40    C     0.79783   0.41601   0.51623   0.00000  Uiso   1.00
C41    C     0.91672   0.40498   0.52142   0.00000  Uiso   1.00
C42    C     0.67821   0.43476   0.48409   0.00000  Uiso   1.00
O43    O     0.23044   0.52811   0.53938   0.00000  Uiso   1.00
O44    O     0.25182   0.72426   0.44477   0.00000  Uiso   1.00
O45    O     0.00047   0.76036   0.52728   0.00000  Uiso   1.00
N46    N     0.04181   0.87054   0.53739   0.00000  Uiso   1.00
N47    N     0.07556   0.56740   0.57107   0.00000  Uiso   1.00
N48    N     0.34420   0.59522   0.37082   0.00000  Uiso   1.00
N49    N     0.94045   0.15357   0.54553   0.00000  Uiso   1.00
N50    N     0.89547   0.46315   0.58650   0.00000  Uiso   1.00
N51    N     0.63712   0.42066   0.40450   0.00000  Uiso   1.00
O52    O     0.97881   0.25645   0.50947   0.00000  Uiso   1.00
O53    O     0.75020   0.27807   0.48773   0.00000  Uiso   1.00
O54    O     0.77778   0.49794   0.48904   0.00000  Uiso   1.00
H55    H     0.32598   0.45212   0.30679   0.00000  Uiso   1.00
H56    H     0.28515   0.41602   0.56839   0.00000  Uiso   1.00
H57    H     0.33076   0.44858   0.77070   0.00000  Uiso   1.00
H58    H     0.34974   0.69722   0.23811   0.00000  Uiso   1.00
H59    H     0.33148   0.72601   0.68662   0.00000  Uiso   1.00
H60    H     0.30628   0.77856   0.35749   0.00000  Uiso   1.00
H61    H     0.91074   0.74704   0.37538   0.00000  Uiso   1.00
H62    H     0.88810   0.82790   0.43103   0.00000  Uiso   1.00
H63    H     0.90532   0.77433   0.79889   0.00000  Uiso   1.00
H64    H     0.03570   0.17618   0.20936   0.00000  Uiso   1.00
H65    H     0.03767   0.15342   0.67428   0.00000  Uiso   1.00
H66    H     0.08623   0.18572   0.52065   0.00000  Uiso   1.00
H67    H     0.76420   0.18776   0.25699   0.00000  Uiso   1.00
H68    H     0.68769   0.22899   0.48423   0.00000  Uiso   1.00
H69    H     0.76205   0.18270   0.71944   0.00000  Uiso   1.00
H70    H     0.71986   0.61016   0.47157   0.00000  Uiso   1.00
H71    H     0.78988   0.57506   0.70980   0.00000  Uiso   1.00
H72    H     0.78523   0.58545   0.23279   0.00000  Uiso   1.00
H73    H     0.11816   0.93496   0.57740   0.00000  Uiso   1.00
H74    H     0.07994   0.04593   0.59371   0.00000  Uiso   1.00
H75    H     0.85984   0.08704   0.47428   0.00000  Uiso   1.00
H76    H     0.90709   0.97440   0.48920   0.00000  Uiso   1.00
H77    H     0.14602   0.83399   0.46763   0.00000  Uiso   1.00
H78    H     0.10898   0.43764   0.67408   0.00000  Uiso   1.00
H79    H     0.91636   0.64829   0.48481   0.00000  Uiso   1.00
H80    H     0.03848   0.39405   0.68358   0.00000  Uiso   1.00
H81    H     0.85648   0.59639   0.50356   0.00000  Uiso   1.00
H82    H     0.56897   0.55876   0.33402   0.00000  Uiso   1.00
H83    H     0.53906   0.38242   0.44759   0.00000  Uiso   1.00
H84    H     0.45396   0.63594   0.30725   0.00000  Uiso   1.00
H85    H     0.42184   0.45011   0.44174   0.00000  Uiso   1.00
H86    H     0.00075   0.66206   0.57068   0.00000  Uiso   1.00
H87    H     0.32362   0.53623   0.52317   0.00000  Uiso   1.00
H88    H     0.85329   0.18380   0.46038   0.00000  Uiso   1.00
H89    H     0.97084   0.36768   0.51418   0.00000  Uiso   1.00
H90    H     0.67365   0.49200   0.45826   0.00000  Uiso   1.00
loop_
_geom_bond_atom_site_label_1
_geom_bond_atom_site_label_2
_geom_bond_distance
_geom_bond_site_symmetry_2
_ccdc_geom_bond_type
C1     C2      1.373   .     S
C1     N46     1.404   .     S
C1     C6      1.395   1_455 D
C2     H73     1.075   .     S
C2     C3      1.392   1_565 D
C3     H74     1.148   .     S
C3     C2      1.392   1_545 D
C3     C4      1.385   1_455 S
C4     C5      1.378   .     D
C4     N49     1.406   .     S
C4     C3      1.385   1_655 S
C5     H75     1.152   .     S
C5     C6      1.394   1_545 S
C6     H76     1.079   .     S
C6     C1      1.395   1_655 D
C6     C5      1.394   1_565 S
C7     C8      1.473   .     S
C7     N46     1.197   .     D
C7     H77     1.127   .     S
C8     C9      1.397   .     S
C8     C28     1.405   .     D
C9     C29     1.415   .     D
C9     O45     1.558   .     S
C10    C11     1.358   .     S
C10    N47     1.397   .     S
C10    C12     1.360   1_455 D
C11    C13     1.394   .     D
C11    H78     1.112   .     S
C12    C14     1.395   .     S
C12    H79     1.233   .     S
C12    C10     1.360   1_655 D
C13    H80     1.086   .     S
C13    C15     1.346   1_455 S
C14    C15     1.370   .     D
C14    H81     1.120   .     S
C15    N50     1.404   .     S
C15    C13     1.346   1_655 S
C16    C17     1.395   .     S
C16    C18     1.405   .     D
C16    N51     1.405   .     S
C17    C19     1.394   .     D
C17    H82     1.141   .     S
C18    C20     1.393   .     S
C18    H83     1.096   .     S
C19    C21     1.396   .     S
C19    H84     1.237   .     S
C20    C21     1.402   .     D
C20    H85     1.098   .     S
C21    N48     1.406   .     S
C22    O43     1.497   .     S
C22    H55     1.089   .     S
C22    H56     1.110   .     S
C22    H57     1.092   .     S
C23    O44     1.442   .     S
C23    H58     1.053   .     S
C23    H59     1.051   .     S
C23    H60     1.068   .     S
C24    H61     1.092   .     S
C24    H62     1.088   .     S
C24    H63     1.092   .     S
C24    O45     1.516   1_655 S
C25    H64     1.064   .     S
C25    H65     1.047   .     S
C25    H66     1.105   .     S
C25    O52     1.417   1_455 S
C26    O53     1.489   .     S
C26    H67     1.076   .     S
C26    H68     1.104   .     S
C26    H69     1.068   .     S
C27    O54     1.507   .     S
C27    H70     1.064   .     S
C27    H71     1.059   .     S
C27    H72     1.067   .     S
C28    C30     1.418   .     S
C28    O44     1.493   .     S
C29    C31     1.406   .     S
C29    C32     1.452   .     S
C30    C31     1.412   .     D
C30    C33     1.483   .     S
C31    O43     1.570   .     S
C32    N47     1.283   .     D
C32    H86     1.103   .     S
C33    N48     1.094   .     D
C33    H87     0.991   .     S
C34    C35     1.478   .     S
C34    N49     1.134   .     D
C34    H88     1.041   .     S
C35    C36     1.420   .     S
C35    C37     1.416   .     D
C36    C38     1.398   .     D
C36    O52     1.470   .     S
C37    C39     1.404   .     S
C37    O53     1.518   .     S
C38    C40     1.412   .     S
C38    C41     1.466   .     S
C39    C40     1.401   .     D
C39    C42     1.472   .     S
C40    O54     1.677   .     S
C41    N50     1.199   .     D
C41    H89     1.060   .     S
C42    N51     1.167   .     D
C42    H90     1.252   .     S
O45    C24     1.516   1_455 S
O52    C25     1.417   1_655 S
