data_555
_audit_creation_date              2023-09-08
_audit_creation_method            'Materials Studio'
_symmetry_space_group_name_H-M    'P1'
_symmetry_Int_Tables_number       1
_symmetry_cell_setting            triclinic
loop_
_symmetry_equiv_pos_as_xyz
  x,y,z
_cell_length_a                    22.0467
_cell_length_b                    23.0872
_cell_length_c                    6.2418
_cell_angle_alpha                 85.8849
_cell_angle_beta                  85.3017
_cell_angle_gamma                 62.5079
loop_
_atom_site_label
_atom_site_type_symbol
_atom_site_fract_x
_atom_site_fract_y
_atom_site_fract_z
_atom_site_U_iso_or_equiv
_atom_site_adp_type
_atom_site_occupancy
C1     C    -0.09180   0.92839   0.17697   0.00000  Uiso   1.00
C2     C    -0.06524   0.96077  -0.01279   0.00000  Uiso   1.00
C3     C    -0.08765   0.03405   0.01374   0.00000  Uiso   1.00
C4     C     0.84106   0.06860   0.12618   0.00000  Uiso   1.00
C5     C     0.84310   0.04043   1.35822   0.00000  Uiso   1.00
C6     C     0.88902   0.96602   0.38478   0.00000  Uiso   1.00
C7     C    -0.02764   0.81909   0.07973   0.00000  Uiso   1.00
C8     C     0.00090   0.74645   0.13360   0.00000  Uiso   1.00
C9     C    -0.03764   0.72363   0.02758   0.00000  Uiso   1.00
C10    C     0.08124   0.70280   1.10692   0.00000  Uiso   1.00
C11    C    -0.01488   0.65613   0.02299   0.00000  Uiso   1.00
C12    C     0.10469   0.63539   1.05370   0.00000  Uiso   1.00
C13    C     0.05537   0.61090   1.05298   0.00000  Uiso   1.00
C14    C     0.90373   0.21204   0.99281   0.00000  Uiso   1.00
C15    C     0.59062   0.24125   0.07211   0.00000  Uiso   1.00
C16    C     0.79806   0.44666   0.51343   0.00000  Uiso   1.00
C17    C     0.15176   0.87749   0.50551   0.00000  Uiso   1.00
C18    C    -0.06901   0.63901   0.00286   0.00000  Uiso   1.00
C19    C     0.17560   0.59255   1.01357   0.00000  Uiso   1.00
C20    C     0.75555   0.18350   0.10539   0.00000  Uiso   1.00
C21    C     0.73360   0.25548   1.06143   0.00000  Uiso   1.00
C22    C     0.77972   0.28016   1.03437   0.00000  Uiso   1.00
C23    C     0.65906   0.29715   1.00365   0.00000  Uiso   1.00
C24    C     0.75926   0.35102  -0.02243   0.00000  Uiso   1.00
C25    C     0.63773   0.37120   0.01525   0.00000  Uiso   1.00
C26    C     0.69239   0.39313  -0.04931   0.00000  Uiso   1.00
C27    C     0.81489   0.37466   0.98050   0.00000  Uiso   1.00
C28    C     0.56390   0.42526  -0.02138   0.00000  Uiso   1.00
C29    C     0.90970   0.54589   0.96512   0.00000  Uiso   1.00
C30    C    -0.05378   0.47280  -0.05480   0.00000  Uiso   1.00
C31    C     0.98500   0.12194   0.52772   0.00000  Uiso   1.00
C32    C     0.95333   0.19117   0.52907   0.00000  Uiso   1.00
C33    C     0.99233   0.22513   0.53894   0.00000  Uiso   1.00
C34    C     0.88027   0.22688   0.52050   0.00000  Uiso   1.00
C35    C     0.83646   0.58094   0.97482   0.00000  Uiso   1.00
C36    C     0.90151   0.44651  -0.13707   0.00000  Uiso   1.00
C37    C     0.79520   0.54869   0.96542   0.00000  Uiso   1.00
C38    C     0.83421   0.47416  -0.00091   0.00000  Uiso   1.00
C39    C     0.43722   0.45919   0.99378   0.00000  Uiso   1.00
C40    C     0.42026   0.52603   0.98460   0.00000  Uiso   1.00
C41    C     0.38419   0.44224   1.00602   0.00000  Uiso   1.00
C42    C     0.35197   0.57542   1.00128   0.00000  Uiso   1.00
C43    C     0.31605   0.49030   1.01372   0.00000  Uiso   1.00
C44    C     0.29749   0.55805   1.01418   0.00000  Uiso   1.00
C45    C     0.28056   0.44618   0.57857   0.00000  Uiso   1.00
C46    C     0.12957   0.77436   0.08634   0.00000  Uiso   1.00
C47    C     0.86759   0.78911  -0.19357   0.00000  Uiso   1.00
C48    C     0.55834   0.49176   0.45956   0.00000  Uiso   1.00
C49    C     0.52504   0.40503   0.50848   0.00000  Uiso   1.00
C50    C     0.50607   0.47236   0.48081   0.00000  Uiso   1.00
C51    C     0.13366   0.48620   0.08574   0.00000  Uiso   1.00
C52    C     0.18648   0.90887   0.58621   0.00000  Uiso   1.00
C53    C     0.15258  -0.02247   0.60474   0.00000  Uiso   1.00
C54    C     1.08454   0.01531   0.54612   0.00000  Uiso   1.00
C55    C     1.04910  -0.01537   0.46040   0.00000  Uiso   1.00
C56    C     1.08640   0.91618   0.43508   0.00000  Uiso   1.00
C57    C     0.22113   0.75809   0.60015   0.00000  Uiso   1.00
C58    C     0.23297   0.68945   0.56166   0.00000  Uiso   1.00
C59    C     0.17504   0.67756   0.56268   0.00000  Uiso   1.00
C60    C     0.30014   0.63708   0.53286   0.00000  Uiso   1.00
C61    C     0.18361   0.61189   0.53537   0.00000  Uiso   1.00
C62    C     0.30951   0.57256   0.50820   0.00000  Uiso   1.00
C63    C     0.25155   0.56057   0.50666   0.00000  Uiso   1.00
C64    C     0.12407   0.59443   0.56413   0.00000  Uiso   1.00
C65    C     0.38044   0.51633   0.47781   0.00000  Uiso   1.00
N66    N     0.17718   0.80774   0.48991   0.00000  Uiso   1.00
N67    N     0.12652   0.53969   0.50803   0.00000  Uiso   1.00
N68    N     0.43561   0.52252   0.49483   0.00000  Uiso   1.00
N69    N     1.05277   0.08193   0.56265   0.00000  Uiso   1.00
N70    N     0.98611   0.38786   0.45355   0.00000  Uiso   1.00
N71    N     0.71860   0.32953   0.54807   0.00000  Uiso   1.00
N72    N     0.25746   0.87388   0.62621   0.00000  Uiso   1.00
N73    N     0.95908   0.60847   0.50127   0.00000  Uiso   1.00
N74    N     0.54197   0.55886   0.41181   0.00000  Uiso   1.00
O75    O     0.89346   0.62704   0.51487   0.00000  Uiso   1.00
O76    O     0.97973   0.65235   0.50908   0.00000  Uiso   1.00
C77    C     0.96208   0.29347   0.50705   0.00000  Uiso   1.00
C78    C     0.84674   0.29689   0.50555   0.00000  Uiso   1.00
C79    C     0.88963   0.32957   0.48928   0.00000  Uiso   1.00
C80    C     1.00889   0.32560   0.49461   0.00000  Uiso   1.00
C81    C     0.77087   0.33660   0.46005   0.00000  Uiso   1.00
C82    C     1.07907   0.51170   0.58474   0.00000  Uiso   1.00
C83    C     0.11782   0.43633   0.58112   0.00000  Uiso   1.00
C84    C     1.00704   0.54052   0.48551   0.00000  Uiso   1.00
C85    C     1.08051   0.41146   0.51797   0.00000  Uiso   1.00
C86    C     0.98218   0.49950   0.42789   0.00000  Uiso   1.00
C87    C     1.02182   0.42721   0.44336   0.00000  Uiso   1.00
C88    C     0.64667   0.37802   0.52730   0.00000  Uiso   1.00
C89    C     0.62731   0.44481   0.47557   0.00000  Uiso   1.00
C90    C     0.59395   0.35887   0.53406   0.00000  Uiso   1.00
O91    O     0.06958   0.54463   1.09903   0.00000  Uiso   1.00
O92    O     0.11346   0.73338   0.97173   0.00000  Uiso   1.00
O93    O    -0.10858   0.76638   0.01749   0.00000  Uiso   1.00
O94    O     0.84303   0.24416   1.12161   0.00000  Uiso   1.00
O95    O     0.61554   0.28172   1.15315   0.00000  Uiso   1.00
O96    O     0.67506   0.45384  -0.15957   0.00000  Uiso   1.00
O97    O     0.77201   0.67541   1.17277   0.00000  Uiso   1.00
O98    O     0.77729   0.68600   0.81327   0.00000  Uiso   1.00
O99    O     0.03019   0.87940  -0.20546   0.00000  Uiso   1.00
O100   O     0.27836   0.87980   0.80849   0.00000  Uiso   1.00
O101   O     0.30146   0.85222   0.46318   0.00000  Uiso   1.00
C102   C     0.36154   0.70340   0.45202   0.00000  Uiso   1.00
C103   C     1.05609   0.73481   0.61459   0.00000  Uiso   1.00
C104   C     1.07828   0.18367   0.79112   0.00000  Uiso   1.00
C105   C     0.80193   0.18071   0.61752   0.00000  Uiso   1.00
C106   C     0.63256   0.51400  -0.05787   0.00000  Uiso   1.00
N107   N    -0.04487   0.86022   0.23027   0.00000  Uiso   1.00
N108   N    -0.04870   0.57387   0.98333   0.00000  Uiso   1.00
N109   N     0.22967   0.60480   1.03727   0.00000  Uiso   1.00
N110   N     0.81888   0.13945   0.12431   0.00000  Uiso   1.00
N111   N     0.78781   0.44615  -0.03405   0.00000  Uiso   1.00
N112   N     0.50752   0.40839   0.99124   0.00000  Uiso   1.00
N113   N     0.00876   0.92432  -0.06435   0.00000  Uiso   1.00
N114   N     0.79981   0.65048   0.98787   0.00000  Uiso   1.00
N115   N     0.34023   0.64215   1.00289   0.00000  Uiso   1.00
O116   O     0.05052   0.94646  -0.01857   0.00000  Uiso   1.00
O117   O     0.27945   0.68914   1.03980   0.00000  Uiso   1.00
O118   O     0.39066   0.65678   0.96759   0.00000  Uiso   1.00
O119   O     0.26031   0.50107   0.43127   0.00000  Uiso   1.00
O120   O     0.35969   0.64536   0.54026   0.00000  Uiso   1.00
O121   O     0.11202   0.73614   0.56934   0.00000  Uiso   1.00
O122   O     1.06275   0.19066   0.57000   0.00000  Uiso   1.00
O123   O     0.84593   0.19220   0.46368   0.00000  Uiso   1.00
O124   O     0.86450   0.39744   0.44313   0.00000  Uiso   1.00
O125   O     0.50128   0.59015   0.25849   0.00000  Uiso   1.00
O126   O     0.57951   0.58305   0.47949   0.00000  Uiso   1.00
H127   H    -0.03406   0.83783  -0.09515   0.00000  Uiso   1.00
H128   H     0.90490   0.18240   0.85269   0.00000  Uiso   1.00
H129   H     0.19248   0.54147   0.95459   0.00000  Uiso   1.00
H130   H     0.71272   0.16859   0.12206   0.00000  Uiso   1.00
H131   H     0.95003   0.09988   0.49476   0.00000  Uiso   1.00
H132   H     0.46249   0.54172   0.96300   0.00000  Uiso   1.00
H133   H     0.39612   0.38860   1.00986   0.00000  Uiso   1.00
H134   H     0.27301   0.47580   1.01993   0.00000  Uiso   1.00
H135   H     0.15913   0.79482  -0.02571   0.00000  Uiso   1.00
H136   H     0.86427   0.74845  -0.27727   0.00000  Uiso   1.00
H137   H     0.48445   0.38742   0.51033   0.00000  Uiso   1.00
H138   H     0.18040   0.00334   0.66824   0.00000  Uiso   1.00
H139   H     1.05932   0.89319   0.35075   0.00000  Uiso   1.00
H140   H     0.25085   0.76616   0.72606   0.00000  Uiso   1.00
H141   H     0.07260   0.63049   0.63964   0.00000  Uiso   1.00
H142   H     0.38711   0.46620   0.43841   0.00000  Uiso   1.00
H143   H     1.06548   0.29345   0.52250   0.00000  Uiso   1.00
H144   H     0.76251   0.37673   0.33110   0.00000  Uiso   1.00
H145   H     0.17302   0.40916   0.63081   0.00000  Uiso   1.00
H146   H     0.92874   0.52067   0.36469   0.00000  Uiso   1.00
H147   H     0.66973   0.46009   0.44652   0.00000  Uiso   1.00
H148   H     0.60829   0.30482   0.56087   0.00000  Uiso   1.00
H149   H     1.06634   0.68408   0.68182   0.00000  Uiso   1.00
H150   H     1.02626   0.74663   0.46315   0.00000  Uiso   1.00
H151   H     1.11844   0.20073   0.81040   0.00000  Uiso   1.00
H152   H     0.82388   0.12602   0.65697   0.00000  Uiso   1.00
H153   H     0.61444   0.19127   0.15916   0.00000  Uiso   1.00
H154   H     0.59482   0.50704   0.06408   0.00000  Uiso   1.00
H155   H     0.15342   0.47794  -0.08964   0.00000  Uiso   1.00
H156   H     0.31992   0.40051   0.49460   0.00000  Uiso   1.00
H157   H     0.76738   0.42231   0.59750   0.00000  Uiso   1.00
H158   H     0.55383   0.47793  -0.05802   0.00000  Uiso   1.00
H159   H     1.11827   0.35780   0.54638   0.00000  Uiso   1.00
H160   H    -0.05210   0.05578  -0.04784   0.00000  Uiso   1.00
H161   H     0.81212   0.07405   1.49418   0.00000  Uiso   1.00
H162   H     0.90852   0.93885   0.54417   0.00000  Uiso   1.00
H163   H     0.95172   0.21566   1.02859   0.00000  Uiso   1.00
H164   H     0.60487   0.23530  -0.10755   0.00000  Uiso   1.00
H165   H     0.77009   0.47750   0.36845   0.00000  Uiso   1.00
H166   H    -0.12447   0.67867   0.00387   0.00000  Uiso   1.00
H167   H     0.87101   0.33747   0.99310   0.00000  Uiso   1.00
H168   H     0.00173   0.44369  -0.00953   0.00000  Uiso   1.00
H169   H     0.90981   0.41249  -0.27226   0.00000  Uiso   1.00
H170   H     0.73844   0.57828   0.93504   0.00000  Uiso   1.00
H171   H     0.23388   0.43933   0.63758   0.00000  Uiso   1.00
H172   H     0.16231   0.74511   0.22545   0.00000  Uiso   1.00
H173   H     0.90475   0.80384  -0.29050   0.00000  Uiso   1.00
H174   H     0.12599   0.44276   0.15412   0.00000  Uiso   1.00
H175   H     0.99363   0.01499   0.41611   0.00000  Uiso   1.00
H176   H     1.09898   0.13017   0.84704   0.00000  Uiso   1.00
H177   H     0.74932   0.19947   0.55021   0.00000  Uiso   1.00
H178   H     0.60314   0.55307  -0.18441   0.00000  Uiso   1.00
H179   H     0.38711   0.69423   0.28303   0.00000  Uiso   1.00
H180   H     0.39191   0.71754   0.55818   0.00000  Uiso   1.00
H181   H     0.53254   0.26470   0.09969   0.00000  Uiso   1.00
H182   H     0.30708   0.74474   0.44443   0.00000  Uiso   1.00
H183   H     1.02981   0.21454   0.89229   0.00000  Uiso   1.00
H184   H     0.81475   0.83314  -0.18114   0.00000  Uiso   1.00
H185   H     0.80392   0.47929   0.63021   0.00000  Uiso   1.00
H186   H     0.30409   0.45477   0.72143   0.00000  Uiso   1.00
H187   H     0.17245   0.49147   0.18217   0.00000  Uiso   1.00
H188   H     0.79697   0.20732   0.76995   0.00000  Uiso   1.00
H189   H     0.66576   0.52995   0.02793   0.00000  Uiso   1.00
H190   H     0.08030   0.81633   0.15209   0.00000  Uiso   1.00
H191   H     1.02490   0.77253   0.73990   0.00000  Uiso   1.00
loop_
_geom_bond_atom_site_label_1
_geom_bond_atom_site_label_2
_geom_bond_distance
_geom_bond_site_symmetry_2
_ccdc_geom_bond_type
C1     C2      1.571   .     D
C1     N107    1.462   .     S
C1     C6      1.533   1_455 S
C2     N113    1.469   .     S
C2     C3      1.546   1_565 S
C3     C2      1.546   1_545 S
C3     C4      1.530   1_455 D
C3     H160    1.140   .     S
C4     N110    1.474   .     S
C4     C3      1.530   1_655 D
C4     C5      1.540   1_554 S
C5     C4      1.540   1_556 S
C5     C6      1.544   1_546 D
C5     H161    1.140   .     S
C6     C1      1.533   1_655 S
C6     C5      1.544   1_564 D
C6     H162    1.140   .     S
C7     H127    1.140   .     S
C7     C8      1.517   .     S
C7     N107    1.290   .     D
C8     C9      1.412   .     D
C8     C10     1.584   1_554 S
C9     O93     1.416   .     S
C9     C11     1.401   .     S
C10    O92     1.412   .     S
C10    C12     1.450   .     D
C10    C8      1.584   1_556 S
C11    C18     1.436   .     S
C11    C13     1.432   1_554 D
C12    C13     1.439   .     S
C12    C19     1.424   .     S
C13    O91     1.425   .     S
C13    C11     1.432   1_556 D
C14    O94     1.407   .     D
C14    H128    1.140   .     S
C14    H163    1.140   .     S
C15    O95     1.421   1_554 S
C15    H153    1.140   .     S
C15    H164    1.140   .     S
C15    H181    1.140   .     S
C16    O124    1.435   .     S
C16    H157    1.140   .     S
C16    H165    1.140   .     S
C16    H185    1.140   .     S
C17    C52     1.411   .     S
C17    N66     1.448   .     S
C17    C56     1.388   1_455 D
C18    N108    1.368   1_554 D
C18    H166    1.140   .     S
C19    N109    1.367   .     D
C19    H129    1.140   .     S
C20    N110    1.302   .     D
C20    H130    1.140   .     S
C20    C21     1.512   1_554 S
C21    C23     1.531   .     D
C21    C22     1.371   .     S
C21    C20     1.512   1_556 S
C22    O94     1.387   .     S
C22    C24     1.506   1_556 D
C23    O95     1.428   .     S
C23    C25     1.555   1_556 S
C24    C26     1.357   .     S
C24    C22     1.506   1_554 D
C24    C27     1.557   1_554 S
C25    C26     1.525   .     D
C25    C28     1.550   .     S
C25    C23     1.555   1_554 S
C26    O96     1.412   .     S
C27    C24     1.557   1_556 S
C27    N111    1.472   1_556 D
C27    H167    1.140   .     S
C28    N112    1.459   1_554 D
C28    H158    1.140   .     S
C29    C35     1.432   .     S
C29    C30     1.507   1_656 D
C29    N108    1.358   1_655 S
C30    C29     1.507   1_454 D
C30    C36     1.511   1_455 S
C30    H168    1.140   .     S
C31    H131    1.140   .     S
C31    N69     1.372   .     D
C31    C32     1.419   .     S
C32    C34     1.435   .     D
C32    C33     1.413   .     S
C33    C77     1.407   .     D
C33    O122    1.403   .     S
C34    O123    1.409   .     S
C34    C78     1.433   .     S
C35    C37     1.423   .     D
C35    N114    1.431   .     S
C36    C38     1.526   .     D
C36    C30     1.511   1_655 S
C36    H169    1.140   .     S
C37    C38     1.535   1_556 S
C37    H170    1.140   .     S
C38    N111    1.474   .     S
C38    C37     1.535   1_554 S
C39    C40     1.408   .     D
C39    C41     1.389   .     S
C39    N112    1.449   .     S
C40    H132    1.140   .     S
C40    C42     1.409   .     S
C41    H133    1.140   .     S
C41    C43     1.395   .     D
C42    C44     1.426   .     D
C42    N115    1.440   .     S
C43    H134    1.140   .     S
C43    C44     1.423   .     S
C44    N109    1.385   .     S
C45    O119    1.424   .     S
C45    H156    1.140   .     S
C45    H171    1.140   .     S
C45    H186    1.140   .     S
C46    H135    1.140   .     S
C46    O92     1.408   1_554 S
C46    H172    1.140   .     S
C46    H190    1.140   .     S
C47    H136    1.140   .     S
C47    O93     1.431   1_655 S
C47    H173    1.140   .     S
C47    H184    1.140   .     S
C48    C50     1.410   .     S
C48    N74     1.433   .     S
C48    C89     1.409   .     D
C49    H137    1.140   .     S
C49    C50     1.412   .     D
C49    C90     1.411   .     S
C50    N68     1.447   .     S
C51    O91     1.435   1_554 S
C51    H155    1.140   .     S
C51    H174    1.140   .     S
C51    H187    1.140   .     S
C52    N72     1.425   .     S
C52    C53     1.415   1_565 D
C53    H138    1.140   .     S
C53    C52     1.415   1_545 D
C53    C54     1.407   1_455 S
C54    C55     1.426   .     D
C54    N69     1.372   .     S
C54    C53     1.407   1_655 S
C55    C56     1.419   1_545 S
C55    H175    1.140   .     S
C56    H139    1.140   .     S
C56    C17     1.388   1_655 D
C56    C55     1.419   1_565 S
C57    N66     1.303   .     D
C57    H140    1.140   .     S
C57    C58     1.516   .     S
C58    C59     1.425   .     D
C58    C60     1.422   .     S
C59    O121    1.423   .     S
C59    C61     1.460   .     S
C60    C62     1.424   .     D
C60    O120    1.416   .     S
C61    C63     1.424   .     D
C61    C64     1.535   .     S
C62    C65     1.510   .     S
C62    C63     1.428   .     S
C63    O119    1.406   .     S
C64    H141    1.140   .     S
C64    N67     1.311   .     D
C65    N68     1.302   .     D
C65    H142    1.140   .     S
N67    C82     1.496   1_455 S
N70    C80     1.298   .     D
N70    C87     1.447   .     S
N71    C81     1.309   .     D
N71    C88     1.469   .     S
N72    O101    1.300   .     D
N72    O100    1.301   .     S
N73    O75     1.302   .     D
N73    O76     1.293   .     S
N73    C84     1.436   .     S
N74    O126    1.301   .     D
N74    O125    1.298   .     S
C77    C79     1.430   .     S
C77    C80     1.519   .     S
C78    C81     1.531   .     S
C78    C79     1.451   .     D
C79    O124    1.416   .     S
C80    H143    1.140   .     S
C81    H144    1.140   .     S
C82    C84     1.573   .     S
C82    N67     1.496   1_655 S
C82    C83     1.545   1_655 D
C83    H145    1.140   .     S
C83    C82     1.545   1_455 D
C83    C85     1.298   1_455 S
C84    C86     1.374   .     D
C85    C87     1.290   .     D
C85    C83     1.298   1_655 S
C85    H159    1.140   .     S
C86    C87     1.484   .     S
C86    H146    1.140   .     S
C88    C89     1.417   .     S
C88    C90     1.418   .     D
C89    H147    1.140   .     S
C90    H148    1.140   .     S
O91    C51     1.435   1_556 S
O92    C46     1.408   1_556 S
O93    C47     1.431   1_455 S
O95    C15     1.421   1_556 S
O96    C106    1.428   .     S
O97    N114    1.301   .     D
O98    N114    1.301   .     S
O99    N113    1.298   .     D
C102   O120    1.429   .     S
C102   H179    1.140   .     S
C102   H180    1.140   .     S
C102   H182    1.140   .     S
C103   H149    1.140   .     S
C103   H150    1.140   .     S
C103   O121    1.256   1_655 S
C103   H191    1.140   .     S
C104   O122    1.429   .     S
C104   H151    1.140   .     S
C104   H176    1.140   .     S
C104   H183    1.140   .     S
C105   H152    1.140   .     S
C105   O123    1.408   .     S
C105   H177    1.140   .     S
C105   H188    1.140   .     S
C106   H154    1.140   .     S
C106   H178    1.140   .     S
C106   H189    1.140   .     S
N108   C18     1.368   1_556 D
N108   C29     1.358   1_455 S
N111   C27     1.472   1_554 D
N112   C28     1.459   1_556 D
N113   O116    1.300   .     S
N115   O118    1.302   .     D
N115   O117    1.292   .     S
O121   C103    1.256   1_455 S
