data_556
_audit_creation_date              2023-09-08
_audit_creation_method            'Materials Studio'
_symmetry_space_group_name_H-M    'P1'
_symmetry_Int_Tables_number       1
_symmetry_cell_setting            triclinic
loop_
_symmetry_equiv_pos_as_xyz
  x,y,z
_cell_length_a                    18.7013
_cell_length_b                    18.8936
_cell_length_c                    7.4644
_cell_angle_alpha                 83.8513
_cell_angle_beta                  76.0960
_cell_angle_gamma                 59.2093
loop_
_atom_site_label
_atom_site_type_symbol
_atom_site_fract_x
_atom_site_fract_y
_atom_site_fract_z
_atom_site_U_iso_or_equiv
_atom_site_adp_type
_atom_site_occupancy
C1     C     0.18195   0.04083   0.99023   0.00000  Uiso   1.00
C2     C     0.23269   0.07605   0.90996   0.00000  Uiso   1.00
C3     C     0.19845   0.16109   0.91087   0.00000  Uiso   1.00
C4     C     0.11148   0.21393   0.98934   0.00000  Uiso   1.00
C5     C     0.06000   0.17940   0.06913   0.00000  Uiso   1.00
C6     C     0.09512   0.09402   0.06911   0.00000  Uiso   1.00
C7     C     0.01015   0.35170   0.94706   0.00000  Uiso   1.00
C8     C     0.97387   0.44156   0.95937   0.00000  Uiso   1.00
C9     C     0.02133   0.48144   0.95498   0.00000  Uiso   1.00
C10    C     0.88402   0.49146   0.98472   0.00000  Uiso   1.00
C11    C     0.97990   0.56801   0.98891   0.00000  Uiso   1.00
C12    C     0.84022   0.57775   0.01726   0.00000  Uiso   1.00
C13    C     0.88963   0.61434   0.02398   0.00000  Uiso   1.00
C14    C     0.03401   0.60424   0.97756   0.00000  Uiso   1.00
C15    C     0.74685   0.63011   0.05127   0.00000  Uiso   1.00
C16    C     0.16225   0.37921   0.77970   0.00000  Uiso   1.00
C17    C     0.80223   0.42795   0.14645   0.00000  Uiso   1.00
C18    C     0.81811   0.76060   0.94821   0.00000  Uiso   1.00
C19    C     0.22042   0.94997   0.99324   0.00000  Uiso   1.00
C20    C     0.21127   0.82647   0.97250   0.00000  Uiso   1.00
C21    C     0.34323   0.81308   0.01936   0.00000  Uiso   1.00
C22    C     0.15918   0.78910   0.96248   0.00000  Uiso   1.00
C23    C     0.19440   0.71176   0.87650   0.00000  Uiso   1.00
C24    C     0.07153   0.83023   0.04721   0.00000  Uiso   1.00
C25    C     0.14539   0.67512   0.88153   0.00000  Uiso   1.00
C26    C     0.02214   0.79436   0.05145   0.00000  Uiso   1.00
C27    C     0.05852   0.71499   0.97456   0.00000  Uiso   1.00
C28    C     0.43389   0.76155   0.03335   0.00000  Uiso   1.00
C29    C     0.49155   0.78969   0.95765   0.00000  Uiso   1.00
C30    C     0.46645   0.68262   0.11234   0.00000  Uiso   1.00
C31    C     0.57815   0.74082   0.95692   0.00000  Uiso   1.00
C32    C     0.55341   0.63237   0.10819   0.00000  Uiso   1.00
C33    C     0.61047   0.66083   0.02999   0.00000  Uiso   1.00
C34    C     0.17480   0.91274   0.96827   0.00000  Uiso   1.00
C35    C     0.30394   0.89962   0.02121   0.00000  Uiso   1.00
C36    C     0.29587   0.77728   0.99562   0.00000  Uiso   1.00
C37    C     0.15285   0.11683   0.47754   0.00000  Uiso   1.00
C38    C     0.20319   0.15237   0.39463   0.00000  Uiso   1.00
C39    C     0.16929   0.23744   0.39543   0.00000  Uiso   1.00
C40    C     0.08220   0.29044   0.47220   0.00000  Uiso   1.00
C41    C     0.03050   0.25585   0.55014   0.00000  Uiso   1.00
C42    C     0.06588   0.17051   0.55497   0.00000  Uiso   1.00
C43    C     0.97816   0.42898   0.44838   0.00000  Uiso   1.00
C44    C     0.94044   0.51829   0.47336   0.00000  Uiso   1.00
C45    C     0.98696   0.55626   0.49220   0.00000  Uiso   1.00
C46    C     0.85182   0.56960   0.48080   0.00000  Uiso   1.00
C47    C     0.94804   0.64281   0.51367   0.00000  Uiso   1.00
C48    C     0.80998   0.65632   0.50377   0.00000  Uiso   1.00
C49    C     0.85974   0.69175   0.51472   0.00000  Uiso   1.00
C50    C     0.00068   0.67724   0.53427   0.00000  Uiso   1.00
C51    C     0.71802   0.71025   0.51390   0.00000  Uiso   1.00
C52    C     0.13582   0.48456   0.32966   0.00000  Uiso   1.00
C53    C     0.76180   0.51144   0.61898   0.00000  Uiso   1.00
C54    C     0.81254   0.82845   0.38559   0.00000  Uiso   1.00
C55    C     0.19082   0.02601   0.48473   0.00000  Uiso   1.00
C56    C     0.17756   0.90271   0.49926   0.00000  Uiso   1.00
C57    C     0.31641   0.88853   0.48984   0.00000  Uiso   1.00
C58    C     0.12539   0.86345   0.50965   0.00000  Uiso   1.00
C59    C     0.16211   0.78437   0.43092   0.00000  Uiso   1.00
C60    C     0.03832   0.90305   0.59936   0.00000  Uiso   1.00
C61    C     0.11418   0.74659   0.43811   0.00000  Uiso   1.00
C62    C     0.98951   0.86619   0.60570   0.00000  Uiso   1.00
C63    C     0.02681   0.78716   0.52603   0.00000  Uiso   1.00
C64    C     0.40891   0.83560   0.48421   0.00000  Uiso   1.00
C65    C     0.46663   0.86241   0.39773   0.00000  Uiso   1.00
C66    C     0.44223   0.75633   0.56150   0.00000  Uiso   1.00
C67    C     0.55354   0.81380   0.39488   0.00000  Uiso   1.00
C68    C     0.52913   0.70649   0.55604   0.00000  Uiso   1.00
C69    C     0.58551   0.73564   0.47737   0.00000  Uiso   1.00
C70    C     0.14137   0.98893   0.49032   0.00000  Uiso   1.00
C71    C     0.27793   0.97499   0.48682   0.00000  Uiso   1.00
C72    C     0.26518   0.85339   0.49728   0.00000  Uiso   1.00
N73    N     0.08032   0.29914   0.99525   0.00000  Uiso   1.00
N74    N     0.00457   0.68236   0.99174   0.00000  Uiso   1.00
N75    N     0.69866   0.60712   0.01003   0.00000  Uiso   1.00
N76    N     0.05109   0.37540   0.48369   0.00000  Uiso   1.00
N77    N     0.97445   0.75489   0.52196   0.00000  Uiso   1.00
N78    N     0.67246   0.68379   0.47420   0.00000  Uiso   1.00
O79    O     0.10949   0.44055   0.92827   0.00000  Uiso   1.00
O80    O     0.83870   0.45153   0.97166   0.00000  Uiso   1.00
O81    O     0.84663   0.69717   0.08599   0.00000  Uiso   1.00
O82    O     0.07348   0.50705   0.50443   0.00000  Uiso   1.00
O83    O     0.80647   0.53240   0.45216   0.00000  Uiso   1.00
O84    O     0.81683   0.77777   0.54889   0.00000  Uiso   1.00
H85    H     0.30283   0.03475   0.84305   0.00000  Uiso   1.00
H86    H     0.24075   0.18839   0.84797   0.00000  Uiso   1.00
H87    H    -0.01033   0.22124   0.13368   0.00000  Uiso   1.00
H88    H     0.05236   0.06745   0.13429   0.00000  Uiso   1.00
H89    H    -0.02429   0.32606   0.89287   0.00000  Uiso   1.00
H90    H     0.10616   0.56277   0.95508   0.00000  Uiso   1.00
H91    H     0.71420   0.69406   0.11681   0.00000  Uiso   1.00
H92    H     0.14256   0.40701   0.64433   0.00000  Uiso   1.00
H93    H     0.15336   0.32348   0.81177   0.00000  Uiso   1.00
H94    H     0.83035   0.35830   0.14717   0.00000  Uiso   1.00
H95    H     0.73010   0.45980   0.16401   0.00000  Uiso   1.00
H96    H     0.76013   0.76579   0.91008   0.00000  Uiso   1.00
H97    H     0.87166   0.74342   0.81979   0.00000  Uiso   1.00
H98    H     0.26421   0.67795   0.80101   0.00000  Uiso   1.00
H99    H     0.04018   0.89383   0.11354   0.00000  Uiso   1.00
H100   H     0.17525   0.61275   0.81050   0.00000  Uiso   1.00
H101   H    -0.04884   0.82912   0.11773   0.00000  Uiso   1.00
H102   H     0.46753   0.85358   0.89546   0.00000  Uiso   1.00
H103   H     0.42146   0.65895   0.18103   0.00000  Uiso   1.00
H104   H     0.62321   0.76538   0.89717   0.00000  Uiso   1.00
H105   H     0.57861   0.56800   0.16818   0.00000  Uiso   1.00
H106   H     0.10729   0.95247   0.94418   0.00000  Uiso   1.00
H107   H     0.34121   0.92875   0.04601   0.00000  Uiso   1.00
H108   H     0.32713   0.70727   0.99533   0.00000  Uiso   1.00
H109   H     0.27302   0.11126   0.32526   0.00000  Uiso   1.00
H110   H     0.21201   0.26442   0.33386   0.00000  Uiso   1.00
H111   H    -0.04043   0.29772   0.60940   0.00000  Uiso   1.00
H112   H     0.02438   0.14285   0.62239   0.00000  Uiso   1.00
H113   H     0.94249   0.40440   0.39546   0.00000  Uiso   1.00
H114   H     0.06714   0.63474   0.56213   0.00000  Uiso   1.00
H115   H     0.68510   0.77767   0.55799   0.00000  Uiso   1.00
H116   H     0.10388   0.52508   0.21595   0.00000  Uiso   1.00
H117   H     0.16224   0.41716   0.29450   0.00000  Uiso   1.00
H118   H     0.79418   0.44158   0.63129   0.00000  Uiso   1.00
H119   H     0.69265   0.53734   0.61069   0.00000  Uiso   1.00
H120   H     0.81980   0.79352   0.26089   0.00000  Uiso   1.00
H121   H     0.86608   0.84322   0.35990   0.00000  Uiso   1.00
H122   H     0.23247   0.75001   0.35948   0.00000  Uiso   1.00
H123   H     0.00688   0.96618   0.66809   0.00000  Uiso   1.00
H124   H     0.14539   0.68277   0.37298   0.00000  Uiso   1.00
H125   H     0.91893   0.89987   0.67558   0.00000  Uiso   1.00
H126   H     0.44246   0.92487   0.32847   0.00000  Uiso   1.00
H127   H     0.39773   0.73207   0.62998   0.00000  Uiso   1.00
H128   H     0.59880   0.83714   0.32597   0.00000  Uiso   1.00
H129   H     0.55482   0.64196   0.61527   0.00000  Uiso   1.00
H130   H     0.07085   1.02881   0.48763   0.00000  Uiso   1.00
H131   H     0.31742   1.00519   0.48602   0.00000  Uiso   1.00
H132   H     0.29603   0.78344   0.50175   0.00000  Uiso   1.00
H133   H     0.23209   0.35917   0.76683   0.00000  Uiso   1.00
H134   H     0.81771   0.44731   0.26487   0.00000  Uiso   1.00
H135   H     0.80023   0.82221   1.00698   0.00000  Uiso   1.00
H136   H     0.19012   0.49383   0.34177   0.00000  Uiso   1.00
H137   H     0.76374   0.53905   0.74501   0.00000  Uiso   1.00
H138   H     0.74839   0.88822   0.40834   0.00000  Uiso   1.00
loop_
_geom_bond_atom_site_label_1
_geom_bond_atom_site_label_2
_geom_bond_distance
_geom_bond_site_symmetry_2
_ccdc_geom_bond_type
C1     C2      1.411   .     D
C1     C6      1.411   1_556 S
C1     C19     1.483   1_545 S
C2     C3      1.392   .     S
C2     H85     1.140   .     S
C3     C4      1.411   .     D
C3     H86     1.140   .     S
C4     N73     1.406   .     S
C4     C5      1.411   1_556 S
C5     C6      1.396   .     D
C5     H87     1.140   .     S
C5     C4      1.411   1_554 S
C6     H88     1.140   .     S
C6     C1      1.411   1_554 S
C7     N73     1.286   .     D
C7     H89     1.140   .     S
C7     C8      1.475   1_455 S
C8     C10     1.418   .     D
C8     C7      1.475   1_655 S
C8     C9      1.422   1_655 S
C9     O79     1.388   .     S
C9     C8      1.422   1_455 S
C9     C11     1.427   1_455 D
C10    O80     1.417   .     S
C10    C12     1.418   1_556 S
C11    C9      1.427   1_655 D
C11    C13     1.417   1_556 S
C11    C14     1.468   1_655 S
C12    C13     1.421   .     D
C12    C15     1.471   .     S
C12    C10     1.418   1_554 S
C13    O81     1.413   .     S
C13    C11     1.417   1_554 S
C14    N74     1.291   .     D
C14    H90     1.140   .     S
C14    C11     1.468   1_455 S
C15    N75     1.288   .     D
C15    H91     1.140   .     S
C16    O79     1.458   .     S
C16    H92     1.140   .     S
C16    H93     1.140   .     S
C16    H133    1.140   .     S
C17    H94     1.140   .     S
C17    H95     1.140   .     S
C17    H134    1.140   .     S
C17    O80     1.458   1_554 S
C18    H96     1.140   .     S
C18    H97     1.140   .     S
C18    H135    1.140   .     S
C18    O81     1.457   1_556 S
C19    C34     1.406   .     D
C19    C1      1.483   1_565 S
C19    C35     1.408   1_556 S
C20    C22     1.484   .     S
C20    C34     1.409   .     S
C20    C36     1.410   .     D
C21    C28     1.485   .     S
C21    C35     1.408   .     D
C21    C36     1.410   1_554 S
C22    C23     1.412   .     D
C22    C24     1.412   1_556 S
C23    C25     1.396   .     S
C23    H98     1.140   .     S
C24    C26     1.391   .     D
C24    H99     1.140   .     S
C24    C22     1.412   1_554 S
C25    C27     1.416   .     D
C25    H100    1.140   .     S
C26    H101    1.140   .     S
C26    C27     1.412   1_554 S
C27    N74     1.404   .     S
C27    C26     1.412   1_556 S
C28    C30     1.413   .     D
C28    C29     1.412   1_554 S
C29    C31     1.393   .     D
C29    H102    1.140   .     S
C29    C28     1.412   1_556 S
C30    C32     1.396   .     S
C30    H103    1.140   .     S
C31    H104    1.140   .     S
C31    C33     1.412   1_556 S
C32    C33     1.410   .     D
C32    H105    1.140   .     S
C33    N75     1.405   .     S
C33    C31     1.412   1_554 S
C34    H106    1.140   .     S
C35    H107    1.140   .     S
C35    C19     1.408   1_554 S
C36    H108    1.140   .     S
C36    C21     1.410   1_556 S
C37    C38     1.414   .     S
C37    C42     1.412   .     D
C37    C55     1.484   .     S
C38    C39     1.394   .     D
C38    H109    1.140   .     S
C39    C40     1.410   .     S
C39    H110    1.140   .     S
C40    C41     1.413   .     D
C40    N76     1.404   .     S
C41    C42     1.395   .     S
C41    H111    1.140   .     S
C42    H112    1.140   .     S
C43    C44     1.471   .     S
C43    H113    1.140   .     S
C43    N76     1.287   1_655 D
C44    C45     1.418   .     D
C44    C46     1.418   .     S
C45    C47     1.418   .     S
C45    O82     1.415   1_655 S
C46    C48     1.418   .     D
C46    O83     1.410   .     S
C47    C49     1.419   .     D
C47    C50     1.472   1_655 S
C48    C49     1.417   .     S
C48    C51     1.470   .     S
C49    O84     1.416   .     S
C50    H114    1.140   .     S
C50    C47     1.472   1_455 S
C50    N77     1.287   1_455 D
C51    N78     1.286   .     D
C51    H115    1.140   .     S
C52    O82     1.457   .     S
C52    H116    1.140   .     S
C52    H117    1.140   .     S
C52    H136    1.140   .     S
C53    O83     1.462   .     S
C53    H118    1.140   .     S
C53    H119    1.140   .     S
C53    H137    1.140   .     S
C54    O84     1.459   .     S
C54    H120    1.140   .     S
C54    H121    1.140   .     S
C54    H138    1.140   .     S
C55    C70     1.409   1_545 S
C55    C71     1.409   1_545 D
C56    C58     1.483   .     S
C56    C70     1.409   .     D
C56    C72     1.408   .     S
C57    C64     1.482   .     S
C57    C71     1.408   .     S
C57    C72     1.407   .     D
C58    C59     1.412   .     D
C58    C60     1.413   .     S
C59    C61     1.393   .     S
C59    H122    1.140   .     S
C60    H123    1.140   .     S
C60    C62     1.394   1_455 D
C61    C63     1.414   .     D
C61    H124    1.140   .     S
C62    H125    1.140   .     S
C62    C60     1.394   1_655 D
C62    C63     1.412   1_655 S
C63    C62     1.412   1_455 S
C63    N77     1.400   1_455 S
C64    C65     1.412   .     D
C64    C66     1.413   .     S
C65    C67     1.395   .     S
C65    H126    1.140   .     S
C66    C68     1.393   .     D
C66    H127    1.140   .     S
C67    C69     1.413   .     D
C67    H128    1.140   .     S
C68    C69     1.410   .     S
C68    H129    1.140   .     S
C69    N78     1.400   .     S
C70    H130    1.140   .     S
C70    C55     1.409   1_565 S
C71    H131    1.140   .     S
C71    C55     1.409   1_565 D
C72    H132    1.140   .     S
N76    C43     1.287   1_455 D
N77    C50     1.287   1_655 D
N77    C63     1.400   1_655 S
O80    C17     1.458   1_556 S
O81    C18     1.457   1_554 S
O82    C45     1.415   1_455 S
