data_557
_audit_creation_date              2023-09-08
_audit_creation_method            'Materials Studio'
_symmetry_space_group_name_H-M    'P1'
_symmetry_Int_Tables_number       1
_symmetry_cell_setting            triclinic
loop_
_symmetry_equiv_pos_as_xyz
  x,y,z
_cell_length_a                    22.5560
_cell_length_b                    22.5560
_cell_length_c                    3.4000
_cell_angle_alpha                 90.0000
_cell_angle_beta                  90.0000
_cell_angle_gamma                 120.0000
loop_
_atom_site_label
_atom_site_type_symbol
_atom_site_fract_x
_atom_site_fract_y
_atom_site_fract_z
_atom_site_U_iso_or_equiv
_atom_site_adp_type
_atom_site_occupancy
O1     O     0.28355   0.52709   0.50000   0.00000  Uiso   1.00
O2     O     0.47291   0.75646   0.50000   0.00000  Uiso   1.00
O3     O     0.24354   0.71645   0.50000   0.00000  Uiso   1.00
O4     O     0.71645   0.47291   0.50000   0.00000  Uiso   1.00
O5     O     0.52709   0.24354   0.50000   0.00000  Uiso   1.00
O6     O     0.75646   0.28355   0.50000   0.00000  Uiso   1.00
N7     N     0.41129   0.55212   0.50000   0.00000  Uiso   1.00
N8     N     0.44788   0.85917   0.50000   0.00000  Uiso   1.00
N9     N     0.14083   0.58871   0.50000   0.00000  Uiso   1.00
N10    N     0.58871   0.44788   0.50000   0.00000  Uiso   1.00
N11    N     0.55212   0.14083   0.50000   0.00000  Uiso   1.00
N12    N     0.85917   0.41129   0.50000   0.00000  Uiso   1.00
C13    C     0.30695   0.59146   0.50000   0.00000  Uiso   1.00
C14    C     0.40854   0.71549   0.50000   0.00000  Uiso   1.00
C15    C     0.28451   0.69305   0.50000   0.00000  Uiso   1.00
C16    C     0.69305   0.40854   0.50000   0.00000  Uiso   1.00
C17    C     0.59146   0.28451   0.50000   0.00000  Uiso   1.00
C18    C     0.71549   0.30695   0.50000   0.00000  Uiso   1.00
C19    C     0.38113   0.64063   0.50000   0.00000  Uiso   1.00
C20    C     0.35937   0.74050   0.50000   0.00000  Uiso   1.00
C21    C     0.25950   0.61887   0.50000   0.00000  Uiso   1.00
C22    C     0.61887   0.35937   0.50000   0.00000  Uiso   1.00
C23    C     0.64063   0.25950   0.50000   0.00000  Uiso   1.00
C24    C     0.74050   0.38113   0.50000   0.00000  Uiso   1.00
C25    C     0.42797   0.61784   0.50000   0.00000  Uiso   1.00
C26    C     0.38216   0.81013   0.50000   0.00000  Uiso   1.00
C27    C     0.18987   0.57203   0.50000   0.00000  Uiso   1.00
C28    C     0.57203   0.38216   0.50000   0.00000  Uiso   1.00
C29    C     0.61784   0.18987   0.50000   0.00000  Uiso   1.00
C30    C     0.81013   0.42797   0.50000   0.00000  Uiso   1.00
C31    C     0.45481   0.52704   0.50000   0.00000  Uiso   1.00
C32    C     0.47296   0.92777   0.50000   0.00000  Uiso   1.00
C33    C     0.07223   0.54519   0.50000   0.00000  Uiso   1.00
C34    C     0.54519   0.47296   0.50000   0.00000  Uiso   1.00
C35    C     0.52704   0.07223   0.50000   0.00000  Uiso   1.00
C36    C     0.92777   0.45481   0.50000   0.00000  Uiso   1.00
C37    C     0.42936   0.45590   0.50000   0.00000  Uiso   1.00
C38    C     0.54410   0.97346   0.50000   0.00000  Uiso   1.00
C39    C     0.02654   0.57064   0.50000   0.00000  Uiso   1.00
C40    C     0.57064   0.54410   0.50000   0.00000  Uiso   1.00
C41    C     0.45590   0.02654   0.50000   0.00000  Uiso   1.00
C42    C     0.97346   0.42936   0.50000   0.00000  Uiso   1.00
C43    C     0.52674   0.57065   0.50000   0.00000  Uiso   1.00
C44    C     0.42935   0.95609   0.50000   0.00000  Uiso   1.00
C45    C     0.04391   0.47326   0.50000   0.00000  Uiso   1.00
C46    C     0.47326   0.42935   0.50000   0.00000  Uiso   1.00
C47    C     0.57065   0.04391   0.50000   0.00000  Uiso   1.00
C48    C     0.95609   0.52674   0.50000   0.00000  Uiso   1.00
H49    H     0.37353   0.42043   0.50000   0.00000  Uiso   1.00
H50    H     0.57957   0.95310   0.50000   0.00000  Uiso   1.00
H51    H     0.04690   0.62647   0.50000   0.00000  Uiso   1.00
H52    H     0.62647   0.57957   0.50000   0.00000  Uiso   1.00
H53    H     0.42043   0.04690   0.50000   0.00000  Uiso   1.00
H54    H     0.95310   0.37353   0.50000   0.00000  Uiso   1.00
H55    H     0.48370   0.65597   0.50000   0.00000  Uiso   1.00
H56    H     0.34403   0.82773   0.50000   0.00000  Uiso   1.00
H57    H     0.17227   0.51630   0.50000   0.00000  Uiso   1.00
H58    H     0.51630   0.34403   0.50000   0.00000  Uiso   1.00
H59    H     0.65597   0.17227   0.50000   0.00000  Uiso   1.00
H60    H     0.82773   0.48370   0.50000   0.00000  Uiso   1.00
H61    H     0.54893   0.62685   0.50000   0.00000  Uiso   1.00
H62    H     0.37315   0.92208   0.50000   0.00000  Uiso   1.00
H63    H     0.07792   0.45107   0.50000   0.00000  Uiso   1.00
H64    H     0.45107   0.37315   0.50000   0.00000  Uiso   1.00
H65    H     0.62685   0.07792   0.50000   0.00000  Uiso   1.00
H66    H     0.92208   0.54893   0.50000   0.00000  Uiso   1.00
H67    H     0.35757   0.51744   0.50000   0.00000  Uiso   1.00
H68    H     0.48256   0.84013   0.50000   0.00000  Uiso   1.00
H69    H     0.15987   0.64243   0.50000   0.00000  Uiso   1.00
H70    H     0.64243   0.48256   0.50000   0.00000  Uiso   1.00
H71    H     0.51744   0.15987   0.50000   0.00000  Uiso   1.00
H72    H     0.84013   0.35757   0.50000   0.00000  Uiso   1.00
loop_
_geom_bond_atom_site_label_1
_geom_bond_atom_site_label_2
_geom_bond_distance
_geom_bond_site_symmetry_2
_ccdc_geom_bond_type
O1     C13     1.273   .     D
O2     C14     1.273   .     D
O3     C15     1.273   .     D
O4     C16     1.273   .     D
O5     C17     1.273   .     D
O6     C18     1.273   .     D
N7     C25     1.335   .     S
N7     C31     1.356   .     S
N7     H67     1.064   .     S
N8     C26     1.335   .     S
N8     C32     1.356   .     S
N8     H68     1.064   .     S
N9     C27     1.335   .     S
N9     C33     1.356   .     S
N9     H69     1.064   .     S
N10    C28     1.335   .     S
N10    C34     1.356   .     S
N10    H70     1.064   .     S
N11    C29     1.335   .     S
N11    C35     1.356   .     S
N11    H71     1.064   .     S
N12    C30     1.335   .     S
N12    C36     1.356   .     S
N12    H72     1.064   .     S
C13    C19     1.474   .     S
C13    C21     1.480   .     S
C14    C19     1.480   .     S
C14    C20     1.474   .     S
C15    C20     1.480   .     S
C15    C21     1.474   .     S
C16    C22     1.474   .     S
C16    C24     1.480   .     S
C17    C22     1.480   .     S
C17    C23     1.474   .     S
C18    C23     1.480   .     S
C18    C24     1.474   .     S
C19    C25     1.387   .     D
C20    C26     1.387   .     D
C21    C27     1.387   .     D
C22    C28     1.387   .     D
C23    C29     1.387   .     D
C24    C30     1.387   .     D
C25    H55     1.113   .     S
C26    H56     1.113   .     S
C27    H57     1.113   .     S
C28    H58     1.113   .     S
C29    H59     1.113   .     S
C30    H60     1.113   .     S
C31    C37     1.408   .     S
C31    C43     1.416   .     D
C32    C38     1.408   .     D
C32    C44     1.416   .     S
C33    C39     1.408   .     S
C33    C45     1.416   .     D
C34    C40     1.408   .     D
C34    C46     1.416   .     S
C35    C41     1.408   .     S
C35    C47     1.416   .     D
C36    C42     1.408   .     D
C36    C48     1.416   .     S
C37    C46     1.390   .     D
C37    H49     1.104   .     S
C38    C47     1.390   1_565 S
C38    H50     1.104   .     S
C39    C48     1.390   1_455 D
C39    H51     1.104   .     S
C40    C43     1.390   .     S
C40    H52     1.104   .     S
C41    C44     1.390   1_545 D
C41    H53     1.104   .     S
C42    C45     1.390   1_655 S
C42    H54     1.104   .     S
C43    H61     1.106   .     S
C44    C41     1.390   1_565 D
C44    H62     1.106   .     S
C45    C42     1.390   1_455 S
C45    H63     1.106   .     S
C46    H64     1.106   .     S
C47    C38     1.390   1_545 S
C47    H65     1.106   .     S
C48    C39     1.390   1_655 D
C48    H66     1.106   .     S
