data_558
_audit_creation_date              2023-09-08
_audit_creation_method            'Materials Studio'
_symmetry_space_group_name_H-M    'P1'
_symmetry_Int_Tables_number       1
_symmetry_cell_setting            triclinic
loop_
_symmetry_equiv_pos_as_xyz
  x,y,z
_cell_length_a                    22.5560
_cell_length_b                    22.5560
_cell_length_c                    3.4000
_cell_angle_alpha                 90.0000
_cell_angle_beta                  90.0000
_cell_angle_gamma                 120.0000
loop_
_atom_site_label
_atom_site_type_symbol
_atom_site_fract_x
_atom_site_fract_y
_atom_site_fract_z
_atom_site_U_iso_or_equiv
_atom_site_adp_type
_atom_site_occupancy
O1     O     0.28355   0.52709   0.50000   0.00000  Uiso   1.00
N2     N     0.41129   0.55212   0.50000   0.00000  Uiso   1.00
C3     C     0.30695   0.59146   0.50000   0.00000  Uiso   1.00
C4     C     0.38113   0.64063   0.50000   0.00000  Uiso   1.00
C5     C     0.42797   0.61784   0.50000   0.00000  Uiso   1.00
C6     C     0.45481   0.52704   0.50000   0.00000  Uiso   1.00
C7     C     0.42936   0.45590   0.50000   0.00000  Uiso   1.00
C8     C     0.52674   0.57065   0.50000   0.00000  Uiso   1.00
H9     H     0.37353   0.42043   0.50000   0.00000  Uiso   1.00
H10    H     0.48370   0.65597   0.50000   0.00000  Uiso   1.00
H11    H     0.35757   0.51744   0.50000   0.00000  Uiso   1.00
O12    O     0.47291   0.75646   0.50000   0.00000  Uiso   1.00
N13    N     0.44788   0.85917   0.50000   0.00000  Uiso   1.00
C14    C     0.40854   0.71549   0.50000   0.00000  Uiso   1.00
C15    C     0.35937   0.74050   0.50000   0.00000  Uiso   1.00
C16    C     0.38216   0.81013   0.50000   0.00000  Uiso   1.00
C17    C     0.47296   0.92777   0.50000   0.00000  Uiso   1.00
C18    C     0.54410   0.97346   0.50000   0.00000  Uiso   1.00
C19    C     0.42935   0.95609   0.50000   0.00000  Uiso   1.00
H20    H     0.57957   0.95310   0.50000   0.00000  Uiso   1.00
H21    H     0.34403   0.82773   0.50000   0.00000  Uiso   1.00
H22    H     0.48256   0.84013   0.50000   0.00000  Uiso   1.00
O23    O     0.24354   0.71645   0.50000   0.00000  Uiso   1.00
N24    N     0.14083   0.58871   0.50000   0.00000  Uiso   1.00
C25    C     0.28451   0.69305   0.50000   0.00000  Uiso   1.00
C26    C     0.25950   0.61887   0.50000   0.00000  Uiso   1.00
C27    C     0.18987   0.57203   0.50000   0.00000  Uiso   1.00
C28    C     0.07223   0.54519   0.50000   0.00000  Uiso   1.00
C29    C     0.02654   0.57064   0.50000   0.00000  Uiso   1.00
C30    C     0.04391   0.47326   0.50000   0.00000  Uiso   1.00
H31    H     0.04690   0.62647   0.50000   0.00000  Uiso   1.00
H32    H     0.17227   0.51630   0.50000   0.00000  Uiso   1.00
H33    H     0.15987   0.64243   0.50000   0.00000  Uiso   1.00
O34    O     0.71645   0.47291   0.50000   0.00000  Uiso   1.00
N35    N     0.58871   0.44788   0.50000   0.00000  Uiso   1.00
C36    C     0.69305   0.40854   0.50000   0.00000  Uiso   1.00
C37    C     0.61887   0.35937   0.50000   0.00000  Uiso   1.00
C38    C     0.57203   0.38216   0.50000   0.00000  Uiso   1.00
C39    C     0.54519   0.47296   0.50000   0.00000  Uiso   1.00
C40    C     0.57064   0.54410   0.50000   0.00000  Uiso   1.00
C41    C     0.47326   0.42935   0.50000   0.00000  Uiso   1.00
H42    H     0.62647   0.57957   0.50000   0.00000  Uiso   1.00
H43    H     0.51630   0.34403   0.50000   0.00000  Uiso   1.00
H44    H     0.64243   0.48256   0.50000   0.00000  Uiso   1.00
O45    O     0.52709   0.24354   0.50000   0.00000  Uiso   1.00
N46    N     0.55212   0.14083   0.50000   0.00000  Uiso   1.00
C47    C     0.59146   0.28451   0.50000   0.00000  Uiso   1.00
C48    C     0.64063   0.25950   0.50000   0.00000  Uiso   1.00
C49    C     0.61784   0.18987   0.50000   0.00000  Uiso   1.00
C50    C     0.52704   0.07223   0.50000   0.00000  Uiso   1.00
C51    C     0.45590   0.02654   0.50000   0.00000  Uiso   1.00
C52    C     0.57065   0.04391   0.50000   0.00000  Uiso   1.00
H53    H     0.42043   0.04690   0.50000   0.00000  Uiso   1.00
H54    H     0.65597   0.17227   0.50000   0.00000  Uiso   1.00
H55    H     0.51744   0.15987   0.50000   0.00000  Uiso   1.00
O56    O     0.75646   0.28355   0.50000   0.00000  Uiso   1.00
N57    N     0.85917   0.41129   0.50000   0.00000  Uiso   1.00
C58    C     0.71549   0.30695   0.50000   0.00000  Uiso   1.00
C59    C     0.74050   0.38113   0.50000   0.00000  Uiso   1.00
C60    C     0.81013   0.42797   0.50000   0.00000  Uiso   1.00
C61    C     0.92777   0.45481   0.50000   0.00000  Uiso   1.00
C62    C     0.97346   0.42936   0.50000   0.00000  Uiso   1.00
C63    C     0.95609   0.52674   0.50000   0.00000  Uiso   1.00
H64    H     0.95310   0.37353   0.50000   0.00000  Uiso   1.00
H65    H     0.82773   0.48370   0.50000   0.00000  Uiso   1.00
H66    H     0.84013   0.35757   0.50000   0.00000  Uiso   1.00
F67    F     0.56363   0.63977   0.50000   0.00000  Uiso   1.00
F68    F     0.43638   0.36023   0.50001   0.00000  Uiso   1.00
F69    F     0.36023   0.92386   0.50000   0.00000  Uiso   1.00
F70    F     0.07614   0.43638   0.50000   0.00000  Uiso   1.00
F71    F     0.92386   0.56363   0.50000   0.00000  Uiso   1.00
F72    F     0.63977   0.07614   0.50000   0.00000  Uiso   1.00
loop_
_geom_bond_atom_site_label_1
_geom_bond_atom_site_label_2
_geom_bond_distance
_geom_bond_site_symmetry_2
_ccdc_geom_bond_type
O1     C3      1.273   .     D
N2     C5      1.335   .     S
N2     C6      1.356   .     S
N2     H11     1.064   .     S
C3     C4      1.474   .     S
C3     C26     1.480   .     S
C4     C5      1.387   .     D
C4     C14     1.480   .     S
C5     H10     1.113   .     S
C6     C7      1.408   .     S
C6     C8      1.416   .     D
C7     H9      1.104   .     S
C7     C41     1.390   .     D
C8     C40     1.390   .     S
C8     F67     1.351   .     S
O12    C14     1.273   .     D
N13    C16     1.335   .     S
N13    C17     1.356   .     S
N13    H22     1.064   .     S
C14    C15     1.474   .     S
C15    C16     1.387   .     D
C15    C25     1.480   .     S
C16    H21     1.113   .     S
C17    C18     1.408   .     D
C17    C19     1.416   .     S
C18    H20     1.104   .     S
C18    C52     1.390   1_565 S
C19    C51     1.390   1_565 D
C19    F69     1.351   .     S
O23    C25     1.273   .     D
N24    C27     1.335   .     S
N24    C28     1.356   .     S
N24    H33     1.064   .     S
C25    C26     1.474   .     S
C26    C27     1.387   .     D
C27    H32     1.113   .     S
C28    C29     1.408   .     S
C28    C30     1.416   .     D
C29    H31     1.104   .     S
C29    C63     1.390   1_455 D
C30    C62     1.390   1_455 S
C30    F70     1.351   .     S
O34    C36     1.273   .     D
N35    C38     1.335   .     S
N35    C39     1.356   .     S
N35    H44     1.064   .     S
C36    C37     1.474   .     S
C36    C59     1.480   .     S
C37    C38     1.387   .     D
C37    C47     1.480   .     S
C38    H43     1.113   .     S
C39    C40     1.408   .     D
C39    C41     1.416   .     S
C40    H42     1.104   .     S
C41    F68     1.351   .     S
O45    C47     1.273   .     D
N46    C49     1.335   .     S
N46    C50     1.356   .     S
N46    H55     1.064   .     S
C47    C48     1.474   .     S
C48    C49     1.387   .     D
C48    C58     1.480   .     S
C49    H54     1.113   .     S
C50    C51     1.408   .     S
C50    C52     1.416   .     D
C51    C19     1.390   1_545 D
C51    H53     1.104   .     S
C52    C18     1.390   1_545 S
C52    F72     1.351   .     S
O56    C58     1.273   .     D
N57    C60     1.335   .     S
N57    C61     1.356   .     S
N57    H66     1.064   .     S
C58    C59     1.474   .     S
C59    C60     1.387   .     D
C60    H65     1.113   .     S
C61    C62     1.408   .     D
C61    C63     1.416   .     S
C62    C30     1.390   1_655 S
C62    H64     1.104   .     S
C63    C29     1.390   1_655 D
C63    F71     1.351   .     S
