data_559
_audit_creation_date              2023-09-08
_audit_creation_method            'Materials Studio'
_symmetry_space_group_name_H-M    'P1'
_symmetry_Int_Tables_number       1
_symmetry_cell_setting            triclinic
loop_
_symmetry_equiv_pos_as_xyz
  x,y,z
_cell_length_a                    22.5060
_cell_length_b                    22.5060
_cell_length_c                    3.5000
_cell_angle_alpha                 90.0000
_cell_angle_beta                  90.0000
_cell_angle_gamma                 120.0000
loop_
_atom_site_label
_atom_site_type_symbol
_atom_site_fract_x
_atom_site_fract_y
_atom_site_fract_z
_atom_site_U_iso_or_equiv
_atom_site_adp_type
_atom_site_occupancy
H1     H     0.41048   0.08454   0.25720   0.00000  Uiso   1.00
H2     H     0.91546   0.32594   0.25720   0.00000  Uiso   1.00
H3     H     0.67406   0.58952   0.25720   0.00000  Uiso   1.00
H4     H     0.58952   0.91546   0.25720   0.00000  Uiso   1.00
H5     H     0.08454   0.67406   0.25720   0.00000  Uiso   1.00
H6     H     0.32594   0.41048   0.25720   0.00000  Uiso   1.00
H7     H     0.58952   0.91546  -0.25720   0.00000  Uiso   1.00
H8     H     0.08454   0.67406  -0.25720   0.00000  Uiso   1.00
H9     H     0.32594   0.41048  -0.25720   0.00000  Uiso   1.00
H10    H     0.41048   0.08454  -0.25720   0.00000  Uiso   1.00
H11    H     0.91546   0.32594  -0.25720   0.00000  Uiso   1.00
H12    H     0.67406   0.58952  -0.25720   0.00000  Uiso   1.00
O13    O     0.75767   0.28474   0.00000   0.00000  Uiso   1.00
O14    O     0.71526   0.47293   0.00000   0.00000  Uiso   1.00
O15    O     0.52707   0.24233   0.00000   0.00000  Uiso   1.00
O16    O     0.24233   0.71526   0.00000   0.00000  Uiso   1.00
O17    O     0.28474   0.52707   0.00000   0.00000  Uiso   1.00
O18    O     0.47293   0.75767   0.00000   0.00000  Uiso   1.00
N19    N     0.55288   0.14095   0.00000   0.00000  Uiso   1.00
N20    N     0.85905   0.41193   0.00000   0.00000  Uiso   1.00
N21    N     0.58807   0.44712   0.00000   0.00000  Uiso   1.00
N22    N     0.44712   0.85905   0.00000   0.00000  Uiso   1.00
N23    N     0.14095   0.58807   0.00000   0.00000  Uiso   1.00
N24    N     0.41193   0.55288   0.00000   0.00000  Uiso   1.00
C25    C     0.71612   0.30750   0.00000   0.00000  Uiso   1.00
C26    C     0.69250   0.40862   0.00000   0.00000  Uiso   1.00
C27    C     0.59138   0.28388   0.00000   0.00000  Uiso   1.00
C28    C     0.28388   0.69250   0.00000   0.00000  Uiso   1.00
C29    C     0.30750   0.59138   0.00000   0.00000  Uiso   1.00
C30    C     0.40862   0.71612   0.00000   0.00000  Uiso   1.00
C31    C     0.64138   0.25951   0.00000   0.00000  Uiso   1.00
C32    C     0.74049   0.38187   0.00000   0.00000  Uiso   1.00
C33    C     0.61813   0.35862   0.00000   0.00000  Uiso   1.00
C34    C     0.35862   0.74049   0.00000   0.00000  Uiso   1.00
C35    C     0.25951   0.61813   0.00000   0.00000  Uiso   1.00
C36    C     0.38187   0.64138   0.00000   0.00000  Uiso   1.00
C37    C     0.61889   0.18979   0.00000   0.00000  Uiso   1.00
C38    C     0.81021   0.42910   0.00000   0.00000  Uiso   1.00
C39    C     0.57090   0.38111   0.00000   0.00000  Uiso   1.00
C40    C     0.38111   0.81021   0.00000   0.00000  Uiso   1.00
C41    C     0.18979   0.57090   0.00000   0.00000  Uiso   1.00
C42    C     0.42910   0.61889   0.00000   0.00000  Uiso   1.00
C43    C     0.52653   0.07196   0.00000   0.00000  Uiso   1.00
C44    C     0.92804   0.45457   0.00000   0.00000  Uiso   1.00
C45    C     0.54543   0.47347   0.00000   0.00000  Uiso   1.00
C46    C     0.47347   0.92804   0.00000   0.00000  Uiso   1.00
C47    C     0.07196   0.54543   0.00000   0.00000  Uiso   1.00
C48    C     0.45457   0.52653   0.00000   0.00000  Uiso   1.00
C49    C     0.57020   0.04388   0.00000   0.00000  Uiso   1.00
C50    C     0.95612   0.52632   0.00000   0.00000  Uiso   1.00
C51    C     0.47368   0.42980   0.00000   0.00000  Uiso   1.00
C52    C     0.42980   0.95612   0.00000   0.00000  Uiso   1.00
C53    C     0.04388   0.47368   0.00000   0.00000  Uiso   1.00
C54    C     0.52632   0.57020   0.00000   0.00000  Uiso   1.00
C55    C     0.45438   0.02665   0.00000   0.00000  Uiso   1.00
C56    C     0.97335   0.42773   0.00000   0.00000  Uiso   1.00
C57    C     0.57227   0.54562   0.00000   0.00000  Uiso   1.00
C58    C     0.54562   0.97335   0.00000   0.00000  Uiso   1.00
C59    C     0.02665   0.57227   0.00000   0.00000  Uiso   1.00
C60    C     0.42773   0.45438   0.00000   0.00000  Uiso   1.00
C61    C     0.40464   0.05334   0.00000   0.00000  Uiso   1.00
C62    C     0.94666   0.35130   0.00000   0.00000  Uiso   1.00
C63    C     0.64870   0.59536   0.00000   0.00000  Uiso   1.00
C64    C     0.59536   0.94666   0.00000   0.00000  Uiso   1.00
C65    C     0.05334   0.64870   0.00000   0.00000  Uiso   1.00
C66    C     0.35130   0.40464   0.00000   0.00000  Uiso   1.00
H67    H     0.62629   0.07943   0.00000   0.00000  Uiso   1.00
H68    H     0.92057   0.54686   0.00000   0.00000  Uiso   1.00
H69    H     0.45314   0.37371   0.00000   0.00000  Uiso   1.00
H70    H     0.37371   0.92057   0.00000   0.00000  Uiso   1.00
H71    H     0.07943   0.45314   0.00000   0.00000  Uiso   1.00
H72    H     0.54686   0.62629   0.00000   0.00000  Uiso   1.00
H73    H     0.65699   0.17217   0.00000   0.00000  Uiso   1.00
H74    H     0.82783   0.48482   0.00000   0.00000  Uiso   1.00
H75    H     0.51518   0.34301   0.00000   0.00000  Uiso   1.00
H76    H     0.34301   0.82783   0.00000   0.00000  Uiso   1.00
H77    H     0.17217   0.51518   0.00000   0.00000  Uiso   1.00
H78    H     0.48482   0.65699   0.00000   0.00000  Uiso   1.00
H79    H     0.51897   0.16159   0.00000   0.00000  Uiso   1.00
H80    H     0.83841   0.35738   0.00000   0.00000  Uiso   1.00
H81    H     0.64262   0.48103   0.00000   0.00000  Uiso   1.00
H82    H     0.48103   0.83841   0.00000   0.00000  Uiso   1.00
H83    H     0.16159   0.64262   0.00000   0.00000  Uiso   1.00
H84    H     0.35738   0.51897   0.00000   0.00000  Uiso   1.00
H85    H     0.35038   0.00961   0.00000   0.00000  Uiso   1.00
H86    H     0.99039   0.34077   0.00000   0.00000  Uiso   1.00
H87    H     0.65923   0.64962   0.00000   0.00000  Uiso   1.00
H88    H     0.64962   0.99039   0.00000   0.00000  Uiso   1.00
H89    H     0.00961   0.65923   0.00000   0.00000  Uiso   1.00
H90    H     0.34077   0.35038   0.00000   0.00000  Uiso   1.00
loop_
_geom_bond_atom_site_label_1
_geom_bond_atom_site_label_2
_geom_bond_distance
_geom_bond_site_symmetry_2
_ccdc_geom_bond_type
H1     C61     1.108   .     S
H2     C62     1.108   .     S
H3     C63     1.108   .     S
H4     C64     1.108   .     S
H5     C65     1.108   .     S
H6     C66     1.108   .     S
H7     C64     1.108   .     S
H8     C65     1.108   .     S
H9     C66     1.108   .     S
H10    C61     1.108   .     S
H11    C62     1.108   .     S
H12    C63     1.108   .     S
O13    C25     1.271   .     D
O14    C26     1.271   .     D
O15    C27     1.271   .     D
O16    C28     1.271   .     D
O17    C29     1.271   .     D
O18    C30     1.271   .     D
N19    C37     1.335   .     S
N19    C43     1.357   .     S
N19    H79     1.074   .     S
N20    C38     1.335   .     S
N20    C44     1.357   .     S
N20    H80     1.074   .     S
N21    C39     1.335   .     S
N21    C45     1.357   .     S
N21    H81     1.074   .     S
N22    C40     1.335   .     S
N22    C46     1.357   .     S
N22    H82     1.074   .     S
N23    C41     1.335   .     S
N23    C47     1.357   .     S
N23    H83     1.074   .     S
N24    C42     1.335   .     S
N24    C48     1.357   .     S
N24    H84     1.074   .     S
C25    C31     1.476   .     S
C25    C32     1.478   .     S
C26    C32     1.476   .     S
C26    C33     1.478   .     S
C27    C31     1.478   .     S
C27    C33     1.476   .     S
C28    C34     1.476   .     S
C28    C35     1.478   .     S
C29    C35     1.476   .     S
C29    C36     1.478   .     S
C30    C34     1.478   .     S
C30    C36     1.476   .     S
C31    C37     1.387   .     D
C32    C38     1.387   .     D
C33    C39     1.387   .     D
C34    C40     1.387   .     D
C35    C41     1.387   .     D
C36    C42     1.387   .     D
C37    H73     1.110   .     S
C38    H74     1.110   .     S
C39    H75     1.110   .     S
C40    H76     1.110   .     S
C41    H77     1.110   .     S
C42    H78     1.110   .     S
C43    C49     1.409   .     S
C43    C55     1.422   .     D
C44    C50     1.409   .     S
C44    C56     1.422   .     D
C45    C51     1.409   .     D
C45    C57     1.422   .     S
C46    C52     1.409   .     D
C46    C58     1.422   .     S
C47    C53     1.409   .     D
C47    C59     1.422   .     S
C48    C54     1.409   .     S
C48    C60     1.422   .     D
C49    C58     1.396   1_545 D
C49    H67     1.106   .     S
C50    C59     1.396   1_655 D
C50    H68     1.106   .     S
C51    C60     1.396   .     S
C51    H69     1.106   .     S
C52    C55     1.396   1_565 S
C52    H70     1.106   .     S
C53    C56     1.396   1_455 S
C53    H71     1.106   .     S
C54    C57     1.396   .     D
C54    H72     1.106   .     S
C55    C52     1.396   1_545 S
C55    C61     1.512   .     S
C56    C53     1.396   1_655 S
C56    C62     1.512   .     S
C57    C63     1.512   .     S
C58    C49     1.396   1_565 D
C58    C64     1.512   .     S
C59    C50     1.396   1_455 D
C59    C65     1.512   .     S
C60    C66     1.512   .     S
C61    H85     1.122   .     S
C62    H86     1.122   .     S
C63    H87     1.122   .     S
C64    H88     1.122   .     S
C65    H89     1.122   .     S
C66    H90     1.122   .     S
