data_56
_audit_creation_date              2023-09-08
_audit_creation_method            'Materials Studio'
_symmetry_space_group_name_H-M    'P1'
_symmetry_Int_Tables_number       1
_symmetry_cell_setting            triclinic
loop_
_symmetry_equiv_pos_as_xyz
  x,y,z
_cell_length_a                    22.2250
_cell_length_b                    22.2250
_cell_length_c                    3.2675
_cell_angle_alpha                 90.0000
_cell_angle_beta                  90.0000
_cell_angle_gamma                 120.0000
loop_
_atom_site_label
_atom_site_type_symbol
_atom_site_fract_x
_atom_site_fract_y
_atom_site_fract_z
_atom_site_U_iso_or_equiv
_atom_site_adp_type
_atom_site_occupancy
O1     O     0.07690   0.48690   0.50000   0.00000  Uiso   1.00
O2     O     0.51310   0.59000   0.50000   0.00000  Uiso   1.00
O3     O     0.41000   0.92310   0.50000   0.00000  Uiso   1.00
O4     O     0.51310   0.92310   0.50000   0.00000  Uiso   1.00
O5     O     0.41000   0.48690   0.50000   0.00000  Uiso   1.00
O6     O     0.07690   0.59000   0.50000   0.00000  Uiso   1.00
C7     C     0.91930   0.40570   0.50000   0.00000  Uiso   1.00
C8     C     0.59430   0.51360   0.50000   0.00000  Uiso   1.00
C9     C     0.48640   0.08070   0.50000   0.00000  Uiso   1.00
C10    C     0.59430   0.08070   0.50000   0.00000  Uiso   1.00
C11    C     0.48640   0.40570   0.50000   0.00000  Uiso   1.00
C12    C     0.91930   0.51360   0.50000   0.00000  Uiso   1.00
C13    C     0.84780   0.36980   0.50000   0.00000  Uiso   1.00
C14    C     0.63020   0.47800   0.50000   0.00000  Uiso   1.00
C15    C     0.52200   0.15220   0.50000   0.00000  Uiso   1.00
C16    C     0.63020   0.15220   0.50000   0.00000  Uiso   1.00
C17    C     0.52200   0.36980   0.50000   0.00000  Uiso   1.00
C18    C     0.84780   0.47800   0.50000   0.00000  Uiso   1.00
C19    C     0.26850   0.60240   0.50000   0.00000  Uiso   1.00
C20    C     0.39760   0.66610   0.50000   0.00000  Uiso   1.00
C21    C     0.33390   0.73150   0.50000   0.00000  Uiso   1.00
C22    C     0.39760   0.73150   0.50000   0.00000  Uiso   1.00
C23    C     0.33390   0.60240   0.50000   0.00000  Uiso   1.00
C24    C     0.26850   0.66610   0.50000   0.00000  Uiso   1.00
C25    C     0.14500   0.54130   0.50000   0.00000  Uiso   1.00
C26    C     0.45870   0.60370   0.50000   0.00000  Uiso   1.00
C27    C     0.39630   0.85500   0.50000   0.00000  Uiso   1.00
C28    C     0.45870   0.85500   0.50000   0.00000  Uiso   1.00
C29    C     0.39630   0.54130   0.50000   0.00000  Uiso   1.00
C30    C     0.14500   0.60370   0.50000   0.00000  Uiso   1.00
C31    C     0.20490   0.53910   0.50000   0.00000  Uiso   1.00
C32    C     0.46090   0.66580   0.50000   0.00000  Uiso   1.00
C33    C     0.33420   0.79510   0.50000   0.00000  Uiso   1.00
C34    C     0.46090   0.79510   0.50000   0.00000  Uiso   1.00
C35    C     0.33420   0.53910   0.50000   0.00000  Uiso   1.00
C36    C     0.20490   0.66580   0.50000   0.00000  Uiso   1.00
H37    H     0.20210   0.48930   0.50000   0.00000  Uiso   1.00
H38    H     0.51070   0.71280   0.50000   0.00000  Uiso   1.00
H39    H     0.28720   0.79790   0.50000   0.00000  Uiso   1.00
H40    H     0.51070   0.79790   0.50000   0.00000  Uiso   1.00
H41    H     0.28720   0.48930   0.50000   0.00000  Uiso   1.00
H42    H     0.20210   0.71280   0.50000   0.00000  Uiso   1.00
H43    H     0.94720   0.37730   0.50000   0.00000  Uiso   1.00
H44    H     0.62270   0.56990   0.50000   0.00000  Uiso   1.00
H45    H     0.43010   0.05280   0.50000   0.00000  Uiso   1.00
H46    H     0.62270   0.05280   0.50000   0.00000  Uiso   1.00
H47    H     0.43010   0.37730   0.50000   0.00000  Uiso   1.00
H48    H     0.94720   0.56990   0.50000   0.00000  Uiso   1.00
H49    H     0.81890   0.31370   0.50000   0.00000  Uiso   1.00
H50    H     0.68630   0.50520   0.50000   0.00000  Uiso   1.00
H51    H     0.49480   0.18110   0.50000   0.00000  Uiso   1.00
H52    H     0.68630   0.18110   0.50000   0.00000  Uiso   1.00
H53    H     0.49480   0.31370   0.50000   0.00000  Uiso   1.00
H54    H     0.81890   0.50520   0.50000   0.00000  Uiso   1.00
N55    N     0.59590   0.29795   0.50000   0.00000  Uiso   1.00
N56    N     0.70205   0.29795   0.50000   0.00000  Uiso   1.00
N57    N     0.70205   0.40410   0.50000   0.00000  Uiso   1.00
C58    C     0.63260   0.26520   0.50000   0.00000  Uiso   1.00
C59    C     0.73480   0.36740   0.50000   0.00000  Uiso   1.00
C60    C     0.63260   0.36740   0.50000   0.00000  Uiso   1.00
C61    C     0.52185   0.04370   0.50000   0.00000  Uiso   1.00
C62    C     0.95630   0.47815   0.50000   0.00000  Uiso   1.00
C63    C     0.52185   0.47815   0.50000   0.00000  Uiso   1.00
C64    C     0.59435   0.18870   0.50000   0.00000  Uiso   1.00
C65    C     0.81130   0.40565   0.50000   0.00000  Uiso   1.00
C66    C     0.59435   0.40565   0.50000   0.00000  Uiso   1.00
B67    B     0.48220   0.96440   0.50000   0.00000  Uiso   1.00
B68    B     0.03560   0.51780   0.50000   0.00000  Uiso   1.00
B69    B     0.48220   0.51780   0.50000   0.00000  Uiso   1.00
loop_
_geom_bond_atom_site_label_1
_geom_bond_atom_site_label_2
_geom_bond_distance
_geom_bond_site_symmetry_2
_ccdc_geom_bond_type
O1     C25     1.387   .     S
O1     B68     1.394   .     S
O2     C26     1.387   .     S
O2     B69     1.394   .     S
O3     C27     1.387   .     S
O3     B67     1.394   .     S
O4     C28     1.387   .     S
O4     B67     1.394   .     S
O5     C29     1.387   .     S
O5     B69     1.394   .     S
O6     C30     1.387   .     S
O6     B68     1.394   .     S
C7     C13     1.376   .     D
C7     H43     1.084   .     S
C7     C62     1.395   .     S
C8     C14     1.376   .     D
C8     H44     1.084   .     S
C8     C63     1.395   .     S
C9     C15     1.376   .     S
C9     H45     1.084   .     S
C9     C61     1.395   .     D
C10    C16     1.376   .     D
C10    H46     1.084   .     S
C10    C61     1.395   .     S
C11    C17     1.376   .     S
C11    H47     1.084   .     S
C11    C63     1.395   .     D
C12    C18     1.376   .     S
C12    H48     1.084   .     S
C12    C62     1.395   .     D
C13    H49     1.080   .     S
C13    C65     1.393   .     S
C14    H50     1.080   .     S
C14    C66     1.393   .     S
C15    H51     1.080   .     S
C15    C64     1.393   .     D
C16    H52     1.080   .     S
C16    C64     1.393   .     S
C17    H53     1.080   .     S
C17    C66     1.393   .     D
C18    H54     1.080   .     S
C18    C65     1.393   .     D
C19    C23     1.454   .     S
C19    C24     1.416   .     D
C19    C31     1.410   .     S
C20    C22     1.454   .     S
C20    C23     1.416   .     S
C20    C32     1.410   .     D
C21    C22     1.416   .     D
C21    C24     1.454   .     S
C21    C33     1.410   .     S
C22    C34     1.410   .     S
C23    C35     1.410   .     D
C24    C36     1.410   .     S
C25    C30     1.387   .     S
C25    C31     1.356   .     D
C26    C29     1.387   .     D
C26    C32     1.356   .     S
C27    C28     1.387   .     S
C27    C33     1.356   .     D
C28    C34     1.356   .     D
C29    C35     1.356   .     S
C30    C36     1.356   .     D
C31    H37     1.077   .     S
C32    H38     1.077   .     S
C33    H39     1.077   .     S
C34    H40     1.077   .     S
C35    H41     1.077   .     S
C36    H42     1.077   .     S
N55    C58     1.337   .     S
N55    C60     1.337   .     D
N56    C58     1.337   .     D
N56    C59     1.337   .     S
N57    C59     1.337   .     D
N57    C60     1.337   .     S
C58    C64     1.472   .     S
C59    C65     1.472   .     S
C60    C66     1.472   .     S
C61    B67     1.526   1_545 S
C62    B68     1.526   1_655 S
C63    B69     1.526   .     S
B67    C61     1.526   1_565 S
B68    C62     1.526   1_455 S
