data_560
_audit_creation_date              2023-09-08
_audit_creation_method            'Materials Studio'
_symmetry_space_group_name_H-M    'P1'
_symmetry_Int_Tables_number       1
_symmetry_cell_setting            triclinic
loop_
_symmetry_equiv_pos_as_xyz
  x,y,z
_cell_length_a                    22.1200
_cell_length_b                    22.1200
_cell_length_c                    3.2800
_cell_angle_alpha                 90.0000
_cell_angle_beta                  90.0000
_cell_angle_gamma                 120.0000
loop_
_atom_site_label
_atom_site_type_symbol
_atom_site_fract_x
_atom_site_fract_y
_atom_site_fract_z
_atom_site_U_iso_or_equiv
_atom_site_adp_type
_atom_site_occupancy
F1     F     0.42831   0.35660   0.00000   0.00000  Uiso   1.00
F2     F     0.64340   0.07171   0.00000   0.00000  Uiso   1.00
F3     F     0.92829   0.57169   0.00000   0.00000  Uiso   1.00
F4     F     0.57169   0.64340   0.00000   0.00000  Uiso   1.00
F5     F     0.35660   0.92829   0.00000   0.00000  Uiso   1.00
F6     F     0.07171   0.42831   0.00000   0.00000  Uiso   1.00
F7     F     0.35777   0.42603   0.00000   0.00000  Uiso   1.00
F8     F     0.57397   0.93174   0.00000   0.00000  Uiso   1.00
F9     F     0.06826   0.64223   0.00000   0.00000  Uiso   1.00
F10    F     0.64223   0.57397   0.00000   0.00000  Uiso   1.00
F11    F     0.42603   0.06826   0.00000   0.00000  Uiso   1.00
F12    F     0.93174   0.35777   0.00000   0.00000  Uiso   1.00
O13    O     0.70395   0.47093   0.00000   0.00000  Uiso   1.00
O14    O     0.52907   0.23302   0.00000   0.00000  Uiso   1.00
O15    O     0.76698   0.29605   0.00000   0.00000  Uiso   1.00
O16    O     0.29605   0.52907   0.00000   0.00000  Uiso   1.00
O17    O     0.47093   0.76698   0.00000   0.00000  Uiso   1.00
O18    O     0.23302   0.70395   0.00000   0.00000  Uiso   1.00
N19    N     0.57967   0.43562   0.00000   0.00000  Uiso   1.00
N20    N     0.56438   0.14405   0.00000   0.00000  Uiso   1.00
N21    N     0.85595   0.42033   0.00000   0.00000  Uiso   1.00
N22    N     0.42033   0.56438   0.00000   0.00000  Uiso   1.00
N23    N     0.43562   0.85595   0.00000   0.00000  Uiso   1.00
N24    N     0.14405   0.57967   0.00000   0.00000  Uiso   1.00
C25    C     0.68597   0.40653   0.00000   0.00000  Uiso   1.00
C26    C     0.59347   0.27944   0.00000   0.00000  Uiso   1.00
C27    C     0.72056   0.31403   0.00000   0.00000  Uiso   1.00
C28    C     0.31403   0.59347   0.00000   0.00000  Uiso   1.00
C29    C     0.40653   0.72056   0.00000   0.00000  Uiso   1.00
C30    C     0.27944   0.68597   0.00000   0.00000  Uiso   1.00
C31    C     0.61379   0.35215   0.00000   0.00000  Uiso   1.00
C32    C     0.64785   0.26164   0.00000   0.00000  Uiso   1.00
C33    C     0.73836   0.38621   0.00000   0.00000  Uiso   1.00
C34    C     0.38621   0.64785   0.00000   0.00000  Uiso   1.00
C35    C     0.35215   0.73836   0.00000   0.00000  Uiso   1.00
C36    C     0.26164   0.61379   0.00000   0.00000  Uiso   1.00
C37    C     0.56120   0.36839   0.00000   0.00000  Uiso   1.00
C38    C     0.63161   0.19281   0.00000   0.00000  Uiso   1.00
C39    C     0.80719   0.43880   0.00000   0.00000  Uiso   1.00
C40    C     0.43880   0.63161   0.00000   0.00000  Uiso   1.00
C41    C     0.36839   0.80719   0.00000   0.00000  Uiso   1.00
C42    C     0.19281   0.56120   0.00000   0.00000  Uiso   1.00
C43    C     0.53790   0.46432   0.00000   0.00000  Uiso   1.00
C44    C     0.53568   0.07358   0.00000   0.00000  Uiso   1.00
C45    C     0.92642   0.46210   0.00000   0.00000  Uiso   1.00
C46    C     0.46210   0.53568   0.00000   0.00000  Uiso   1.00
C47    C     0.46432   0.92642   0.00000   0.00000  Uiso   1.00
C48    C     0.07358   0.53790   0.00000   0.00000  Uiso   1.00
C49    C     0.42812   0.46239   0.00000   0.00000  Uiso   1.00
C50    C     0.53761   0.96573   0.00000   0.00000  Uiso   1.00
C51    C     0.03427   0.57188   0.00000   0.00000  Uiso   1.00
C52    C     0.57188   0.53761   0.00000   0.00000  Uiso   1.00
C53    C     0.46239   0.03427   0.00000   0.00000  Uiso   1.00
C54    C     0.96573   0.42812   0.00000   0.00000  Uiso   1.00
C55    C     0.46465   0.42728   0.00000   0.00000  Uiso   1.00
C56    C     0.57272   0.03737   0.00000   0.00000  Uiso   1.00
C57    C     0.96263   0.53535   0.00000   0.00000  Uiso   1.00
C58    C     0.53535   0.57272   0.00000   0.00000  Uiso   1.00
C59    C     0.42728   0.96263   0.00000   0.00000  Uiso   1.00
C60    C     0.03737   0.46465   0.00000   0.00000  Uiso   1.00
H61    H     0.63062   0.47461   0.00000   0.00000  Uiso   1.00
H62    H     0.52539   0.15601   0.00000   0.00000  Uiso   1.00
H63    H     0.84399   0.36938   0.00000   0.00000  Uiso   1.00
H64    H     0.36938   0.52539   0.00000   0.00000  Uiso   1.00
H65    H     0.47461   0.84399   0.00000   0.00000  Uiso   1.00
H66    H     0.15601   0.63062   0.00000   0.00000  Uiso   1.00
H67    H     0.49486   0.67126   0.00000   0.00000  Uiso   1.00
H68    H     0.32874   0.82360   0.00000   0.00000  Uiso   1.00
H69    H     0.17640   0.50514   0.00000   0.00000  Uiso   1.00
H70    H     0.50514   0.32874   0.00000   0.00000  Uiso   1.00
H71    H     0.67126   0.17640   0.00000   0.00000  Uiso   1.00
H72    H     0.82360   0.49486   0.00000   0.00000  Uiso   1.00
loop_
_geom_bond_atom_site_label_1
_geom_bond_atom_site_label_2
_geom_bond_distance
_geom_bond_site_symmetry_2
_ccdc_geom_bond_type
F1     C55     1.354   .     S
F2     C56     1.354   .     S
F3     C57     1.354   .     S
F4     C58     1.354   .     S
F5     C59     1.354   .     S
F6     C60     1.354   .     S
F7     C49     1.348   .     S
F8     C50     1.348   .     S
F9     C51     1.348   .     S
F10    C52     1.348   .     S
F11    C53     1.348   .     S
F12    C54     1.348   .     S
O13    C25     1.273   .     D
O14    C26     1.273   .     D
O15    C27     1.273   .     D
O16    C28     1.273   .     D
O17    C29     1.273   .     D
O18    C30     1.273   .     D
N19    C37     1.331   .     S
N19    C43     1.358   .     S
N19    H61     1.021   .     S
N20    C38     1.331   .     S
N20    C44     1.358   .     S
N20    H62     1.021   .     S
N21    C39     1.331   .     S
N21    C45     1.358   .     S
N21    H63     1.021   .     S
N22    C40     1.331   .     S
N22    C46     1.358   .     S
N22    H64     1.021   .     S
N23    C41     1.331   .     S
N23    C47     1.358   .     S
N23    H65     1.021   .     S
N24    C42     1.331   .     S
N24    C48     1.358   .     S
N24    H66     1.021   .     S
C25    C31     1.441   .     S
C25    C33     1.437   .     S
C26    C31     1.437   .     S
C26    C32     1.441   .     S
C27    C32     1.437   .     S
C27    C33     1.441   .     S
C28    C34     1.441   .     S
C28    C36     1.437   .     S
C29    C34     1.437   .     S
C29    C35     1.441   .     S
C30    C35     1.437   .     S
C30    C36     1.441   .     S
C31    C37     1.378   .     D
C32    C38     1.378   .     D
C33    C39     1.378   .     D
C34    C40     1.378   .     D
C35    C41     1.378   .     D
C36    C42     1.378   .     D
C37    H70     1.104   .     S
C38    H71     1.104   .     S
C39    H72     1.104   .     S
C40    H67     1.104   .     S
C41    H68     1.104   .     S
C42    H69     1.104   .     S
C43    C52     1.405   .     S
C43    C55     1.403   .     D
C44    C53     1.405   .     D
C44    C56     1.403   .     S
C45    C54     1.405   .     S
C45    C57     1.403   .     D
C46    C49     1.405   .     D
C46    C58     1.403   .     S
C47    C50     1.405   .     S
C47    C59     1.403   .     D
C48    C51     1.405   .     D
C48    C60     1.403   .     S
C49    C55     1.372   .     S
C50    C56     1.372   1_565 D
C51    C57     1.372   1_455 S
C52    C58     1.372   .     D
C53    C59     1.372   1_545 S
C54    C60     1.372   1_655 D
C56    C50     1.372   1_545 D
C57    C51     1.372   1_655 S
C59    C53     1.372   1_565 S
C60    C54     1.372   1_455 D
