data_561
_audit_creation_date              2023-09-08
_audit_creation_method            'Materials Studio'
_symmetry_space_group_name_H-M    'P1'
_symmetry_Int_Tables_number       1
_symmetry_cell_setting            triclinic
loop_
_symmetry_equiv_pos_as_xyz
  x,y,z
_cell_length_a                    21.8000
_cell_length_b                    21.8000
_cell_length_c                    3.2400
_cell_angle_alpha                 90.0000
_cell_angle_beta                  90.0000
_cell_angle_gamma                 120.0000
loop_
_atom_site_label
_atom_site_type_symbol
_atom_site_fract_x
_atom_site_fract_y
_atom_site_fract_z
_atom_site_U_iso_or_equiv
_atom_site_adp_type
_atom_site_occupancy
C1     C     0.54027   0.87216   0.48167   0.00000  Uiso   1.00
C2     C     0.21035   0.69676   0.48167   0.00000  Uiso   1.00
C3     C     0.18266   0.74128   0.48167   0.00000  Uiso   1.00
C4     C     0.22589   0.81325   0.48167   0.00000  Uiso   1.00
C5     C     0.29619   0.84001   0.48167   0.00000  Uiso   1.00
C6     C     0.06280   0.65358   0.48167   0.00000  Uiso   1.00
C7     C    -0.00514   0.64067   0.48167   0.00000  Uiso   1.00
C8     C     0.96910   1.67864   0.48167   0.00000  Uiso   1.00
C9     C     0.89799   1.66260   0.48167   0.00000  Uiso   1.00
C10    C     0.84191   1.59228   0.48167   0.00000  Uiso   1.00
C11    C     0.85912   1.53755   0.48167   0.00000  Uiso   1.00
C12    C     0.51100   0.91811   0.48167   0.00000  Uiso   1.00
C13    C     0.92993   1.55110   0.48167   0.00000  Uiso   1.00
C14    C     0.80523   1.47008   0.48167   0.00000  Uiso   1.00
C15    C     0.77456   1.34967   0.48167   0.00000  Uiso   1.00
C16    C     0.70336   1.32313   0.48167   0.00000  Uiso   1.00
C17    C     0.88404   1.71737   0.48167   0.00000  Uiso   1.00
C18    C     0.79513   1.75025   0.48167   0.00000  Uiso   1.00
C19    C     0.83894   1.82132   0.48167   0.00000  Uiso   1.00
C20    C     0.67102   1.09096   0.48167   0.00000  Uiso   1.00
C21    C     0.68833   1.20642   0.48167   0.00000  Uiso   1.00
C22    C     0.76101   1.23523   0.48167   0.00000  Uiso   1.00
C23    C     0.55313   0.99281   0.48167   0.00000  Uiso   1.00
C24    C     0.64154   0.85903   0.48167   0.00000  Uiso   1.00
C25    C     0.73847   0.83918   0.48167   0.00000  Uiso   1.00
C26    C     0.69545   0.76661   0.48167   0.00000  Uiso   1.00
C27    C     0.81116   0.86569   0.48167   0.00000  Uiso   1.00
C28    C     0.66033   1.25206   0.48167   0.00000  Uiso   1.00
C29    C     0.80344   1.30542   0.48167   0.00000  Uiso   1.00
C30    C     0.72303   0.72298   0.48167   0.00000  Uiso   1.00
C31    C     0.62740   1.02099   0.48167   0.00000  Uiso   1.00
C32    C     0.66014   0.97777   0.48167   0.00000  Uiso   1.00
C33    C     0.61514   0.90373   0.48167   0.00000  Uiso   1.00
C34    C     0.44079   0.89255   0.48167   0.00000  Uiso   1.00
C35    C     0.32626   0.79644   0.48167   0.00000  Uiso   1.00
C36    C     0.28166   0.72390   0.48167   0.00000  Uiso   1.00
H37    H     0.32942   0.89727   0.48167   0.00000  Uiso   1.00
H38    H     0.72759   1.10807   0.48167   0.00000  Uiso   1.00
H39    H     0.89640   1.84542   0.48167   0.00000  Uiso   1.00
H40    H     0.92795   1.77162   0.48167   0.00000  Uiso   1.00
H41    H     0.59081   1.11189   0.48167   0.00000  Uiso   1.00
H42    H     0.74114   0.93763   0.48167   0.00000  Uiso   1.00
H43    H     0.42190   0.79272   0.48167   0.00000  Uiso   1.00
H44    H     0.08921   0.75387   0.48167   0.00000  Uiso   1.00
H45    H     0.87880   1.44198   0.48167   0.00000  Uiso   1.00
H46    H     0.78406   1.64507   0.48167   0.00000  Uiso   1.00
H47    H     0.20185   0.84742   0.48167   0.00000  Uiso   1.00
H48    H     0.42269   0.93180   0.48167   0.00000  Uiso   1.00
H49    H     0.68932   1.66558   0.48167   0.00000  Uiso   1.00
H50    H     0.86090   1.32852   0.48167   0.00000  Uiso   1.00
H51    H     0.67814   1.35621   0.48167   0.00000  Uiso   1.00
H52    H     0.75063   1.46022   0.48167   0.00000  Uiso   1.00
H53    H     0.63829   0.74370   0.48167   0.00000  Uiso   1.00
H54    H     0.60287   0.80277   0.48167   0.00000  Uiso   1.00
H55    H     0.17811   0.63937   0.48167   0.00000  Uiso   1.00
H56    H     0.07358   0.60907   0.48167   0.00000  Uiso   1.00
H57    H     0.78505   1.20127   0.48167   0.00000  Uiso   1.00
N58    N     0.39688   0.82479   0.48167   0.00000  Uiso   1.00
N59    N     0.70949   0.88163   0.48167   0.00000  Uiso   1.00
N60    N     0.64708   1.13591   0.48167   0.00000  Uiso   1.00
N61    N     0.81887   1.70331   0.48167   0.00000  Uiso   1.00
N62    N     0.82055   1.41939   0.48167   0.00000  Uiso   1.00
N63    N     0.11274   0.71832   0.48167   0.00000  Uiso   1.00
N64    N     0.30638   0.67343   0.48167   0.00000  Uiso   1.00
N65    N     0.86090   0.93954   0.48167   0.00000  Uiso   1.00
N66    N     0.58607   1.22846   0.48167   0.00000  Uiso   1.00
O67    O     0.02829   0.76093   0.48167   0.00000  Uiso   1.00
O68    O     0.83835   0.98147   0.48167   0.00000  Uiso   1.00
O69    O     0.56757   1.27332   0.48167   0.00000  Uiso   1.00
O70    O     0.54522   1.16495   0.48167   0.00000  Uiso   1.00
O71    O     0.94546   1.50211   0.48167   0.00000  Uiso   1.00
O72    O     0.77822   1.57789   0.48167   0.00000  Uiso   1.00
O73    O     0.52554   1.03133   0.48167   0.00000  Uiso   1.00
O74    O     0.72531   1.00432   0.48167   0.00000  Uiso   1.00
O75    O     0.50269   0.80708   0.48167   0.00000  Uiso   1.00
O76    O     0.37007   0.69531   0.48167   0.00000  Uiso   1.00
O77    O     0.26248   0.61116   0.48167   0.00000  Uiso   1.00
O78    O     0.92330   0.95675   0.48167   0.00000  Uiso   1.00
loop_
_geom_bond_atom_site_label_1
_geom_bond_atom_site_label_2
_geom_bond_distance
_geom_bond_site_symmetry_2
_ccdc_geom_bond_type
C1     C12     1.432   .     S
C1     C33     1.419   .     S
C1     O75     1.234   .     D
C2     C3      1.376   .     D
C2     C36     1.359   .     S
C2     H55     1.086   .     S
C3     C4      1.368   .     S
C3     N63     1.346   .     S
C4     C5      1.340   .     D
C4     H47     1.105   .     S
C5     C35     1.398   .     S
C5     H37     1.086   .     S
C6     C7      1.362   .     D
C6     H56     1.107   .     S
C6     N63     1.281   .     S
C7     C8      1.211   1_445 S
C7     C13     1.747   1_445 S
C8     C7      1.211   1_665 S
C8     C9      1.408   .     S
C8     O67     1.603   1_665 D
C9     C10     1.404   .     S
C9     C17     1.372   .     D
C10    C11     1.418   .     S
C10    O72     1.261   .     D
C11    C13     1.419   .     S
C11    C14     1.347   .     D
C12    C23     1.414   .     S
C12    C34     1.342   .     D
C13    C7      1.747   1_665 S
C13    O71     1.272   .     D
C14    H52     1.099   .     S
C14    N62     1.304   .     S
C15    C16     1.359   .     D
C15    C29     1.391   .     S
C15    N62     1.338   .     S
C16    C28     1.352   .     S
C16    H51     1.104   .     S
C17    H40     1.088   .     S
C17    N61     1.295   .     S
C18    C19     1.354   .     D
C18    C30     1.375   1_565 S
C18    N61     1.358   .     S
C19    C27     1.374   1_565 S
C19    H39     1.089   .     S
C20    C31     1.334   .     D
C20    H38     1.095   .     S
C20    N60     1.321   .     S
C21    C22     1.382   .     S
C21    C28     1.404   .     D
C21    N60     1.338   .     S
C22    C29     1.335   .     D
C22    H57     1.100   .     S
C23    C31     1.416   .     S
C23    O73     1.254   .     D
C24    C33     1.357   .     D
C24    H54     1.087   .     S
C24    N59     1.307   .     S
C25    C26     1.378   .     S
C25    C27     1.389   .     D
C25    N59     1.357   .     S
C26    C30     1.356   .     D
C26    H53     1.086   .     S
C27    C19     1.374   1_545 S
C27    N65     1.422   .     S
C28    N66     1.433   .     S
C29    H50     1.092   .     S
C30    C18     1.375   1_545 S
C30    H49     1.089   1_545 S
C31    C32     1.439   .     S
C32    C33     1.409   .     S
C32    O74     1.237   .     D
C34    H48     1.107   .     S
C34    N58     1.298   .     S
C35    C36     1.381   .     D
C35    N58     1.342   .     S
C36    N64     1.447   .     S
H41    N60     1.066   .     S
H42    N59     1.060   .     S
H43    N58     1.081   .     S
H44    N63     1.123   .     S
H45    N62     1.109   .     S
H46    N61     1.107   .     S
H49    C30     1.089   1_565 S
N64    O76     1.222   .     D
N64    O77     1.208   .     S
N65    O68     1.236   .     D
N65    O78     1.217   .     S
N66    O69     1.230   .     D
N66    O70     1.215   .     S
O67    C8      1.603   1_445 D
