data_562
_audit_creation_date              2023-09-08
_audit_creation_method            'Materials Studio'
_symmetry_space_group_name_H-M    'P1'
_symmetry_Int_Tables_number       1
_symmetry_cell_setting            triclinic
loop_
_symmetry_equiv_pos_as_xyz
  x,y,z
_cell_length_a                    22.4124
_cell_length_b                    22.3715
_cell_length_c                    6.7244
_cell_angle_alpha                 90.7617
_cell_angle_beta                  90.3839
_cell_angle_gamma                 119.3119
loop_
_atom_site_label
_atom_site_type_symbol
_atom_site_fract_x
_atom_site_fract_y
_atom_site_fract_z
_atom_site_U_iso_or_equiv
_atom_site_adp_type
_atom_site_occupancy
C1     C     0.91715   0.92640   0.06107   0.00000  Uiso   1.00
C2     C     0.94948   0.88570   0.04858   0.00000  Uiso   1.00
C3     C     0.01980   0.91677   0.00671   0.00000  Uiso   1.00
C4     C     0.06006   0.98846   0.97735   0.00000  Uiso   1.00
C5     C     0.02785   0.02928   0.99221   0.00000  Uiso   1.00
C6     C     0.95737   0.99820   0.03363   0.00000  Uiso   1.00
H7     H     0.92023   0.83008   0.07090   0.00000  Uiso   1.00
H8     H     0.05723   0.08495   0.97103   0.00000  Uiso   1.00
N9     N     0.12956   0.01410   0.93759   0.00000  Uiso   1.00
C10    C     0.17802   0.07985   0.90616   0.00000  Uiso   1.00
H11    H     0.16225   0.11958   0.90252   0.00000  Uiso   1.00
C12    C     0.24705   0.09921   0.88220   0.00000  Uiso   1.00
C13    C     0.27144   0.04890   0.89758   0.00000  Uiso   1.00
C14    C     0.29568   0.17324   0.86069   0.00000  Uiso   1.00
C15    C     0.34611   0.07483   0.91552   0.00000  Uiso   1.00
C16    C     0.36997   0.19665   0.86853   0.00000  Uiso   1.00
C17    C     0.39618   0.14823   0.89496   0.00000  Uiso   1.00
O18    O     0.23075   0.98581   0.90050   0.00000  Uiso   1.00
O19    O     0.27346   0.21432   0.84001   0.00000  Uiso   1.00
O20    O     0.45949   0.16941   0.90209   0.00000  Uiso   1.00
H21    H     0.14824   0.97908   0.93831   0.00000  Uiso   1.00
C22    C     0.41913   0.26602   0.87032   0.00000  Uiso   1.00
H23    H     0.47376   0.27989   0.88521   0.00000  Uiso   1.00
C24    C     0.36649   0.02755   0.96822   0.00000  Uiso   1.00
H25    H     0.32660   0.97351   0.98715   0.00000  Uiso   1.00
N26    N     0.40318   0.31661   0.85871   0.00000  Uiso   1.00
C27    C     0.44850   0.38659   0.88462   0.00000  Uiso   1.00
C28    C     0.51994   0.41473   0.91338   0.00000  Uiso   1.00
C29    C     0.42005   0.43112   0.88675   0.00000  Uiso   1.00
C30    C     0.56152   0.48520   0.95076   0.00000  Uiso   1.00
H31    H     0.54442   0.38258   0.91027   0.00000  Uiso   1.00
C32    C     0.46107   0.50132   0.92640   0.00000  Uiso   1.00
C33    C     0.53256   0.52935   0.96161   0.00000  Uiso   1.00
H34    H     0.43739   0.53429   0.92945   0.00000  Uiso   1.00
N35    N     0.43286   0.04483   0.00077   0.00000  Uiso   1.00
O36    O     0.05313   0.87824   0.99235   0.00000  Uiso   1.00
O37    O     0.35051   0.40231   0.84807   0.00000  Uiso   1.00
H38    H     0.33657   0.43751   0.85292   0.00000  Uiso   1.00
H39    H     0.35063   0.30095   0.84531   0.00000  Uiso   1.00
H40    H     0.46861   0.09685   0.97938   0.00000  Uiso   1.00
H41    H     0.02071   0.82988   0.01768   0.00000  Uiso   1.00
N42    N     0.84716   0.89973   0.09788   0.00000  Uiso   1.00
C43    C     0.79834   0.83326   0.09488   0.00000  Uiso   1.00
C44    C     0.72858   0.81217   0.11533   0.00000  Uiso   1.00
H45    H     0.81393   0.79397   0.06961   0.00000  Uiso   1.00
C46    C     0.70422   0.86223   0.13960   0.00000  Uiso   1.00
C47    C     0.68019   0.73860   0.09029   0.00000  Uiso   1.00
C48    C     0.62961   0.83686   0.14380   0.00000  Uiso   1.00
O49    O     0.74521   0.92515   0.15546   0.00000  Uiso   1.00
C50    C     0.60602   0.71549   0.08437   0.00000  Uiso   1.00
O51    O     0.70238   0.69682   0.07090   0.00000  Uiso   1.00
C52    C     0.60937   0.88664   0.15193   0.00000  Uiso   1.00
C53    C     0.57955   0.76345   0.12324   0.00000  Uiso   1.00
C54    C     0.55737   0.64752   0.04087   0.00000  Uiso   1.00
N55    N     0.54306   0.87128   0.15059   0.00000  Uiso   1.00
H56    H     0.64969   0.94107   0.15660   0.00000  Uiso   1.00
O57    O     0.51619   0.74106   0.13717   0.00000  Uiso   1.00
H58    H     0.50245   0.63317   0.03414   0.00000  Uiso   1.00
N59    N     0.57531   0.59895   0.00689   0.00000  Uiso   1.00
H60    H     0.50714   0.81877   0.15012   0.00000  Uiso   1.00
H61    H     0.62855   0.61769   0.02073   0.00000  Uiso   1.00
O62    O     0.92383   0.03607   0.04986   0.00000  Uiso   1.00
H63    H     0.95541   0.08459   0.02449   0.00000  Uiso   1.00
O64    O     0.63088   0.50823   0.97941   0.00000  Uiso   1.00
H65    H     0.65748   0.55804   0.99723   0.00000  Uiso   1.00
C66    C     0.51808   0.91687   0.12649   0.00000  Uiso   1.00
C67    C     0.56054   0.98812   0.09937   0.00000  Uiso   1.00
C68    C     0.44567   0.88911   0.12247   0.00000  Uiso   1.00
C69    C     0.53047   0.02918   0.06316   0.00000  Uiso   1.00
H70    H     0.61682   0.01176   0.10405   0.00000  Uiso   1.00
C71    C     0.41558   0.93004   0.08467   0.00000  Uiso   1.00
C72    C     0.45804   0.00088   0.05035   0.00000  Uiso   1.00
H73    H     0.35929   0.90643   0.07984   0.00000  Uiso   1.00
O74    O     0.40584   0.81943   0.15591   0.00000  Uiso   1.00
H75    H     0.35694   0.80557   0.14535   0.00000  Uiso   1.00
O76    O     0.57005   0.09911   0.03434   0.00000  Uiso   1.00
H77    H     0.61899   0.11327   0.04649   0.00000  Uiso   1.00
H78    H     0.82875   0.93475   0.11523   0.00000  Uiso   1.00
C79    C     0.97768   0.04046   0.52448   0.00000  Uiso   1.00
C80    C     0.00997   0.99969   0.50796   0.00000  Uiso   1.00
C81    C     0.08022   0.03077   0.46409   0.00000  Uiso   1.00
C82    C     0.12033   0.10252   0.43357   0.00000  Uiso   1.00
C83    C     0.08801   0.14314   0.44973   0.00000  Uiso   1.00
C84    C     0.01792   0.11211   0.49567   0.00000  Uiso   1.00
H85    H     0.98081   0.94406   0.53054   0.00000  Uiso   1.00
H86    H     0.11719   0.19880   0.42837   0.00000  Uiso   1.00
N87    N     0.18987   0.12883   0.39247   0.00000  Uiso   1.00
C88    C     0.23807   0.19523   0.37073   0.00000  Uiso   1.00
H89    H     0.22167   0.23445   0.37033   0.00000  Uiso   1.00
C90    C     0.30783   0.21621   0.35475   0.00000  Uiso   1.00
C91    C     0.33300   0.16646   0.36619   0.00000  Uiso   1.00
C92    C     0.35589   0.29073   0.34771   0.00000  Uiso   1.00
C93    C     0.40763   0.19236   0.38098   0.00000  Uiso   1.00
C94    C     0.43026   0.31471   0.36647   0.00000  Uiso   1.00
C95    C     0.45726   0.26623   0.37812   0.00000  Uiso   1.00
O96    O     0.29261   0.10322   0.36762   0.00000  Uiso   1.00
O97    O     0.33412   0.33229   0.33063   0.00000  Uiso   1.00
O98    O     0.52056   0.28847   0.38975   0.00000  Uiso   1.00
H99    H     0.20899   0.09412   0.39198   0.00000  Uiso   1.00
C100   C     0.47840   0.38377   0.39091   0.00000  Uiso   1.00
H101   H     0.53284   0.39758   0.41157   0.00000  Uiso   1.00
C102   C     0.42814   0.14377   0.41574   0.00000  Uiso   1.00
H103   H     0.38821   0.08927   0.42315   0.00000  Uiso   1.00
N104   N     0.46208   0.43445   0.39510   0.00000  Uiso   1.00
C105   C     0.50691   0.50363   0.43811   0.00000  Uiso   1.00
C106   C     0.57817   0.53090   0.47054   0.00000  Uiso   1.00
C107   C     0.47918   0.54862   0.45087   0.00000  Uiso   1.00
C108   C     0.61996   0.60052   0.51881   0.00000  Uiso   1.00
H109   H     0.60237   0.49857   0.46047   0.00000  Uiso   1.00
C110   C     0.52037   0.61800   0.50106   0.00000  Uiso   1.00
C111   C     0.59165   0.64509   0.53694   0.00000  Uiso   1.00
H112   H     0.49713   0.65131   0.50804   0.00000  Uiso   1.00
N113   N     0.49429   0.16052   0.44516   0.00000  Uiso   1.00
O114   O     0.11373   0.99281   0.44760   0.00000  Uiso   1.00
O115   O     0.40930   0.52149   0.41204   0.00000  Uiso   1.00
H116   H     0.39776   0.55850   0.41355   0.00000  Uiso   1.00
H117   H     0.40979   0.41881   0.37487   0.00000  Uiso   1.00
H118   H     0.52982   0.21305   0.43564   0.00000  Uiso   1.00
H119   H     0.08239   0.94449   0.47620   0.00000  Uiso   1.00
N120   N     0.90832   0.01477   0.56898   0.00000  Uiso   1.00
C121   C     0.85931   0.94874   0.58807   0.00000  Uiso   1.00
C122   C     0.79078   0.92937   0.62584   0.00000  Uiso   1.00
H123   H     0.87388   0.90839   0.56929   0.00000  Uiso   1.00
C124   C     0.76744   0.98052   0.64401   0.00000  Uiso   1.00
C125   C     0.74171   0.85535   0.62652   0.00000  Uiso   1.00
C126   C     0.69278   0.95585   0.64999   0.00000  Uiso   1.00
O127   O     0.80906   0.04339   0.64997   0.00000  Uiso   1.00
C128   C     0.66768   0.83258   0.63597   0.00000  Uiso   1.00
O129   O     0.76358   0.81320   0.61538   0.00000  Uiso   1.00
C130   C     0.67227   0.00518   0.63324   0.00000  Uiso   1.00
C131   C     0.64228   0.88217   0.65163   0.00000  Uiso   1.00
C132   C     0.61794   0.76387   0.61072   0.00000  Uiso   1.00
N133   N     0.60571   0.98957   0.62467   0.00000  Uiso   1.00
H134   H     0.71231   0.05953   0.62262   0.00000  Uiso   1.00
O135   O     0.57912   0.86145   0.66158   0.00000  Uiso   1.00
H136   H     0.56314   0.74998   0.61009   0.00000  Uiso   1.00
N137   N     0.63504   0.71433   0.58408   0.00000  Uiso   1.00
H138   H     0.56987   0.93713   0.63674   0.00000  Uiso   1.00
H139   H     0.68844   0.73311   0.58986   0.00000  Uiso   1.00
O140   O     0.98493   0.15082   0.51486   0.00000  Uiso   1.00
H141   H     0.01755   0.19929   0.49190   0.00000  Uiso   1.00
O142   O     0.68890   0.62239   0.55158   0.00000  Uiso   1.00
H143   H     0.71582   0.67217   0.57052   0.00000  Uiso   1.00
C144   C     0.58016   0.03416   0.58653   0.00000  Uiso   1.00
C145   C     0.62223   0.10545   0.55793   0.00000  Uiso   1.00
C146   C     0.50776   0.00555   0.57328   0.00000  Uiso   1.00
C147   C     0.59182   0.14568   0.51402   0.00000  Uiso   1.00
H148   H     0.67849   0.12970   0.56884   0.00000  Uiso   1.00
C149   C     0.47732   0.04578   0.52888   0.00000  Uiso   1.00
C150   C     0.51939   0.11668   0.49554   0.00000  Uiso   1.00
H151   H     0.42105   0.02147   0.51867   0.00000  Uiso   1.00
O152   O     0.46827   0.93568   0.60511   0.00000  Uiso   1.00
H153   H     0.41933   0.92160   0.59362   0.00000  Uiso   1.00
O154   O     0.63109   0.21539   0.48253   0.00000  Uiso   1.00
H155   H     0.67982   0.23084   0.50723   0.00000  Uiso   1.00
H156   H     0.89063   0.05036   0.58495   0.00000  Uiso   1.00
loop_
_geom_bond_atom_site_label_1
_geom_bond_atom_site_label_2
_geom_bond_distance
_geom_bond_site_symmetry_2
_ccdc_geom_bond_type
C1     C2      1.416   .     D
C1     C6      1.421   .     S
C1     N42     1.404   .     S
C2     C3      1.409   1_655 S
C2     H7      1.099   .     S
C3     C2      1.409   1_455 S
C3     C4      1.421   1_554 D
C3     O36     1.393   1_554 S
C4     C3      1.421   1_556 D
C4     C5      1.417   1_565 S
C4     N9      1.401   1_565 S
C5     C4      1.417   1_545 S
C5     C6      1.411   1_446 D
C5     H8      1.099   .     S
C6     C5      1.411   1_664 D
C6     O62     1.385   1_565 S
N9     C4      1.401   1_545 S
N9     C10     1.355   .     S
N9     H21     1.054   1_545 S
C10    H11     1.106   .     S
C10    C12     1.399   .     D
C12    C13     1.477   .     S
C12    C14     1.481   .     S
C13    C15     1.482   .     S
C13    O18     1.251   1_545 D
C14    C16     1.481   .     S
C14    O19     1.250   .     D
C15    C17     1.476   .     S
C15    C24     1.391   .     D
C16    C17     1.475   .     S
C16    C22     1.396   .     D
C17    O20     1.257   .     D
O18    C13     1.251   1_565 D
H21    N9      1.054   1_565 S
C22    H23     1.109   .     S
C22    N26     1.346   .     S
C24    H25     1.107   1_545 S
C24    N35     1.357   1_556 S
H25    C24     1.107   1_565 S
N26    C27     1.395   .     S
N26    H39     1.054   .     S
C27    C28     1.415   .     D
C27    C29     1.422   .     S
C28    C30     1.402   .     S
C28    H31     1.098   .     S
C29    C32     1.398   .     D
C29    O37     1.385   .     S
C30    C33     1.424   .     D
C30    O64     1.389   .     S
C32    C33     1.423   .     S
C32    H34     1.100   .     S
C33    N59     1.399   1_556 S
N35    C24     1.357   1_554 S
N35    H40     1.054   1_554 S
N35    C72     1.395   .     S
O36    C3      1.393   1_556 S
O36    H41     0.982   1_556 S
O37    H38     0.979   .     S
H40    N35     1.054   1_556 S
H41    O36     0.982   1_554 S
N42    C43     1.347   .     S
N42    H78     1.055   .     S
C43    C44     1.403   .     D
C43    H45     1.105   .     S
C44    C46     1.474   .     S
C44    C47     1.468   .     S
C46    C48     1.480   .     S
C46    O49     1.251   .     D
C47    C50     1.480   .     S
C47    O51     1.261   .     D
C48    C52     1.394   .     D
C48    C53     1.471   .     S
C50    C53     1.480   .     S
C50    C54     1.395   .     D
C52    N55     1.352   .     S
C52    H56     1.105   .     S
C53    O57     1.258   .     D
C54    H58     1.110   .     S
C54    N59     1.348   .     S
N55    H60     1.050   .     S
N55    C66     1.394   .     S
N59    C33     1.399   1_554 S
N59    H61     1.056   .     S
O62    C6      1.385   1_545 S
O62    H63     0.981   .     S
O64    H65     0.978   .     S
C66    C67     1.416   .     S
C66    C68     1.426   .     D
C67    C69     1.403   1_565 D
C67    H70     1.103   1_565 S
C68    C71     1.402   .     S
C68    O74     1.388   .     S
C69    C67     1.403   1_545 D
C69    C72     1.426   .     S
C69    O76     1.387   .     S
H70    C67     1.103   1_545 S
C71    C72     1.416   1_565 D
C71    H73     1.104   .     S
C72    C71     1.416   1_545 D
O74    H75     0.984   .     S
O76    H77     0.984   .     S
C79    C80     1.419   1_645 D
C79    C84     1.420   1_655 S
C79    N120    1.404   .     S
C80    C79     1.419   1_465 D
C80    C81     1.410   1_565 S
C80    H85     1.100   1_455 S
C81    C80     1.410   1_545 S
C81    C82     1.423   .     D
C81    O114    1.386   1_545 S
C82    C83     1.416   .     S
C82    N87     1.401   .     S
C83    C84     1.410   .     D
C83    H86     1.099   .     S
C84    C79     1.420   1_455 S
C84    O140    1.392   1_455 S
H85    C80     1.100   1_655 S
N87    C88     1.353   .     S
N87    H99     1.055   .     S
C88    H89     1.105   .     S
C88    C90     1.401   .     D
C90    C91     1.476   .     S
C90    C92     1.479   .     S
C91    C93     1.480   .     S
C91    O96     1.252   .     D
C92    C94     1.484   .     S
C92    O97     1.250   .     D
C93    C95     1.473   .     S
C93    C102    1.394   .     D
C94    C95     1.481   .     S
C94    C100    1.392   .     D
C95    O98     1.254   .     D
C100   H101    1.109   .     S
C100   N104    1.351   .     S
C102   H103    1.106   .     S
C102   N113    1.352   .     S
N104   C105    1.396   .     S
N104   H117    1.053   .     S
C105   C106    1.417   .     D
C105   C107    1.420   .     S
C106   C108    1.401   .     S
C106   H109    1.098   .     S
C107   C110    1.398   .     D
C107   O115    1.396   .     S
C108   C111    1.424   .     D
C108   O142    1.388   .     S
C110   C111    1.421   .     S
C110   H112    1.099   .     S
C111   N137    1.398   .     S
N113   H118    1.052   .     S
N113   C150    1.393   .     S
O114   C81     1.386   1_565 S
O114   H119    0.981   .     S
O115   H116    0.981   .     S
N120   C121    1.350   1_545 S
N120   H156    1.054   .     S
C121   N120    1.350   1_565 S
C121   C122    1.403   .     D
C121   H123    1.106   .     S
C122   C124    1.477   .     S
C122   C125    1.473   .     S
C124   C126    1.484   .     S
C124   O127    1.250   1_565 D
C125   C128    1.480   .     S
C125   O129    1.259   .     D
C126   C130    1.393   1_565 D
C126   C131    1.474   .     S
O127   C124    1.250   1_545 D
C128   C131    1.477   .     S
C128   C132    1.395   .     D
C130   C126    1.393   1_545 D
C130   N133    1.356   1_545 S
C130   H134    1.106   .     S
C131   O135    1.258   .     D
C132   H136    1.110   .     S
C132   N137    1.349   .     S
N133   C130    1.356   1_565 S
N133   H138    1.053   .     S
N133   C144    1.397   1_565 S
N137   H139    1.057   .     S
O140   C84     1.392   1_655 S
O140   H141    0.982   1_655 S
H141   O140    0.982   1_455 S
O142   H143    0.979   .     S
C144   N133    1.397   1_545 S
C144   C145    1.417   .     S
C144   C146    1.425   .     D
C145   C147    1.402   .     D
C145   H148    1.103   .     S
C146   C149    1.404   .     S
C146   O152    1.389   1_545 S
C147   C150    1.427   .     S
C147   O154    1.385   .     S
C149   C150    1.415   .     D
C149   H151    1.103   .     S
O152   C146    1.389   1_565 S
O152   H153    0.984   .     S
O154   H155    0.983   .     S
