data_563
_audit_creation_date              2023-09-08
_audit_creation_method            'Materials Studio'
_symmetry_space_group_name_H-M    'P1'
_symmetry_Int_Tables_number       1
_symmetry_cell_setting            triclinic
loop_
_symmetry_equiv_pos_as_xyz
  x,y,z
_cell_length_a                    22.3857
_cell_length_b                    22.5758
_cell_length_c                    6.7910
_cell_angle_alpha                 89.6424
_cell_angle_beta                  90.0665
_cell_angle_gamma                 119.1296
loop_
_atom_site_label
_atom_site_type_symbol
_atom_site_fract_x
_atom_site_fract_y
_atom_site_fract_z
_atom_site_U_iso_or_equiv
_atom_site_adp_type
_atom_site_occupancy
C1     C     0.92078   0.93357   0.05748   0.00000  Uiso   1.00
C2     C     0.95292   0.89328   0.03333   0.00000  Uiso   1.00
C3     C     0.02374   0.92560   0.99762   0.00000  Uiso   1.00
C4     C     0.06370   0.99784   0.98440   0.00000  Uiso   1.00
C5     C     0.03143   0.03824   0.00753   0.00000  Uiso   1.00
C6     C     0.96054   0.00597   0.04441   0.00000  Uiso   1.00
H7     H     0.92241   0.83748   0.04250   0.00000  Uiso   1.00
H8     H     0.06191   0.09406   0.99753   0.00000  Uiso   1.00
N9     N     0.13388   0.02444   0.95124   0.00000  Uiso   1.00
C10    C     0.18247   0.09008   0.92290   0.00000  Uiso   1.00
H11    H     0.16684   0.12986   0.91805   0.00000  Uiso   1.00
C12    C     0.25172   0.10940   0.90119   0.00000  Uiso   1.00
C13    C     0.27644   0.05939   0.91542   0.00000  Uiso   1.00
C14    C     0.29993   0.18317   0.87847   0.00000  Uiso   1.00
C15    C     0.35141   0.08534   0.92374   0.00000  Uiso   1.00
C16    C     0.37429   0.20663   0.87913   0.00000  Uiso   1.00
C17    C     0.40107   0.15851   0.89976   0.00000  Uiso   1.00
O18    O     0.23588   0.99642   0.92336   0.00000  Uiso   1.00
O19    O     0.27726   0.22414   0.86187   0.00000  Uiso   1.00
O20    O     0.46456   0.17983   0.89948   0.00000  Uiso   1.00
H21    H     0.15263   0.98952   0.95191   0.00000  Uiso   1.00
C22    C     0.42304   0.27580   0.87900   0.00000  Uiso   1.00
H23    H     0.47790   0.28993   0.88829   0.00000  Uiso   1.00
C24    C     0.37297   0.03815   0.96794   0.00000  Uiso   1.00
H25    H     0.33329   0.98419   0.98943   0.00000  Uiso   1.00
N26    N     0.40612   0.32573   0.87191   0.00000  Uiso   1.00
C27    C     0.45079   0.39545   0.89644   0.00000  Uiso   1.00
C28    C     0.52249   0.42316   0.92078   0.00000  Uiso   1.00
C29    C     0.42140   0.43912   0.90295   0.00000  Uiso   1.00
C30    C     0.56341   0.49313   0.95743   0.00000  Uiso   1.00
H31    H     0.54526   0.38960   0.91506   0.00000  Uiso   1.00
C32    C     0.46244   0.50915   0.93936   0.00000  Uiso   1.00
C33    C     0.53400   0.53661   0.96872   0.00000  Uiso   1.00
H34    H     0.43973   0.54278   0.94505   0.00000  Uiso   1.00
N35    N     0.43977   0.05517   0.98907   0.00000  Uiso   1.00
O36    O     0.06135   0.89078   0.96959   0.00000  Uiso   1.00
O37    O     0.35054   0.40636   0.86978   0.00000  Uiso   1.00
H38    H     0.35317   0.30924   0.86321   0.00000  Uiso   1.00
H39    H     0.47525   0.10721   0.96723   0.00000  Uiso   1.00
N40    N     0.85059   0.90585   0.09229   0.00000  Uiso   1.00
C41    C     0.80196   0.83949   0.08747   0.00000  Uiso   1.00
C42    C     0.73223   0.81844   0.10769   0.00000  Uiso   1.00
H43    H     0.81763   0.80049   0.06161   0.00000  Uiso   1.00
C44    C     0.70783   0.86829   0.12940   0.00000  Uiso   1.00
C45    C     0.68386   0.74488   0.08664   0.00000  Uiso   1.00
C46    C     0.63314   0.84318   0.12846   0.00000  Uiso   1.00
O47    O     0.74852   0.93095   0.14631   0.00000  Uiso   1.00
C48    C     0.60953   0.72211   0.07950   0.00000  Uiso   1.00
O49    O     0.70576   0.70323   0.07295   0.00000  Uiso   1.00
C50    C     0.61333   0.89314   0.13049   0.00000  Uiso   1.00
C51    C     0.58297   0.77008   0.11035   0.00000  Uiso   1.00
C52    C     0.56110   0.65447   0.03999   0.00000  Uiso   1.00
N53    N     0.54715   0.87834   0.12281   0.00000  Uiso   1.00
H54    H     0.65399   0.94726   0.13555   0.00000  Uiso   1.00
O55    O     0.51945   0.74819   0.11951   0.00000  Uiso   1.00
H56    H     0.50621   0.64049   0.03280   0.00000  Uiso   1.00
N57    N     0.57828   0.60544   0.00975   0.00000  Uiso   1.00
H58    H     0.51093   0.82608   0.12127   0.00000  Uiso   1.00
H59    H     0.63120   0.62172   0.02085   0.00000  Uiso   1.00
O60    O     0.92245   0.03948   0.07407   0.00000  Uiso   1.00
O61    O     0.63495   0.52587   0.98829   0.00000  Uiso   1.00
C62    C     0.52284   0.92447   0.09811   0.00000  Uiso   1.00
C63    C     0.56643   0.99571   0.07744   0.00000  Uiso   1.00
C64    C     0.45051   0.89714   0.08826   0.00000  Uiso   1.00
C65    C     0.53773   0.03827   0.04436   0.00000  Uiso   1.00
H66    H     0.62236   0.01714   0.08559   0.00000  Uiso   1.00
C67    C     0.42180   0.93966   0.05686   0.00000  Uiso   1.00
C68    C     0.46532   0.01073   0.03109   0.00000  Uiso   1.00
H69    H     0.36583   0.91807   0.04823   0.00000  Uiso   1.00
O70    O     0.41195   0.82600   0.11524   0.00000  Uiso   1.00
O71    O     0.57628   0.10937   0.01936   0.00000  Uiso   1.00
H72    H     0.83188   0.94040   0.11223   0.00000  Uiso   1.00
C73    C     0.95566   0.11278   0.05014   0.00000  Uiso   1.00
H74    H     0.00010   0.13937   0.15139   0.00000  Uiso   1.00
H75    H     0.97295   0.12850   0.89630   0.00000  Uiso   1.00
H76    H     0.91683   0.12771   0.08692   0.00000  Uiso   1.00
C77    C     0.02646   0.81784   0.00051   0.00000  Uiso   1.00
H78    H     0.00566   0.80382   0.15271   0.00000  Uiso   1.00
H79    H     0.98439   0.79068   0.89186   0.00000  Uiso   1.00
H80    H     0.06523   0.80146   0.97949   0.00000  Uiso   1.00
C81    C     0.33843   0.79363   0.08904   0.00000  Uiso   1.00
H82    H     0.31387   0.81070   0.20099   0.00000  Uiso   1.00
H83    H     0.32432   0.80273   0.93868   0.00000  Uiso   1.00
H84    H     0.31850   0.73835   0.10867   0.00000  Uiso   1.00
C85    C     0.65033   0.14129   0.03472   0.00000  Uiso   1.00
H86    H     0.66693   0.13285   0.18196   0.00000  Uiso   1.00
H87    H     0.67253   0.12296   0.91973   0.00000  Uiso   1.00
H88    H     0.67024   0.19648   0.01350   0.00000  Uiso   1.00
C89    C     0.31579   0.44583   0.89047   0.00000  Uiso   1.00
H90    H     0.32157   0.46656   0.04201   0.00000  Uiso   1.00
H91    H     0.33427   0.48816   0.78106   0.00000  Uiso   1.00
H92    H     0.26084   0.41067   0.86220   0.00000  Uiso   1.00
C93    C     0.66790   0.48422   0.98306   0.00000  Uiso   1.00
H94    H     0.72290   0.51863   0.01363   0.00000  Uiso   1.00
H95    H     0.64721   0.44367   0.09787   0.00000  Uiso   1.00
H96    H     0.66307   0.46107   0.83534   0.00000  Uiso   1.00
C97    C     0.98595   0.05477   0.53860   0.00000  Uiso   1.00
C98    C     0.01796   0.01419   0.51375   0.00000  Uiso   1.00
C99    C     0.08855   0.04611   0.47220   0.00000  Uiso   1.00
C100   C     0.12832   0.11840   0.45406   0.00000  Uiso   1.00
C101   C     0.09667   0.15893   0.48282   0.00000  Uiso   1.00
C102   C     0.02627   0.12699   0.52489   0.00000  Uiso   1.00
H103   H     0.98754   0.95842   0.52626   0.00000  Uiso   1.00
H104   H     0.12727   0.21468   0.47208   0.00000  Uiso   1.00
N105   N     0.19803   0.14578   0.41198   0.00000  Uiso   1.00
C106   C     0.24578   0.21226   0.39473   0.00000  Uiso   1.00
H107   H     0.22924   0.25126   0.40181   0.00000  Uiso   1.00
C108   C     0.31559   0.23371   0.37383   0.00000  Uiso   1.00
C109   C     0.34115   0.18433   0.37706   0.00000  Uiso   1.00
C110   C     0.36315   0.30798   0.36915   0.00000  Uiso   1.00
C111   C     0.41600   0.21053   0.38616   0.00000  Uiso   1.00
C112   C     0.43775   0.33213   0.38024   0.00000  Uiso   1.00
C113   C     0.46533   0.28417   0.38413   0.00000  Uiso   1.00
O114   O     0.30118   0.12120   0.37649   0.00000  Uiso   1.00
O115   O     0.34066   0.34922   0.35987   0.00000  Uiso   1.00
O116   O     0.52897   0.30657   0.38906   0.00000  Uiso   1.00
H117   H     0.21729   0.11131   0.40398   0.00000  Uiso   1.00
C118   C     0.48548   0.40100   0.40313   0.00000  Uiso   1.00
H119   H     0.54032   0.41533   0.41775   0.00000  Uiso   1.00
C120   C     0.43664   0.16169   0.41399   0.00000  Uiso   1.00
H121   H     0.39646   0.10739   0.42053   0.00000  Uiso   1.00
N122   N     0.46824   0.45078   0.41173   0.00000  Uiso   1.00
C123   C     0.51259   0.51981   0.45143   0.00000  Uiso   1.00
C124   C     0.58416   0.54692   0.47939   0.00000  Uiso   1.00
C125   C     0.48389   0.56390   0.46441   0.00000  Uiso   1.00
C126   C     0.62537   0.61637   0.52269   0.00000  Uiso   1.00
H127   H     0.60707   0.51358   0.46773   0.00000  Uiso   1.00
C128   C     0.52470   0.63292   0.51394   0.00000  Uiso   1.00
C129   C     0.59609   0.65976   0.54348   0.00000  Uiso   1.00
H130   H     0.50212   0.66655   0.52486   0.00000  Uiso   1.00
N131   N     0.50281   0.17772   0.43804   0.00000  Uiso   1.00
O132   O     0.12611   0.01215   0.44002   0.00000  Uiso   1.00
O133   O     0.41274   0.53278   0.42644   0.00000  Uiso   1.00
H134   H     0.41548   0.43436   0.39671   0.00000  Uiso   1.00
H135   H     0.53864   0.23002   0.43034   0.00000  Uiso   1.00
N136   N     0.91600   0.02852   0.57586   0.00000  Uiso   1.00
C137   C     0.86636   0.96263   0.59009   0.00000  Uiso   1.00
C138   C     0.79739   0.94364   0.61765   0.00000  Uiso   1.00
H139   H     0.88083   0.92218   0.57741   0.00000  Uiso   1.00
C140   C     0.77372   0.99451   0.62754   0.00000  Uiso   1.00
C141   C     0.74832   0.86961   0.61954   0.00000  Uiso   1.00
C142   C     0.69885   0.96976   0.62798   0.00000  Uiso   1.00
O143   O     0.81515   0.05729   0.63209   0.00000  Uiso   1.00
C144   C     0.67415   0.84699   0.62485   0.00000  Uiso   1.00
O145   O     0.77019   0.82783   0.61391   0.00000  Uiso   1.00
C146   C     0.67792   0.01866   0.60821   0.00000  Uiso   1.00
C147   C     0.64846   0.89622   0.63221   0.00000  Uiso   1.00
C148   C     0.62469   0.77844   0.60430   0.00000  Uiso   1.00
N149   N     0.61119   0.00284   0.59692   0.00000  Uiso   1.00
H150   H     0.71788   0.07300   0.59820   0.00000  Uiso   1.00
O151   O     0.58512   0.87554   0.63820   0.00000  Uiso   1.00
H152   H     0.56995   0.76504   0.60053   0.00000  Uiso   1.00
N153   N     0.64092   0.72834   0.58527   0.00000  Uiso   1.00
H154   H     0.57550   0.95038   0.60827   0.00000  Uiso   1.00
H155   H     0.69376   0.74401   0.59214   0.00000  Uiso   1.00
O156   O     0.98934   0.16225   0.55733   0.00000  Uiso   1.00
O157   O     0.69637   0.64807   0.55455   0.00000  Uiso   1.00
C158   C     0.58560   0.04769   0.56191   0.00000  Uiso   1.00
C159   C     0.62871   0.11897   0.53940   0.00000  Uiso   1.00
C160   C     0.51315   0.01983   0.54758   0.00000  Uiso   1.00
C161   C     0.59963   0.16093   0.50249   0.00000  Uiso   1.00
H162   H     0.68467   0.14105   0.55184   0.00000  Uiso   1.00
C163   C     0.48417   0.06175   0.50764   0.00000  Uiso   1.00
C164   C     0.52743   0.13283   0.48199   0.00000  Uiso   1.00
H165   H     0.42829   0.03977   0.49469   0.00000  Uiso   1.00
O166   O     0.47480   0.94884   0.57515   0.00000  Uiso   1.00
O167   O     0.63793   0.23206   0.47439   0.00000  Uiso   1.00
H168   H     0.89819   0.06398   0.58833   0.00000  Uiso   1.00
C169   C     0.02565   0.23567   0.53828   0.00000  Uiso   1.00
H170   H     0.06782   0.25994   0.64826   0.00000  Uiso   1.00
H171   H     0.04662   0.25227   0.38714   0.00000  Uiso   1.00
H172   H     0.98778   0.25271   0.56663   0.00000  Uiso   1.00
C173   C     0.09363   0.93937   0.47463   0.00000  Uiso   1.00
H174   H     0.07975   0.92653   0.63185   0.00000  Uiso   1.00
H175   H     0.04710   0.91089   0.38197   0.00000  Uiso   1.00
H176   H     0.13167   0.92379   0.43389   0.00000  Uiso   1.00
C177   C     0.40065   0.91697   0.56525   0.00000  Uiso   1.00
H178   H     0.37973   0.93744   0.67779   0.00000  Uiso   1.00
H179   H     0.38265   0.92298   0.41736   0.00000  Uiso   1.00
H180   H     0.38075   0.86218   0.59453   0.00000  Uiso   1.00
C181   C     0.71047   0.26565   0.51876   0.00000  Uiso   1.00
H182   H     0.72039   0.25583   0.67321   0.00000  Uiso   1.00
H183   H     0.73904   0.25025   0.41572   0.00000  Uiso   1.00
H184   H     0.72977   0.32087   0.50034   0.00000  Uiso   1.00
C185   C     0.38386   0.57748   0.39478   0.00000  Uiso   1.00
H186   H     0.38223   0.60263   0.53383   0.00000  Uiso   1.00
H187   H     0.41242   0.61666   0.28052   0.00000  Uiso   1.00
H188   H     0.33059   0.54492   0.34315   0.00000  Uiso   1.00
C189   C     0.73256   0.61499   0.47521   0.00000  Uiso   1.00
H190   H     0.78787   0.65167   0.48931   0.00000  Uiso   1.00
H191   H     0.72144   0.56815   0.56017   0.00000  Uiso   1.00
H192   H     0.72000   0.60219   0.31724   0.00000  Uiso   1.00
loop_
_geom_bond_atom_site_label_1
_geom_bond_atom_site_label_2
_geom_bond_distance
_geom_bond_site_symmetry_2
_ccdc_geom_bond_type
C1     C2      1.418   .     D
C1     C6      1.433   1_565 S
C1     N40     1.399   .     S
C2     C3      1.406   1_654 S
C2     H7      1.104   .     S
C3     C2      1.406   1_456 S
C3     C4      1.430   .     D
C3     O36     1.418   .     S
C4     C5      1.422   1_566 S
C4     N9      1.400   1_565 S
C5     C4      1.422   1_544 S
C5     C6      1.409   1_455 D
C5     H8      1.105   1_554 S
C6     C5      1.409   1_655 D
C6     C1      1.433   1_545 S
C6     O60     1.404   .     S
H8     C5      1.105   1_556 S
N9     C4      1.400   1_545 S
N9     C10     1.358   .     S
N9     H21     1.058   1_545 S
C10    H11     1.112   .     S
C10    C12     1.399   .     D
C12    C13     1.482   .     S
C12    C14     1.486   .     S
C13    C15     1.485   .     S
C13    O18     1.261   1_545 D
C14    C16     1.481   .     S
C14    O19     1.257   .     D
C15    C17     1.483   .     S
C15    C24     1.398   .     D
C16    C17     1.480   .     S
C16    C22     1.404   .     D
C17    O20     1.259   .     D
O18    C13     1.261   1_565 D
H21    N9      1.058   1_565 S
C22    H23     1.110   .     S
C22    N26     1.353   .     S
C24    H25     1.113   1_545 S
C24    N35     1.358   .     S
H25    C24     1.113   1_565 S
N26    C27     1.406   .     S
N26    H38     1.057   .     S
C27    C28     1.421   .     D
C27    C29     1.428   .     S
C28    C30     1.411   .     S
C28    H31     1.101   .     S
C29    C32     1.412   .     D
C29    O37     1.405   .     S
C30    C33     1.426   .     D
C30    O61     1.416   .     S
C32    C33     1.423   .     S
C32    H34     1.101   .     S
C33    N57     1.407   1_556 S
N35    H39     1.060   .     S
N35    C68     1.404   1_556 S
O36    C77     1.452   1_556 S
O37    C89     1.448   .     S
N40    C41     1.358   .     S
N40    H72     1.059   .     S
C41    C42     1.400   .     D
C41    H43     1.110   .     S
C42    C44     1.479   .     S
C42    C45     1.484   .     S
C44    C46     1.481   .     S
C44    O47     1.261   .     D
C45    C48     1.484   .     S
C45    O49     1.258   .     D
C46    C50     1.399   .     D
C46    C51     1.482   .     S
C48    C51     1.483   .     S
C48    C52     1.404   .     D
C50    N53     1.352   .     S
C50    H54     1.114   .     S
C51    O55     1.259   .     D
C52    H56     1.111   .     S
C52    N57     1.354   .     S
N53    H58     1.057   .     S
N53    C62     1.399   .     S
N57    C33     1.407   1_554 S
N57    H59     1.058   .     S
O60    C73     1.455   .     S
O61    C93     1.451   .     S
C62    C63     1.424   .     S
C62    C64     1.426   .     D
C63    C65     1.409   1_565 D
C63    H66     1.102   1_565 S
C64    C67     1.406   .     S
C64    O70     1.416   .     S
C65    C63     1.409   1_545 D
C65    C68     1.429   .     S
C65    O71     1.414   .     S
H66    C63     1.102   1_545 S
C67    C68     1.424   1_565 D
C67    H69     1.103   .     S
C68    C67     1.424   1_545 D
C68    N35     1.404   1_554 S
O70    C81     1.451   .     S
O71    C85     1.455   .     S
C73    H74     1.116   1_655 S
C73    H75     1.109   1_554 S
C73    H76     1.104   .     S
H74    C73     1.116   1_455 S
H75    C73     1.109   1_556 S
C77    O36     1.452   1_554 S
C77    H78     1.113   .     S
C77    H79     1.118   1_454 S
C77    H80     1.106   1_554 S
H79    C77     1.118   1_656 S
H80    C77     1.106   1_556 S
C81    H82     1.113   .     S
C81    H83     1.116   1_554 S
C81    H84     1.109   .     S
H83    C81     1.116   1_556 S
C85    H86     1.114   .     S
C85    H87     1.110   1_554 S
C85    H88     1.109   .     S
H87    C85     1.110   1_556 S
C89    H90     1.114   1_556 S
C89    H91     1.115   .     S
C89    H92     1.109   .     S
H90    C89     1.114   1_554 S
C93    H94     1.110   1_556 S
C93    H95     1.113   1_556 S
C93    H96     1.115   .     S
H94    C93     1.110   1_554 S
H95    C93     1.113   1_554 S
C97    C98     1.422   1_655 D
C97    C102    1.431   1_655 S
C97    N136    1.401   .     S
C98    C97     1.422   1_455 D
C98    C99     1.409   .     S
C98    H103    1.105   1_445 S
C99    C100    1.433   .     D
C99    O132    1.404   .     S
C100   C101    1.418   .     S
C100   N105    1.400   .     S
C101   C102    1.406   .     D
C101   H104    1.104   .     S
C102   C97     1.431   1_455 S
C102   O156    1.417   1_455 S
H103   C98     1.105   1_665 S
N105   C106    1.358   .     S
N105   H117    1.059   .     S
C106   H107    1.110   .     S
C106   C108    1.400   .     D
C108   C109    1.480   .     S
C108   C110    1.486   .     S
C109   C111    1.482   .     S
C109   O114    1.261   .     D
C110   C112    1.485   .     S
C110   O115    1.257   .     D
C111   C113    1.482   .     S
C111   C120    1.399   .     D
C112   C113    1.485   .     S
C112   C118    1.403   .     D
C113   O116    1.259   .     D
C118   H119    1.111   .     S
C118   N122    1.356   .     S
C120   H121    1.113   .     S
C120   N131    1.353   .     S
N122   C123    1.409   .     S
N122   H134    1.057   .     S
C123   C124    1.423   .     D
C123   C125    1.427   .     S
C124   C126    1.412   .     S
C124   H127    1.101   .     S
C125   C128    1.413   .     D
C125   O133    1.417   .     S
C126   C129    1.427   .     D
C126   O157    1.407   .     S
C128   C129    1.421   .     S
C128   H130    1.101   .     S
C129   N153    1.406   .     S
N131   H135    1.057   .     S
N131   C164    1.400   .     S
O132   C173    1.455   1_545 S
O133   C185    1.454   .     S
N136   C137    1.359   1_545 S
N136   H168    1.058   .     S
C137   N136    1.359   1_565 S
C137   C138    1.399   .     D
C137   H139    1.111   .     S
C138   C140    1.482   .     S
C138   C141    1.487   .     S
C140   C142    1.486   .     S
C140   O143    1.261   1_565 D
C141   C144    1.481   .     S
C141   O145    1.257   .     D
C142   C146    1.399   1_565 D
C142   C147    1.485   .     S
O143   C140    1.261   1_545 D
C144   C147    1.480   .     S
C144   C148    1.405   .     D
C146   C142    1.399   1_545 D
C146   N149    1.359   .     S
C146   H150    1.114   .     S
C147   O151    1.259   .     D
C148   H152    1.110   .     S
C148   N153    1.353   .     S
N149   H154    1.061   1_545 S
N149   C158    1.404   .     S
N153   H155    1.058   .     S
H154   N149    1.061   1_565 S
O156   C102    1.417   1_655 S
O156   C169    1.453   1_655 S
O157   C189    1.449   .     S
C158   C159    1.425   .     S
C158   C160    1.429   .     D
C159   C161    1.407   .     D
C159   H162    1.103   .     S
C160   C163    1.409   .     S
C160   O166    1.413   1_545 S
C161   C164    1.427   .     S
C161   O167    1.416   .     S
C163   C164    1.424   .     D
C163   H165    1.102   .     S
O166   C160    1.413   1_565 S
O166   C177    1.454   .     S
O167   C181    1.451   .     S
C169   O156    1.453   1_455 S
C169   H170    1.118   .     S
C169   H171    1.113   .     S
C169   H172    1.106   1_455 S
H172   C169    1.106   1_655 S
C173   O132    1.455   1_565 S
C173   H174    1.109   .     S
C173   H175    1.116   .     S
C173   H176    1.104   .     S
C177   H178    1.110   .     S
C177   H179    1.114   .     S
C177   H180    1.108   .     S
C181   H182    1.115   .     S
C181   H183    1.114   .     S
C181   H184    1.109   .     S
C185   H186    1.115   .     S
C185   H187    1.111   .     S
C185   H188    1.111   .     S
C189   H190    1.109   .     S
C189   H191    1.118   .     S
C189   H192    1.112   .     S
