data_564
_audit_creation_date              2023-09-08
_audit_creation_method            'Materials Studio'
_symmetry_space_group_name_H-M    'P1'
_symmetry_Int_Tables_number       1
_symmetry_cell_setting            triclinic
loop_
_symmetry_equiv_pos_as_xyz
  x,y,z
_cell_length_a                    22.6913
_cell_length_b                    22.8236
_cell_length_c                    6.6694
_cell_angle_alpha                 89.4875
_cell_angle_beta                  91.1500
_cell_angle_gamma                 121.1059
loop_
_atom_site_label
_atom_site_type_symbol
_atom_site_fract_x
_atom_site_fract_y
_atom_site_fract_z
_atom_site_U_iso_or_equiv
_atom_site_adp_type
_atom_site_occupancy
C1     C     0.96333   0.89674   0.99750   0.00000  Uiso   1.00
C2     C     0.03556   0.94005   0.99969   0.00000  Uiso   1.00
C3     C     0.06309   0.01083   0.99840   0.00000  Uiso   1.00
C4     C     0.01804   0.03696   0.99473   0.00000  Uiso   1.00
C5     C     0.94642   0.98945   0.99275   0.00000  Uiso   1.00
H6     H     0.06941   0.91830   0.00263   0.00000  Uiso   1.00
H7     H     0.11908   0.04507   0.00045   0.00000  Uiso   1.00
H8     H     0.90968   0.00825   0.98972   0.00000  Uiso   1.00
H9     H     0.96654   0.80469   0.99946   0.00000  Uiso   1.00
H10    H     0.00250   0.12147   0.99214   0.00000  Uiso   1.00
N11    N     0.04001   0.10698   0.99307   0.00000  Uiso   1.00
N12    N     0.93448   0.82585   0.99864   0.00000  Uiso   1.00
C13    C     0.10528   0.16022   0.99264   0.00000  Uiso   1.00
H14    H     0.14781   0.14938   0.99306   0.00000  Uiso   1.00
C15    C     0.86636   0.77980   0.99807   0.00000  Uiso   1.00
H16    H     0.83093   0.80009   0.99750   0.00000  Uiso   1.00
C17    C     0.84072   0.70933   0.99803   0.00000  Uiso   1.00
C18    C     0.88691   0.68098   0.99846   0.00000  Uiso   1.00
C19    C     0.76530   0.66387   0.99716   0.00000  Uiso   1.00
C20    C     0.85641   0.60578   0.99700   0.00000  Uiso   1.00
C21    C     0.73659   0.58886   0.99459   0.00000  Uiso   1.00
C22    C     0.78136   0.55867   0.99478   0.00000  Uiso   1.00
C23    C     0.12154   0.22844   0.99156   0.00000  Uiso   1.00
C24    C     0.06803   0.24758   0.99185   0.00000  Uiso   1.00
C25    C     0.19554   0.28087   0.99068   0.00000  Uiso   1.00
C26    C     0.08981   0.32116   0.99215   0.00000  Uiso   1.00
C27    C     0.21529   0.35391   0.99016   0.00000  Uiso   1.00
C28    C     0.16317   0.37489   0.99100   0.00000  Uiso   1.00
O29    O     0.95079   0.71869   0.00016   0.00000  Uiso   1.00
O30    O     0.23900   0.26242   0.99030   0.00000  Uiso   1.00
O31    O     0.18170   0.43714   0.99080   0.00000  Uiso   1.00
O32    O     0.00569   0.20286   0.99219   0.00000  Uiso   1.00
O33    O     0.72711   0.68896   0.99844   0.00000  Uiso   1.00
O34    O     0.75608   0.49517   0.99316   0.00000  Uiso   1.00
C35    C     0.28382   0.40629   0.98914   0.00000  Uiso   1.00
H36    H     0.29583   0.46017   0.98892   0.00000  Uiso   1.00
C37    C     0.90242   0.58209   0.99796   0.00000  Uiso   1.00
H38    H     0.95794   0.62021   0.99935   0.00000  Uiso   1.00
C39    C     0.66604   0.54331   0.99147   0.00000  Uiso   1.00
H40    H     0.64723   0.48770   0.98905   0.00000  Uiso   1.00
C41    C     0.03828   0.33764   0.99426   0.00000  Uiso   1.00
H42    H     0.98417   0.29570   0.99557   0.00000  Uiso   1.00
H43    H     0.32093   0.34132   0.98833   0.00000  Uiso   1.00
H44    H     0.82861   0.48184   0.99704   0.00000  Uiso   1.00
C45    C     0.92423   0.48579   0.99861   0.00000  Uiso   1.00
C46    C     0.89280   0.41359   0.00345   0.00000  Uiso   1.00
C47    C     0.99697   0.52489   0.99429   0.00000  Uiso   1.00
C48    C     0.93333   0.38344   0.00301   0.00000  Uiso   1.00
H49    H     0.83655   0.38130   0.00765   0.00000  Uiso   1.00
H50    H     0.02465   0.58160   0.99026   0.00000  Uiso   1.00
C51    C     0.00555   0.42662   0.99725   0.00000  Uiso   1.00
H52    H     0.90892   0.32734   0.00712   0.00000  Uiso   1.00
C53    C     0.40642   0.44068   0.98777   0.00000  Uiso   1.00
C54    C     0.43598   0.51287   0.98894   0.00000  Uiso   1.00
C55    C     0.51363   0.44990   0.98684   0.00000  Uiso   1.00
C56    C     0.50729   0.55377   0.98958   0.00000  Uiso   1.00
H57    H     0.40430   0.53706   0.98976   0.00000  Uiso   1.00
C58    C     0.54788   0.52254   0.98899   0.00000  Uiso   1.00
H59    H     0.54268   0.42256   0.98560   0.00000  Uiso   1.00
H60    H     0.53175   0.61001   0.99100   0.00000  Uiso   1.00
N61    N     0.33611   0.39366   0.98822   0.00000  Uiso   1.00
N62    N     0.88223   0.51465   0.99779   0.00000  Uiso   1.00
H63    H     0.64119   0.61772   0.99352   0.00000  Uiso   1.00
N64    N     0.61946   0.56410   0.99101   0.00000  Uiso   1.00
H65    H     0.10454   0.44058   0.99263   0.00000  Uiso   1.00
N66    N     0.05194   0.40322   0.99481   0.00000  Uiso   1.00
N67    N     0.44547   0.41103   0.98636   0.00000  Uiso   1.00
N68    N     0.92023   0.92172   0.99418   0.00000  Uiso   1.00
N69    N     0.03558   0.49575   0.99360   0.00000  Uiso   1.00
C70    C     0.00147   0.98631   0.49626   0.00000  Uiso   1.00
C71    C     0.07376   0.02951   0.49871   0.00000  Uiso   1.00
C72    C     0.10156   0.10023   0.49692   0.00000  Uiso   1.00
C73    C     0.05661   0.12655   0.49259   0.00000  Uiso   1.00
C74    C     0.98496   0.07925   0.49017   0.00000  Uiso   1.00
H75    H     0.10747   0.00758   0.50235   0.00000  Uiso   1.00
H76    H     0.15755   0.13428   0.49921   0.00000  Uiso   1.00
H77    H     0.94840   0.09826   0.48631   0.00000  Uiso   1.00
H78    H     0.00603   0.89523   0.50115   0.00000  Uiso   1.00
H79    H     0.04239   0.21204   0.49021   0.00000  Uiso   1.00
N80    N     0.07921   0.19662   0.49105   0.00000  Uiso   1.00
N81    N     0.97319   0.91548   0.49827   0.00000  Uiso   1.00
C82    C     0.14496   0.24876   0.49093   0.00000  Uiso   1.00
H83    H     0.18679   0.23693   0.49089   0.00000  Uiso   1.00
C84    C     0.90538   0.86807   0.49686   0.00000  Uiso   1.00
H85    H     0.86882   0.88696   0.49427   0.00000  Uiso   1.00
C86    C     0.88153   0.79798   0.49829   0.00000  Uiso   1.00
C87    C     0.92911   0.77115   0.50065   0.00000  Uiso   1.00
C88    C     0.80616   0.75117   0.49667   0.00000  Uiso   1.00
C89    C     0.90016   0.69625   0.49926   0.00000  Uiso   1.00
C90    C     0.77935   0.67649   0.49647   0.00000  Uiso   1.00
C91    C     0.82550   0.64817   0.49759   0.00000  Uiso   1.00
C92    C     0.16260   0.31736   0.49073   0.00000  Uiso   1.00
C93    C     0.11028   0.33796   0.49149   0.00000  Uiso   1.00
C94    C     0.23672   0.36856   0.48992   0.00000  Uiso   1.00
C95    C     0.13347   0.41186   0.49232   0.00000  Uiso   1.00
C96    C     0.25821   0.44209   0.49014   0.00000  Uiso   1.00
C97    C     0.20719   0.46487   0.49155   0.00000  Uiso   1.00
O98    O     0.99282   0.81054   0.50359   0.00000  Uiso   1.00
O99    O     0.27965   0.34930   0.48906   0.00000  Uiso   1.00
O100   O     0.22664   0.52713   0.49202   0.00000  Uiso   1.00
O101   O     0.04751   0.29458   0.49142   0.00000  Uiso   1.00
O102   O     0.76727   0.77525   0.49550   0.00000  Uiso   1.00
O103   O     0.80089   0.58459   0.49692   0.00000  Uiso   1.00
C104   C     0.32715   0.49284   0.48935   0.00000  Uiso   1.00
H105   H     0.34083   0.54721   0.48984   0.00000  Uiso   1.00
C106   C     0.94679   0.67317   0.49903   0.00000  Uiso   1.00
H107   H     0.00218   0.71144   0.49998   0.00000  Uiso   1.00
C108   C     0.70919   0.62915   0.49416   0.00000  Uiso   1.00
H109   H     0.69186   0.57382   0.49413   0.00000  Uiso   1.00
C110   C     0.08246   0.42901   0.49355   0.00000  Uiso   1.00
H111   H     0.02818   0.38722   0.49416   0.00000  Uiso   1.00
H112   H     0.36237   0.42591   0.48777   0.00000  Uiso   1.00
H113   H     0.87298   0.57287   0.49838   0.00000  Uiso   1.00
C114   C     0.96836   0.57671   0.49633   0.00000  Uiso   1.00
C115   C     0.93691   0.50448   0.50104   0.00000  Uiso   1.00
C116   C     0.04101   0.61583   0.48999   0.00000  Uiso   1.00
C117   C     0.97752   0.47442   0.49996   0.00000  Uiso   1.00
H118   H     0.88064   0.47215   0.50635   0.00000  Uiso   1.00
H119   H     0.06849   0.67252   0.48529   0.00000  Uiso   1.00
C120   C     0.04977   0.51776   0.49428   0.00000  Uiso   1.00
H121   H     0.95307   0.41830   0.50479   0.00000  Uiso   1.00
C122   C     0.44908   0.52481   0.48808   0.00000  Uiso   1.00
C123   C     0.47873   0.59700   0.48819   0.00000  Uiso   1.00
C124   C     0.55620   0.53377   0.48867   0.00000  Uiso   1.00
C125   C     0.54991   0.63772   0.48907   0.00000  Uiso   1.00
H126   H     0.44714   0.62124   0.48764   0.00000  Uiso   1.00
C127   C     0.59046   0.60643   0.48979   0.00000  Uiso   1.00
H128   H     0.58525   0.50638   0.48833   0.00000  Uiso   1.00
H129   H     0.57457   0.69396   0.48930   0.00000  Uiso   1.00
N130   N     0.37857   0.47853   0.48806   0.00000  Uiso   1.00
N131   N     0.92663   0.60584   0.49788   0.00000  Uiso   1.00
H132   H     0.68281   0.70214   0.49164   0.00000  Uiso   1.00
N133   N     0.66175   0.64857   0.49169   0.00000  Uiso   1.00
H134   H     0.14885   0.53182   0.49196   0.00000  Uiso   1.00
N135   N     0.09631   0.49458   0.49348   0.00000  Uiso   1.00
N136   N     0.48791   0.49490   0.48792   0.00000  Uiso   1.00
N137   N     0.95850   0.01137   0.49200   0.00000  Uiso   1.00
N138   N     0.07970   0.58682   0.48931   0.00000  Uiso   1.00
loop_
_geom_bond_atom_site_label_1
_geom_bond_atom_site_label_2
_geom_bond_distance
_geom_bond_site_symmetry_2
_ccdc_geom_bond_type
C1     C2      1.410   1_655 D
C1     N12     1.397   .     S
C1     N68     1.363   .     S
C2     C1      1.410   1_455 D
C2     C3      1.399   1_565 S
C2     H6      1.109   1_556 S
C3     C2      1.399   1_545 S
C3     C4      1.425   .     D
C3     H7      1.095   1_556 S
C4     C5      1.413   1_445 S
C4     N11     1.407   .     S
C5     C4      1.413   1_665 S
C5     H8      1.117   1_565 S
C5     N68     1.339   .     D
H6     C2      1.109   1_554 S
H7     C3      1.095   1_554 S
H8     C5      1.117   1_545 S
H9     N12     1.061   .     S
H10    N11     1.060   .     S
N11    C13     1.346   .     S
N12    C15     1.347   .     S
C13    H14     1.113   .     S
C13    C23     1.402   .     D
C15    H16     1.116   .     S
C15    C17     1.399   .     D
C17    C18     1.489   .     S
C17    C19     1.473   .     S
C18    C20     1.482   .     S
C18    O29     1.246   1_556 D
C19    C21     1.484   .     S
C19    O33     1.262   .     D
C20    C22     1.471   .     S
C20    C37     1.402   .     D
C21    C22     1.493   .     S
C21    C39     1.387   .     D
C22    O34     1.253   .     D
C23    C24     1.488   .     S
C23    C25     1.475   .     S
C24    C26     1.486   .     S
C24    O32     1.245   .     D
C25    C27     1.486   .     S
C25    O30     1.257   .     D
C26    C28     1.472   .     S
C26    C41     1.401   .     D
C27    C28     1.488   .     S
C27    C35     1.388   .     D
C28    O31     1.256   .     D
O29    C18     1.246   1_554 D
C35    H36     1.114   .     S
C35    N61     1.358   .     S
C37    H38     1.101   .     S
C37    N62     1.360   .     S
C39    H40     1.111   .     S
C39    N64     1.364   .     S
C41    H42     1.100   1_455 S
C41    N66     1.363   .     S
H42    C41     1.100   1_655 S
H43    N61     1.059   .     S
H44    N62     1.049   .     S
C45    C46     1.418   1_556 D
C45    C47     1.415   .     S
C45    N62     1.411   .     S
C46    C45     1.418   1_554 D
C46    C48     1.405   .     S
C46    H49     1.096   .     S
C47    H50     1.109   1_655 S
C47    N69     1.346   1_655 D
C48    C51     1.411   1_654 D
C48    H52     1.102   .     S
H50    C47     1.109   1_455 S
C51    C48     1.411   1_456 D
C51    N66     1.405   .     S
C51    N69     1.358   .     S
C53    C54     1.422   .     D
C53    N61     1.389   .     S
C53    N67     1.365   .     S
C54    C56     1.389   .     S
C54    H57     1.110   .     S
C55    C58     1.422   .     S
C55    H59     1.118   .     S
C55    N67     1.327   .     D
C56    C58     1.427   .     D
C56    H60     1.104   .     S
C58    N64     1.395   .     S
H63    N64     1.057   .     S
H65    N66     1.049   .     S
N69    C47     1.346   1_455 D
C70    C71     1.411   1_565 D
C70    N81     1.398   1_455 S
C70    N137    1.361   1_465 S
C71    C70     1.411   1_545 D
C71    C72     1.397   .     S
C71    H75     1.109   .     S
C72    C73     1.426   .     D
C72    H76     1.094   .     S
C73    C74     1.412   1_455 S
C73    N80     1.405   .     S
C74    C73     1.412   1_655 S
C74    H77     1.117   .     S
C74    N137    1.342   .     D
H78    N81     1.060   1_455 S
H79    N80     1.061   .     S
N80    C82     1.344   .     S
N81    C70     1.398   1_655 S
N81    H78     1.060   1_655 S
N81    C84     1.348   .     S
C82    H83     1.113   .     S
C82    C92     1.401   .     D
C84    H85     1.115   .     S
C84    C86     1.399   .     D
C86    C87     1.491   .     S
C86    C88     1.476   .     S
C87    C89     1.481   .     S
C87    O98     1.247   .     D
C88    C90     1.485   .     S
C88    O102    1.258   .     D
C89    C91     1.467   .     S
C89    C106    1.405   .     D
C90    C91     1.488   .     S
C90    C108    1.387   .     D
C91    O103    1.257   .     D
C92    C93     1.486   .     S
C92    C94     1.471   .     S
C93    C95     1.485   .     S
C93    O101    1.246   .     D
C94    C96     1.486   .     S
C94    O99     1.259   .     D
C95    C97     1.473   .     S
C95    C110    1.401   .     D
C96    C97     1.494   .     S
C96    C104    1.385   .     D
C97    O100    1.251   .     D
C104   H105    1.113   .     S
C104   N130    1.365   .     S
C106   H107    1.099   1_655 S
C106   N131    1.358   .     S
H107   C106    1.099   1_455 S
C108   H109    1.112   .     S
C108   N133    1.359   .     S
C110   H111    1.101   .     S
C110   N135    1.361   .     S
H112   N130    1.059   .     S
H113   N131    1.050   .     S
C114   C115    1.419   .     D
C114   C116    1.413   1_655 S
C114   N131    1.411   .     S
C115   C117    1.405   .     S
C115   H118    1.097   .     S
C116   C114    1.413   1_455 S
C116   H119    1.109   .     S
C116   N138    1.345   .     D
C117   C120    1.412   1_655 D
C117   H121    1.102   .     S
C120   C117    1.412   1_455 D
C120   N135    1.405   .     S
C120   N138    1.357   .     S
C122   C123    1.422   .     D
C122   N130    1.389   .     S
C122   N136    1.365   .     S
C123   C125    1.386   .     S
C123   H126    1.109   .     S
C124   C127    1.422   .     S
C124   H128    1.119   .     S
C124   N136    1.330   .     D
C125   C127    1.427   .     D
C125   H129    1.104   .     S
C127   N133    1.391   .     S
H132   N133    1.058   .     S
H134   N135    1.047   .     S
N137   C70     1.361   1_645 S
