data_565
_audit_creation_date              2023-09-08
_audit_creation_method            'Materials Studio'
_symmetry_space_group_name_H-M    'P1'
_symmetry_Int_Tables_number       1
_symmetry_cell_setting            triclinic
loop_
_symmetry_equiv_pos_as_xyz
  x,y,z
_cell_length_a                    22.8345
_cell_length_b                    22.9439
_cell_length_c                    6.8744
_cell_angle_alpha                 89.8514
_cell_angle_beta                  89.7964
_cell_angle_gamma                 120.5433
loop_
_atom_site_label
_atom_site_type_symbol
_atom_site_fract_x
_atom_site_fract_y
_atom_site_fract_z
_atom_site_U_iso_or_equiv
_atom_site_adp_type
_atom_site_occupancy
C1     C     0.98279   0.92925   0.00950   0.00000  Uiso   1.00
C2     C     0.05503   0.97458   0.00825   0.00000  Uiso   1.00
C3     C     0.08084   0.04513   0.00496   0.00000  Uiso   1.00
C4     C     0.03711   0.07238   0.00310   0.00000  Uiso   1.00
C5     C     0.96568   0.02714   0.00449   0.00000  Uiso   1.00
C6     C     0.93926   0.95715   0.00849   0.00000  Uiso   1.00
H7     H     0.13655   0.07961   0.00182   0.00000  Uiso   1.00
H8     H     0.93060   0.04722   0.00313   0.00000  Uiso   1.00
H9     H     0.88342   0.92403   0.01040   0.00000  Uiso   1.00
H10    H     0.98762   0.83785   0.01264   0.00000  Uiso   1.00
H11    H     0.02451   0.15804   0.99712   0.00000  Uiso   1.00
N12    N     0.06081   0.14214   0.99801   0.00000  Uiso   1.00
N13    N     0.95546   0.85875   0.01047   0.00000  Uiso   1.00
C14    C     0.12646   0.19405   0.99220   0.00000  Uiso   1.00
H15    H     0.16812   0.18221   0.99266   0.00000  Uiso   1.00
C16    C     0.88815   0.81122   0.00781   0.00000  Uiso   1.00
H17    H     0.84996   0.82775   0.00482   0.00000  Uiso   1.00
C18    C     0.86370   0.74160   0.00753   0.00000  Uiso   1.00
C19    C     0.90961   0.71324   0.01014   0.00000  Uiso   1.00
C20    C     0.78871   0.69738   0.00219   0.00000  Uiso   1.00
C21    C     0.87845   0.63823   0.00461   0.00000  Uiso   1.00
C22    C     0.75953   0.62297   0.99440   0.00000  Uiso   1.00
C23    C     0.80359   0.59215   0.99475   0.00000  Uiso   1.00
C24    C     0.14354   0.26192   0.98661   0.00000  Uiso   1.00
C25    C     0.09077   0.28180   0.98518   0.00000  Uiso   1.00
C26    C     0.21758   0.31335   0.98249   0.00000  Uiso   1.00
C27    C     0.11334   0.35508   0.98558   0.00000  Uiso   1.00
C28    C     0.23785   0.38608   0.98425   0.00000  Uiso   1.00
C29    C     0.18658   0.40774   0.98779   0.00000  Uiso   1.00
O30    O     0.97276   0.75079   0.01578   0.00000  Uiso   1.00
O31    O     0.26049   0.29468   0.97844   0.00000  Uiso   1.00
O32    O     0.20588   0.46984   0.99174   0.00000  Uiso   1.00
O33    O     0.02844   0.23808   0.98327   0.00000  Uiso   1.00
O34    O     0.75157   0.72321   0.00385   0.00000  Uiso   1.00
O35    O     0.77763   0.52929   0.98662   0.00000  Uiso   1.00
C36    C     0.30622   0.43777   0.98344   0.00000  Uiso   1.00
H37    H     0.31810   0.49126   0.98548   0.00000  Uiso   1.00
C38    C     0.92352   0.61378   0.00552   0.00000  Uiso   1.00
H39    H     0.97880   0.65139   0.01222   0.00000  Uiso   1.00
C40    C     0.68946   0.57863   0.98582   0.00000  Uiso   1.00
H41    H     0.67115   0.52354   0.97927   0.00000  Uiso   1.00
C42    C     0.06251   0.37237   0.98353   0.00000  Uiso   1.00
H43    H     0.00841   0.33119   0.98161   0.00000  Uiso   1.00
H44    H     0.34201   0.37240   0.97929   0.00000  Uiso   1.00
H45    H     0.84919   0.51519   0.99311   0.00000  Uiso   1.00
C46    C     0.94517   0.51847   0.99439   0.00000  Uiso   1.00
C47    C     0.91664   0.44641   0.98850   0.00000  Uiso   1.00
C48    C     0.01729   0.56102   0.99485   0.00000  Uiso   1.00
C49    C     0.96053   0.41969   0.98279   0.00000  Uiso   1.00
C50    C     0.06005   0.53384   0.99049   0.00000  Uiso   1.00
H51    H     0.04100   0.61666   0.99873   0.00000  Uiso   1.00
C52    C     0.03214   0.46249   0.98505   0.00000  Uiso   1.00
H53    H     0.93836   0.36420   0.97576   0.00000  Uiso   1.00
H54    H     0.11578   0.56812   0.99156   0.00000  Uiso   1.00
C55    C     0.42822   0.47122   0.97793   0.00000  Uiso   1.00
C56    C     0.47221   0.44413   0.97768   0.00000  Uiso   1.00
C57    C     0.45734   0.54257   0.97367   0.00000  Uiso   1.00
C58    C     0.54254   0.48699   0.97864   0.00000  Uiso   1.00
H59    H     0.45075   0.38880   0.97885   0.00000  Uiso   1.00
C60    C     0.52868   0.58694   0.97195   0.00000  Uiso   1.00
H61    H     0.42382   0.56446   0.97045   0.00000  Uiso   1.00
C62    C     0.57242   0.55873   0.97864   0.00000  Uiso   1.00
H63    H     0.57467   0.46361   0.98165   0.00000  Uiso   1.00
N64    N     0.35801   0.42471   0.98018   0.00000  Uiso   1.00
N65    N     0.90276   0.54655   0.99812   0.00000  Uiso   1.00
H66    H     0.66611   0.65352   0.99150   0.00000  Uiso   1.00
N67    N     0.64345   0.60012   0.98490   0.00000  Uiso   1.00
H68    H     0.13021   0.47375   0.98548   0.00000  Uiso   1.00
N69    N     0.07741   0.43785   0.98329   0.00000  Uiso   1.00
S70    S     0.55614   0.67867   0.97247   0.00000  Uiso   1.00
O71    O     0.57333   0.70295   0.17359   0.00000  Uiso   1.00
O72    O     0.50477   0.68604   0.86287   0.00000  Uiso   1.00
O73    O     0.62908   0.71473   0.85618   0.00000  Uiso   1.00
H74    H     0.63223   0.72229   0.71554   0.00000  Uiso   1.00
S75    S     0.11605   0.94359   0.99049   0.00000  Uiso   1.00
O76    O     0.12115   0.93074   0.78383   0.00000  Uiso   1.00
O77    O     0.09933   0.89166   0.14156   0.00000  Uiso   1.00
O78    O     0.18825   0.01269   0.04338   0.00000  Uiso   1.00
H79    H     0.20044   0.02233   0.18066   0.00000  Uiso   1.00
S80    S     0.82363   0.38783   0.98132   0.00000  Uiso   1.00
O81    O     0.80042   0.39125   0.78502   0.00000  Uiso   1.00
O82    O     0.79294   0.39905   0.15666   0.00000  Uiso   1.00
O83    O     0.81846   0.31346   0.99578   0.00000  Uiso   1.00
H84    H     0.81908   0.29579   0.12503   0.00000  Uiso   1.00
C85    C     0.97307   0.97721   0.50687   0.00000  Uiso   1.00
C86    C     0.92968   0.00451   0.49166   0.00000  Uiso   1.00
C87    C     0.95529   0.07517   0.48475   0.00000  Uiso   1.00
C88    C     0.02744   0.12074   0.49565   0.00000  Uiso   1.00
C89    C     0.07063   0.09257   0.51121   0.00000  Uiso   1.00
C90    C     0.04446   0.02265   0.51564   0.00000  Uiso   1.00
H91    H     0.12631   0.12594   0.52147   0.00000  Uiso   1.00
H92    H     0.07950   0.00271   0.52807   0.00000  Uiso   1.00
H93    H     0.98517   0.89126   0.52243   0.00000  Uiso   1.00
H94    H     0.02306   0.21213   0.49152   0.00000  Uiso   1.00
N95    N     0.05540   0.19129   0.49132   0.00000  Uiso   1.00
N96    N     0.94909   0.90744   0.51247   0.00000  Uiso   1.00
C97    C     0.12279   0.23876   0.48615   0.00000  Uiso   1.00
H98    H     0.16098   0.22224   0.48117   0.00000  Uiso   1.00
C99    C     0.88334   0.85580   0.50489   0.00000  Uiso   1.00
H100   H     0.84213   0.86814   0.49512   0.00000  Uiso   1.00
C101   C     0.86576   0.78773   0.50765   0.00000  Uiso   1.00
C102   C     0.91871   0.76794   0.51789   0.00000  Uiso   1.00
C103   C     0.79210   0.73619   0.49917   0.00000  Uiso   1.00
C104   C     0.89684   0.69488   0.51132   0.00000  Uiso   1.00
C105   C     0.77230   0.66360   0.49440   0.00000  Uiso   1.00
C106   C     0.82392   0.64211   0.50079   0.00000  Uiso   1.00
C107   C     0.14693   0.30838   0.48568   0.00000  Uiso   1.00
C108   C     0.10044   0.33588   0.48977   0.00000  Uiso   1.00
C109   C     0.22186   0.35388   0.47899   0.00000  Uiso   1.00
C110   C     0.13056   0.41067   0.48653   0.00000  Uiso   1.00
C111   C     0.25006   0.42837   0.48687   0.00000  Uiso   1.00
C112   C     0.20502   0.45774   0.49417   0.00000  Uiso   1.00
O113   O     0.98046   0.81156   0.53245   0.00000  Uiso   1.00
O114   O     0.25972   0.32905   0.46825   0.00000  Uiso   1.00
O115   O     0.22999   0.52097   0.50831   0.00000  Uiso   1.00
O116   O     0.03725   0.29811   0.49490   0.00000  Uiso   1.00
O117   O     0.74844   0.75429   0.49785   0.00000  Uiso   1.00
O118   O     0.80464   0.58014   0.49661   0.00000  Uiso   1.00
C119   C     0.32027   0.47359   0.48862   0.00000  Uiso   1.00
H120   H     0.33845   0.52864   0.49644   0.00000  Uiso   1.00
C121   C     0.94829   0.67833   0.51367   0.00000  Uiso   1.00
H122   H     0.00224   0.71975   0.51952   0.00000  Uiso   1.00
C123   C     0.70433   0.61159   0.48539   0.00000  Uiso   1.00
H124   H     0.69268   0.55818   0.48765   0.00000  Uiso   1.00
C125   C     0.08379   0.43311   0.48251   0.00000  Uiso   1.00
H126   H     0.02869   0.39461   0.48640   0.00000  Uiso   1.00
H127   H     0.34353   0.39906   0.47551   0.00000  Uiso   1.00
H128   H     0.88083   0.57713   0.50369   0.00000  Uiso   1.00
C129   C     0.97832   0.58771   0.50387   0.00000  Uiso   1.00
C130   C     0.05018   0.62921   0.50966   0.00000  Uiso   1.00
C131   C     0.94858   0.51622   0.49184   0.00000  Uiso   1.00
C132   C     0.09251   0.60074   0.50003   0.00000  Uiso   1.00
C133   C     0.98980   0.48730   0.48294   0.00000  Uiso   1.00
H134   H     0.89267   0.48334   0.48843   0.00000  Uiso   1.00
C135   C     0.06184   0.52872   0.48415   0.00000  Uiso   1.00
H136   H     0.96524   0.43166   0.47199   0.00000  Uiso   1.00
C137   C     0.43763   0.49364   0.48168   0.00000  Uiso   1.00
C138   C     0.46841   0.56539   0.48367   0.00000  Uiso   1.00
C139   C     0.48041   0.46433   0.47942   0.00000  Uiso   1.00
C140   C     0.53893   0.60698   0.48299   0.00000  Uiso   1.00
H141   H     0.43726   0.58979   0.48767   0.00000  Uiso   1.00
C142   C     0.55188   0.50741   0.47511   0.00000  Uiso   1.00
C143   C     0.58202   0.57886   0.47641   0.00000  Uiso   1.00
H144   H     0.56119   0.66244   0.48459   0.00000  Uiso   1.00
N145   N     0.36647   0.45251   0.48181   0.00000  Uiso   1.00
N146   N     0.93361   0.61299   0.50874   0.00000  Uiso   1.00
H147   H     0.66906   0.67688   0.46568   0.00000  Uiso   1.00
N148   N     0.65242   0.62454   0.47332   0.00000  Uiso   1.00
H149   H     0.15642   0.53144   0.46072   0.00000  Uiso   1.00
N150   N     0.10341   0.49977   0.47238   0.00000  Uiso   1.00
S151   S     0.88948   0.09870   0.44837   0.00000  Uiso   1.00
O152   O     0.84772   0.05875   0.28372   0.00000  Uiso   1.00
O153   O     0.91997   0.17279   0.45114   0.00000  Uiso   1.00
O154   O     0.84128   0.06449   0.64338   0.00000  Uiso   1.00
H155   H     0.85540   0.08907   0.76645   0.00000  Uiso   1.00
H156   H     0.87411   0.96993   0.48259   0.00000  Uiso   1.00
H157   H     0.58476   0.48481   0.46927   0.00000  Uiso   1.00
H158   H     0.07377   0.68476   0.52194   0.00000  Uiso   1.00
S159   S     0.44393   0.37111   0.48379   0.00000  Uiso   1.00
O160   O     0.41595   0.34394   0.29139   0.00000  Uiso   1.00
O161   O     0.40155   0.34371   0.66090   0.00000  Uiso   1.00
O162   O     0.51288   0.36556   0.50218   0.00000  Uiso   1.00
H163   H     0.53256   0.36936   0.63094   0.00000  Uiso   1.00
S164   S     0.18602   0.66049   0.49066   0.00000  Uiso   1.00
O165   O     0.19746   0.72565   0.56178   0.00000  Uiso   1.00
O166   O     0.20955   0.65366   0.29542   0.00000  Uiso   1.00
O167   O     0.21526   0.63103   0.65894   0.00000  Uiso   1.00
H168   H     0.22924   0.59766   0.62569   0.00000  Uiso   1.00
loop_
_geom_bond_atom_site_label_1
_geom_bond_atom_site_label_2
_geom_bond_distance
_geom_bond_site_symmetry_2
_ccdc_geom_bond_type
C1     C2      1.435   1_655 D
C1     C6      1.430   .     S
C1     N13     1.407   .     S
C2     C1      1.435   1_455 D
C2     C3      1.414   1_565 S
C2     S75     1.862   1_554 S
C3     C2      1.414   1_545 S
C3     C4      1.422   .     D
C3     H7      1.105   .     S
C4     C5      1.420   1_455 S
C4     N12     1.405   1_554 S
C5     C4      1.420   1_655 S
C5     C6      1.399   1_545 D
C5     H8      1.109   .     S
C6     C5      1.399   1_565 D
C6     H9      1.104   .     S
H10    N13     1.062   .     S
H11    N12     1.062   .     S
N12    C4      1.405   1_556 S
N12    C14     1.361   .     S
N13    C16     1.360   .     S
C14    H15     1.114   .     S
C14    C24     1.400   .     D
C16    H17     1.114   .     S
C16    C18     1.399   .     D
C18    C19     1.489   .     S
C18    C20     1.482   .     S
C19    C21     1.492   .     S
C19    O30     1.249   .     D
C20    C22     1.485   1_554 S
C20    O34     1.258   .     D
C21    C23     1.486   1_554 S
C21    C38     1.400   .     D
C22    C20     1.485   1_556 S
C22    C23     1.495   .     S
C22    C40     1.395   .     D
C23    C21     1.486   1_556 S
C23    O35     1.252   .     D
C24    C25     1.490   .     S
C24    C26     1.491   .     S
C25    C27     1.487   .     S
C25    O33     1.257   .     D
C26    C28     1.488   .     S
C26    O31     1.253   .     D
C27    C29     1.484   .     S
C27    C42     1.405   .     D
C28    C29     1.486   .     S
C28    C36     1.401   .     D
C29    O32     1.260   .     D
C36    H37     1.114   .     S
C36    N64     1.360   .     S
C38    H39     1.111   .     S
C38    N65     1.365   1_554 S
C40    H41     1.113   .     S
C40    N67     1.369   .     S
C42    H43     1.110   .     S
C42    N69     1.361   .     S
H44    N64     1.062   .     S
H45    N65     1.059   .     S
C46    C47     1.437   .     D
C46    C48     1.425   1_655 S
C46    N65     1.410   .     S
C47    C49     1.416   .     S
C47    S80     1.849   .     S
C48    C46     1.425   1_455 S
C48    C50     1.401   .     D
C48    H51     1.105   .     S
C49    C52     1.417   1_655 D
C49    H53     1.107   .     S
C50    C52     1.424   .     S
C50    H54     1.105   .     S
C52    C49     1.417   1_455 D
C52    N69     1.408   .     S
C55    C56     1.425   .     D
C55    C57     1.420   .     S
C55    N64     1.404   .     S
C56    C58     1.393   .     S
C56    H59     1.104   .     S
C57    C60     1.416   .     D
C57    H61     1.109   .     S
C58    C62     1.426   .     D
C58    H63     1.107   .     S
C60    C62     1.441   .     S
C60    S70     1.866   .     S
C62    N67     1.403   .     S
N65    C38     1.365   1_556 S
H66    N67     1.062   .     S
H68    N69     1.060   .     S
S70    O71     1.470   1_556 D
S70    O72     1.476   .     D
S70    O73     1.638   .     S
O71    S70     1.470   1_554 D
O73    H74     0.978   .     S
S75    C2      1.862   1_556 S
S75    O76     1.468   .     D
S75    O77     1.474   1_556 D
S75    O78     1.648   1_566 S
O77    S75     1.474   1_554 D
O78    S75     1.648   1_544 S
O78    H79     0.978   .     S
S80    O81     1.468   .     D
S80    O82     1.480   1_556 D
S80    O83     1.652   .     S
O82    S80     1.480   1_554 D
O83    H84     0.979   1_556 S
H84    O83     0.979   1_554 S
C85    C86     1.420   1_565 D
C85    C90     1.422   1_665 S
C85    N96     1.404   .     S
C86    C85     1.420   1_545 D
C86    C87     1.417   .     S
C86    H156    1.105   1_545 S
C87    C88     1.437   1_655 D
C87    S151    1.854   .     S
C88    C87     1.437   1_455 D
C88    C89     1.432   .     S
C88    N95     1.406   .     S
C89    C90     1.399   .     D
C89    H91     1.104   .     S
C90    C85     1.422   1_445 S
C90    H92     1.109   .     S
H93    N96     1.064   .     S
H94    N95     1.064   .     S
N95    C97     1.361   .     S
N96    C99     1.361   .     S
C97    H98     1.114   .     S
C97    C107    1.400   .     D
C99    H100    1.114   .     S
C99    C101    1.401   .     D
C101   C102    1.494   .     S
C101   C103    1.487   .     S
C102   C104    1.487   .     S
C102   O113    1.252   .     D
C103   C105    1.488   .     S
C103   O117    1.260   .     D
C104   C106    1.482   .     S
C104   C121    1.406   .     D
C105   C106    1.492   .     S
C105   C123    1.398   .     D
C106   O118    1.257   .     D
C107   C108    1.485   .     S
C107   C109    1.484   .     S
C108   C110    1.489   .     S
C108   O116    1.250   .     D
C109   C111    1.490   .     S
C109   O114    1.256   .     D
C110   C112    1.481   .     S
C110   C125    1.402   .     D
C111   C112    1.489   .     S
C111   C119    1.399   .     D
C112   O115    1.265   .     D
C119   H120    1.113   .     S
C119   N145    1.367   .     S
C121   H122    1.110   1_655 S
C121   N146    1.360   .     S
H122   C121    1.110   1_455 S
C123   H124    1.114   .     S
C123   N148    1.363   .     S
C125   H126    1.111   .     S
C125   N150    1.359   .     S
H127   N145    1.062   .     S
H128   N146    1.060   .     S
C129   C130    1.419   1_655 S
C129   C131    1.424   .     D
C129   N146    1.408   .     S
C130   C129    1.419   1_455 S
C130   C132    1.417   .     D
C130   H158    1.107   .     S
C131   C133    1.402   .     S
C131   H134    1.105   .     S
C132   C135    1.435   .     S
C132   S164    1.862   .     S
C133   C135    1.421   1_655 D
C133   H136    1.106   .     S
C135   C133    1.421   1_455 D
C135   N150    1.410   .     S
C137   C138    1.424   .     D
C137   C139    1.440   .     S
C137   N145    1.404   .     S
C138   C140    1.393   .     S
C138   H141    1.107   .     S
C139   C142    1.415   .     D
C139   S159    1.860   .     S
C140   C143    1.425   .     D
C140   H144    1.105   .     S
C142   C143    1.419   .     S
C142   H157    1.109   .     S
C143   N148    1.404   .     S
H147   N148    1.061   .     S
H149   N150    1.051   .     S
S151   O152    1.468   .     D
S151   O153    1.474   .     D
S151   O154    1.652   .     S
O154   H155    0.978   .     S
H156   C86     1.105   1_565 S
S159   O160    1.467   .     D
S159   O161    1.478   .     D
S159   O162    1.648   .     S
O162   H163    0.978   .     S
S164   O165    1.466   .     D
S164   O166    1.482   .     D
S164   O167    1.643   .     S
O167   H168    0.995   .     S
