data_566
_audit_creation_date              2023-09-08
_audit_creation_method            'Materials Studio'
_symmetry_space_group_name_H-M    'P1'
_symmetry_Int_Tables_number       1
_symmetry_cell_setting            triclinic
loop_
_symmetry_equiv_pos_as_xyz
  x,y,z
_cell_length_a                    22.7020
_cell_length_b                    22.6423
_cell_length_c                    6.6170
_cell_angle_alpha                 85.4098
_cell_angle_beta                  95.4433
_cell_angle_gamma                 120.6010
loop_
_atom_site_label
_atom_site_type_symbol
_atom_site_fract_x
_atom_site_fract_y
_atom_site_fract_z
_atom_site_U_iso_or_equiv
_atom_site_adp_type
_atom_site_occupancy
C1     C     0.96280   0.94431   0.98560   0.00000  Uiso   1.00
C2     C     0.05953   0.05322   0.98975   0.00000  Uiso   1.00
C3     C     0.01915   0.08452   0.99282   0.00000  Uiso   1.00
C4     C     0.94722   0.04171   0.99372   0.00000  Uiso   1.00
C5     C     0.91849   0.97106   0.98983   0.00000  Uiso   1.00
H6     H     0.11613   0.08432   0.99018   0.00000  Uiso   1.00
H7     H     0.91435   0.06421   0.99766   0.00000  Uiso   1.00
H8     H     0.86261   0.93781   0.99131   0.00000  Uiso   1.00
H9     H     0.97473   0.85805   0.97987   0.00000  Uiso   1.00
H10    H     0.01085   0.17290   0.99566   0.00000  Uiso   1.00
N11    N     0.04566   0.15515   0.99569   0.00000  Uiso   1.00
N12    N     0.93891   0.87419   0.98070   0.00000  Uiso   1.00
C13    C     0.11175   0.20550   0.99592   0.00000  Uiso   1.00
H14    H     0.15222   0.19203   0.99608   0.00000  Uiso   1.00
C15    C     0.87215   0.82398   0.97613   0.00000  Uiso   1.00
H16    H     0.83275   0.83891   0.97550   0.00000  Uiso   1.00
C17    C     0.84974   0.75457   0.97301   0.00000  Uiso   1.00
C18    C     0.89766   0.72864   0.97505   0.00000  Uiso   1.00
C19    C     0.77466   0.70798   0.97074   0.00000  Uiso   1.00
C20    C     0.86865   0.65352   0.97749   0.00000  Uiso   1.00
C21    C     0.74798   0.63341   0.98217   0.00000  Uiso   1.00
C22    C     0.79416   0.60532   0.98475   0.00000  Uiso   1.00
C23    C     0.13071   0.27451   0.99603   0.00000  Uiso   1.00
C24    C     0.07969   0.29645   0.99347   0.00000  Uiso   1.00
C25    C     0.20469   0.32444   0.99623   0.00000  Uiso   1.00
C26    C     0.10481   0.37088   0.99376   0.00000  Uiso   1.00
C27    C     0.22755   0.39814   0.99658   0.00000  Uiso   1.00
C28    C     0.17837   0.42172   0.99955   0.00000  Uiso   1.00
O29    O     0.96088   0.76883   0.97476   0.00000  Uiso   1.00
O30    O     0.24620   0.30347   0.99597   0.00000  Uiso   1.00
O31    O     0.19930   0.48508   0.00877   0.00000  Uiso   1.00
O32    O     0.01672   0.25455   0.99057   0.00000  Uiso   1.00
O33    O     0.73602   0.73228   0.96149   0.00000  Uiso   1.00
O34    O     0.76967   0.54185   0.99479   0.00000  Uiso   1.00
C35    C     0.29693   0.44822   0.99515   0.00000  Uiso   1.00
H36    H     0.31201   0.50296   0.99242   0.00000  Uiso   1.00
C37    C     0.91499   0.63065   0.97441   0.00000  Uiso   1.00
H38    H     0.97004   0.66958   0.97080   0.00000  Uiso   1.00
C39    C     0.67858   0.58639   0.99638   0.00000  Uiso   1.00
H40    H     0.66164   0.53107   0.00807   0.00000  Uiso   1.00
C41    C     0.05523   0.39009   0.98859   0.00000  Uiso   1.00
H42    H     0.00073   0.34919   0.98633   0.00000  Uiso   1.00
H43    H     0.32734   0.37856   0.98922   0.00000  Uiso   1.00
H44    H     0.84160   0.53025   0.97449   0.00000  Uiso   1.00
C45    C     0.93769   0.53564   0.97317   0.00000  Uiso   1.00
C46    C     0.90923   0.46309   0.96958   0.00000  Uiso   1.00
C47    C     0.00992   0.57922   0.97649   0.00000  Uiso   1.00
C48    C     0.95389   0.43719   0.97389   0.00000  Uiso   1.00
C49    C     0.05326   0.55259   0.97893   0.00000  Uiso   1.00
H50    H     0.03314   0.63520   0.97744   0.00000  Uiso   1.00
C51    C     0.02559   0.48079   0.97929   0.00000  Uiso   1.00
H52    H     0.93194   0.38133   0.97252   0.00000  Uiso   1.00
H53    H     0.10909   0.58748   0.98215   0.00000  Uiso   1.00
C54    C     0.41670   0.47632   0.00020   0.00000  Uiso   1.00
C55    C     0.45912   0.44899   0.97422   0.00000  Uiso   1.00
C56    C     0.44701   0.54673   0.03613   0.00000  Uiso   1.00
C57    C     0.52983   0.49185   0.97577   0.00000  Uiso   1.00
H58    H     0.43625   0.39383   0.95046   0.00000  Uiso   1.00
C59    C     0.51834   0.59053   0.04117   0.00000  Uiso   1.00
H60    H     0.41453   0.56798   0.06336   0.00000  Uiso   1.00
C61    C     0.56072   0.56304   0.00627   0.00000  Uiso   1.00
H62    H     0.56134   0.46927   0.95136   0.00000  Uiso   1.00
N63    N     0.34593   0.43160   0.99452   0.00000  Uiso   1.00
N64    N     0.89510   0.56330   0.97420   0.00000  Uiso   1.00
H65    H     0.65320   0.65982   0.99437   0.00000  Uiso   1.00
N66    N     0.63152   0.60605   0.00048   0.00000  Uiso   1.00
H67    H     0.12374   0.49224   0.98541   0.00000  Uiso   1.00
N68    N     0.07104   0.45617   0.98454   0.00000  Uiso   1.00
S69    S     0.55113   0.67901   0.11277   0.00000  Uiso   1.00
O70    O     0.60226   0.69433   0.28218   0.00000  Uiso   1.00
O71    O     0.49197   0.68757   0.12919   0.00000  Uiso   1.00
O72    O     0.59426   0.72431   0.91743   0.00000  Uiso   1.00
H73    H     0.56943   0.72779   0.79331   0.00000  Uiso   1.00
S74    S     0.81679   0.39776   0.96390   0.00000  Uiso   1.00
O75    O     0.80914   0.33550   0.88681   0.00000  Uiso   1.00
O76    O     0.77685   0.42799   0.86678   0.00000  Uiso   1.00
O77    O     0.80457   0.38193   0.20453   0.00000  Uiso   1.00
H78    H     0.80639   0.41666   0.29111   0.00000  Uiso   1.00
C79    C     0.01065   0.88683   0.48234   0.00000  Uiso   1.00
C80    C     0.08204   0.93484   0.48202   0.00000  Uiso   1.00
C81    C     0.06516   0.02712   0.49025   0.00000  Uiso   1.00
C82    C     0.99318   0.98343   0.49008   0.00000  Uiso   1.00
C83    C     0.96573   0.91268   0.48649   0.00000  Uiso   1.00
H84    H     0.95924   0.00472   0.49341   0.00000  Uiso   1.00
H85    H     0.90985   0.87839   0.48657   0.00000  Uiso   1.00
H86    H     0.02589   0.80241   0.47591   0.00000  Uiso   1.00
H87    H     0.06244   0.11938   0.49599   0.00000  Uiso   1.00
N88    N     0.09422   0.09827   0.49405   0.00000  Uiso   1.00
N89    N     0.98871   0.81688   0.47815   0.00000  Uiso   1.00
C90    C     0.16231   0.14440   0.49506   0.00000  Uiso   1.00
H91    H     0.19693   0.12348   0.49305   0.00000  Uiso   1.00
C92    C     0.92369   0.76381   0.47958   0.00000  Uiso   1.00
H93    H     0.88155   0.77479   0.48238   0.00000  Uiso   1.00
C94    C     0.90676   0.69534   0.47820   0.00000  Uiso   1.00
C95    C     0.95934   0.67549   0.47687   0.00000  Uiso   1.00
C96    C     0.83319   0.64343   0.48228   0.00000  Uiso   1.00
C97    C     0.93636   0.60133   0.47380   0.00000  Uiso   1.00
C98    C     0.81237   0.57013   0.48236   0.00000  Uiso   1.00
C99    C     0.86305   0.54881   0.46992   0.00000  Uiso   1.00
C100   C     0.18915   0.21502   0.49810   0.00000  Uiso   1.00
C101   C     0.14426   0.24450   0.49887   0.00000  Uiso   1.00
C102   C     0.26466   0.25956   0.49846   0.00000  Uiso   1.00
C103   C     0.17599   0.31999   0.49933   0.00000  Uiso   1.00
C104   C     0.29476   0.33499   0.49783   0.00000  Uiso   1.00
C105   C     0.25106   0.36593   0.50043   0.00000  Uiso   1.00
O106   O     0.02170   0.71908   0.47864   0.00000  Uiso   1.00
O107   O     0.30151   0.23339   0.49931   0.00000  Uiso   1.00
O108   O     0.27757   0.42954   0.50268   0.00000  Uiso   1.00
O109   O     0.08045   0.20697   0.49881   0.00000  Uiso   1.00
O110   O     0.78999   0.66208   0.48537   0.00000  Uiso   1.00
O111   O     0.84367   0.48598   0.45589   0.00000  Uiso   1.00
C112   C     0.36514   0.37981   0.49484   0.00000  Uiso   1.00
H113   H     0.38640   0.43600   0.49337   0.00000  Uiso   1.00
C114   C     0.98750   0.58425   0.47590   0.00000  Uiso   1.00
H115   H     0.04155   0.62627   0.47757   0.00000  Uiso   1.00
C116   C     0.74362   0.51838   0.48903   0.00000  Uiso   1.00
H117   H     0.73070   0.46430   0.48890   0.00000  Uiso   1.00
C118   C     0.13113   0.34495   0.49732   0.00000  Uiso   1.00
H119   H     0.07572   0.30680   0.49391   0.00000  Uiso   1.00
H120   H     0.38847   0.30411   0.49696   0.00000  Uiso   1.00
H121   H     0.92153   0.48171   0.48011   0.00000  Uiso   1.00
C122   C     0.02007   0.49501   0.48176   0.00000  Uiso   1.00
C123   C     0.09169   0.53874   0.47918   0.00000  Uiso   1.00
C124   C     0.99305   0.42325   0.48694   0.00000  Uiso   1.00
C125   C     0.03672   0.39685   0.49210   0.00000  Uiso   1.00
H126   H     0.93734   0.38799   0.48770   0.00000  Uiso   1.00
C127   C     0.10888   0.44049   0.49192   0.00000  Uiso   1.00
H128   H     0.01360   0.34080   0.49773   0.00000  Uiso   1.00
C129   C     0.48159   0.39986   0.49574   0.00000  Uiso   1.00
C130   C     0.52365   0.37003   0.50910   0.00000  Uiso   1.00
C131   C     0.59446   0.41274   0.51099   0.00000  Uiso   1.00
H132   H     0.50083   0.31395   0.51893   0.00000  Uiso   1.00
C133   C     0.57601   0.50976   0.48777   0.00000  Uiso   1.00
C134   C     0.62216   0.48462   0.49858   0.00000  Uiso   1.00
H135   H     0.62751   0.39004   0.52311   0.00000  Uiso   1.00
N136   N     0.41055   0.35775   0.49431   0.00000  Uiso   1.00
N137   N     0.97383   0.51875   0.47831   0.00000  Uiso   1.00
H138   H     0.70888   0.58468   0.49395   0.00000  Uiso   1.00
N139   N     0.69252   0.53195   0.49586   0.00000  Uiso   1.00
H140   H     0.20517   0.44519   0.50388   0.00000  Uiso   1.00
N141   N     0.15168   0.41250   0.49896   0.00000  Uiso   1.00
H142   H     0.11867   0.91633   0.47822   0.00000  Uiso   1.00
H143   H     0.59596   0.56584   0.47919   0.00000  Uiso   1.00
H144   H     0.11326   0.59464   0.47238   0.00000  Uiso   1.00
N145   N     0.10812   0.00252   0.48613   0.00000  Uiso   1.00
N146   N     0.50801   0.46854   0.48618   0.00000  Uiso   1.00
N147   N     0.03163   0.98518   0.98652   0.00000  Uiso   1.00
C148   C     0.13663   0.51309   0.48290   0.00000  Uiso   1.00
S149   S     0.22916   0.58040   0.48122   0.00000  Uiso   1.00
O150   O     0.25997   0.58596   0.68761   0.00000  Uiso   1.00
O151   O     0.23084   0.64022   0.37188   0.00000  Uiso   1.00
O152   O     0.26199   0.54764   0.35390   0.00000  Uiso   1.00
H153   H     0.24765   0.53628   0.20883   0.00000  Uiso   1.00
loop_
_geom_bond_atom_site_label_1
_geom_bond_atom_site_label_2
_geom_bond_distance
_geom_bond_site_symmetry_2
_ccdc_geom_bond_type
C1     C5      1.417   .     D
C1     N12     1.394   .     S
C1     N147    1.351   1_655 S
C2     C3      1.418   .     S
C2     H6      1.107   .     S
C2     N147    1.336   1_545 D
C3     C4      1.413   1_455 D
C3     N11     1.394   .     S
C4     C3      1.413   1_655 D
C4     C5      1.388   1_545 S
C4     H7      1.100   .     S
C5     C4      1.388   1_565 S
C5     H8      1.098   .     S
H9     N12     1.048   .     S
H10    N11     1.053   .     S
N11    C13     1.345   .     S
N12    C15     1.354   .     S
C13    H14     1.106   .     S
C13    C23     1.394   .     D
C15    H16     1.105   .     S
C15    C17     1.385   .     D
C17    C18     1.475   .     S
C17    C19     1.478   .     S
C18    C20     1.478   .     S
C18    O29     1.248   .     D
C19    C21     1.473   .     S
C19    O33     1.246   .     D
C20    C22     1.477   .     S
C20    C37     1.391   .     D
C21    C22     1.476   .     S
C21    C39     1.389   .     D
C22    O34     1.248   .     D
C23    C24     1.473   .     S
C23    C25     1.472   .     S
C24    C26     1.479   .     S
C24    O32     1.249   .     D
C25    C27     1.474   .     S
C25    O30     1.253   .     D
C26    C28     1.467   .     S
C26    C41     1.395   .     D
C27    C28     1.464   .     S
C27    C35     1.396   .     D
C28    O31     1.266   1_556 D
O31    C28     1.266   1_554 D
C35    H36     1.104   .     S
C35    N63     1.344   .     S
C37    H38     1.105   .     S
C37    N64     1.352   .     S
C39    H40     1.106   1_556 S
C39    N66     1.353   1_556 S
H40    C39     1.106   1_554 S
C41    H42     1.105   .     S
C41    N68     1.348   .     S
H43    N63     1.053   .     S
H44    N64     1.054   .     S
C45    C46     1.428   .     D
C45    C47     1.419   1_655 S
C45    N64     1.395   .     S
C46    C48     1.404   .     S
C46    S74     1.851   .     S
C47    C45     1.419   1_455 S
C47    C49     1.390   .     D
C47    H50     1.098   .     S
C48    C51     1.409   1_655 D
C48    H52     1.099   .     S
C49    C51     1.413   .     S
C49    H53     1.100   .     S
C51    C48     1.409   1_455 D
C51    N68     1.397   .     S
C54    C55     1.412   1_554 D
C54    C56     1.409   .     S
C54    N63     1.395   1_554 S
C55    C54     1.412   1_556 D
C55    C57     1.390   .     S
C55    H58     1.100   .     S
C56    C59     1.402   .     D
C56    H60     1.099   .     S
C57    C61     1.416   1_556 D
C57    H62     1.098   .     S
C59    C61     1.429   .     S
C59    S69     1.833   .     S
C61    C57     1.416   1_554 D
C61    N66     1.395   .     S
N63    C54     1.395   1_556 S
H65    N66     1.054   1_556 S
N66    C39     1.353   1_554 S
N66    H65     1.054   1_554 S
H67    N68     1.050   .     S
S69    O70     1.459   .     D
S69    O71     1.466   .     D
S69    O72     1.639   1_554 S
O72    S69     1.639   1_556 S
O72    H73     0.972   .     S
S74    O75     1.458   .     D
S74    O76     1.468   .     D
S74    O77     1.622   1_556 S
O77    S74     1.622   1_554 S
O77    H78     0.991   .     S
C79    C80     1.419   .     S
C79    C83     1.414   1_455 D
C79    N89     1.400   1_455 S
C80    H142    1.108   .     S
C80    N145    1.334   1_565 D
C81    C82     1.415   1_445 D
C81    N88     1.397   .     S
C81    N145    1.350   .     S
C82    C81     1.415   1_665 D
C82    C83     1.394   .     S
C82    H84     1.100   1_565 S
C83    C79     1.414   1_655 D
C83    H85     1.100   .     S
H84    C82     1.100   1_545 S
H86    N89     1.051   1_455 S
H87    N88     1.050   .     S
N88    C90     1.355   .     S
N89    H86     1.051   1_655 S
N89    C79     1.400   1_655 S
N89    C92     1.348   .     S
C90    H91     1.106   .     S
C90    C100    1.393   .     D
C92    H93     1.106   .     S
C92    C94     1.395   .     D
C94    C95     1.475   .     S
C94    C96     1.475   .     S
C95    C97     1.484   .     S
C95    O106    1.247   1_655 D
C96    C98     1.476   .     S
C96    O110    1.252   .     D
C97    C99     1.472   .     S
C97    C114    1.397   .     D
C98    C99     1.467   .     S
C98    C116    1.398   .     D
C99    O111    1.266   .     D
C100   C101    1.476   .     S
C100   C102    1.482   .     S
C101   C103    1.479   .     S
C101   O109    1.252   .     D
C102   C104    1.482   .     S
C102   O107    1.247   .     D
C103   C105    1.477   .     S
C103   C118    1.392   .     D
C104   C105    1.479   .     S
C104   C112    1.391   .     D
C105   O108    1.247   .     D
O106   C95     1.247   1_455 D
C112   H113    1.107   .     S
C112   N136    1.356   .     S
C114   H115    1.105   1_655 S
C114   N137    1.351   .     S
H115   C114    1.105   1_455 S
C116   H117    1.104   .     S
C116   N139    1.348   .     S
C118   H119    1.105   .     S
C118   N141    1.354   .     S
H120   N136    1.051   .     S
H121   N137    1.049   .     S
C122   C123    1.410   .     S
C122   C124    1.413   1_455 D
C122   N137    1.400   1_455 S
C123   H144    1.099   .     S
C123   C148    1.405   .     D
C124   C122    1.413   1_655 D
C124   C125    1.391   1_655 S
C124   H126    1.100   .     S
C125   C124    1.391   1_455 S
C125   C127    1.419   .     D
C125   H128    1.098   .     S
C127   N141    1.401   .     S
C127   C148    1.428   .     S
C129   C130    1.417   .     D
C129   N136    1.394   .     S
C129   N146    1.350   .     S
C130   C131    1.391   .     S
C130   H132    1.099   .     S
C131   C134    1.413   .     D
C131   H135    1.099   .     S
C133   C134    1.419   .     S
C133   H143    1.108   .     S
C133   N146    1.336   .     D
C134   N139    1.400   .     S
N137   C122    1.400   1_655 S
H138   N139    1.054   .     S
H140   N141    1.051   .     S
N145   C80     1.334   1_545 D
N147   C2      1.336   1_565 D
N147   C1      1.351   1_455 S
C148   S149    1.865   .     S
S149   O150    1.458   .     D
S149   O151    1.468   .     D
S149   O152    1.612   .     S
O152   H153    0.994   .     S
