data_567
_audit_creation_date              2023-09-08
_audit_creation_method            'Materials Studio'
_symmetry_space_group_name_H-M    'P1'
_symmetry_Int_Tables_number       1
_symmetry_cell_setting            triclinic
loop_
_symmetry_equiv_pos_as_xyz
  x,y,z
_cell_length_a                    22.5866
_cell_length_b                    22.5866
_cell_length_c                    5.3421
_cell_angle_alpha                 90.0000
_cell_angle_beta                  90.0000
_cell_angle_gamma                 120.0000
loop_
_atom_site_label
_atom_site_type_symbol
_atom_site_fract_x
_atom_site_fract_y
_atom_site_fract_z
_atom_site_U_iso_or_equiv
_atom_site_adp_type
_atom_site_occupancy
H1     H     0.50353   0.66242   0.79067   0.00000  Uiso   1.00
H2     H     0.52025   0.35435   0.95150   0.00000  Uiso   1.00
H3     H     0.65873   0.49546   0.95388   0.00000  Uiso   1.00
H4     H     0.36207   0.52999   0.81285   0.00000  Uiso   1.00
H5     H     0.46679   0.40552   1.05090   0.00000  Uiso   1.00
H6     H     0.65823   0.59132   0.83692   0.00000  Uiso   1.00
H7     H     0.59238   0.65474   0.78394   0.00000  Uiso   1.00
C8     C     0.49229   0.56572   0.87502   0.00000  Uiso   1.00
C9     C     0.45710   0.49618   0.95967   0.00000  Uiso   1.00
C10    C     0.49411   0.46153   0.98555   0.00000  Uiso   1.00
C11    C     0.74086   0.37738   0.95553   0.00000  Uiso   1.00
C12    C     0.71149   0.30284   0.95424   0.00000  Uiso   1.00
C13    C     0.57852   0.39048   0.95127   0.00000  Uiso   1.00
C14    C     0.56478   0.49316   0.93374   0.00000  Uiso   1.00
C15    C     0.60001   0.56311   0.86735   0.00000  Uiso   1.00
C16    C     0.56396   0.59788   0.83879   0.00000  Uiso   1.00
C17    C     0.25944   0.63114   0.71436   0.00000  Uiso   1.00
C18    C     0.29751   0.70609   0.69446   0.00000  Uiso   1.00
C19    C     0.39711   0.58768   0.78003   0.00000  Uiso   1.00
N20    N     0.46350   0.60732   0.81264   0.00000  Uiso   1.00
N21    N     0.60235   0.45872   0.94680   0.00000  Uiso   1.00
S22    S     0.36626   0.44333   1.04388   0.00000  Uiso   1.00
O23    O     0.25963   0.52579   0.66502   0.00000  Uiso   1.00
O24    O     0.35867   0.38085   1.15437   0.00000  Uiso   1.00
O25    O     0.35188   0.48628   1.21984   0.00000  Uiso   1.00
O26    O     0.32793   0.43210   0.80560   0.00000  Uiso   1.00
Li27   Li    0.29710   0.46695   0.16930   0.00000  Uiso   1.00
H28    H     0.33758   0.84111   0.79067   0.00000  Uiso   1.00
H29    H     0.64565   0.16590   0.95150   0.00000  Uiso   1.00
H30    H     0.50454   0.16327   0.95388   0.00000  Uiso   1.00
H31    H     0.47001   0.83208   0.81285   0.00000  Uiso   1.00
H32    H     0.59448   0.06127   1.05090   0.00000  Uiso   1.00
H33    H     0.40868   0.06691   0.83692   0.00000  Uiso   1.00
H34    H     0.34526   0.93764   0.78394   0.00000  Uiso   1.00
C35    C     0.43428   0.92657   0.87502   0.00000  Uiso   1.00
C36    C     0.50382   0.96092   0.95967   0.00000  Uiso   1.00
C37    C     0.53847   0.03258   0.98555   0.00000  Uiso   1.00
C38    C     0.62262   0.36348   0.95553   0.00000  Uiso   1.00
C39    C     0.69716   0.40865   0.95424   0.00000  Uiso   1.00
C40    C     0.60952   0.18804   0.95127   0.00000  Uiso   1.00
C41    C     0.50684   0.07162   0.93374   0.00000  Uiso   1.00
C42    C     0.43689   0.03690   0.86735   0.00000  Uiso   1.00
C43    C     0.40212   0.96608   0.83879   0.00000  Uiso   1.00
C44    C     0.36886   0.62830   0.71436   0.00000  Uiso   1.00
C45    C     0.29391   0.59142   0.69446   0.00000  Uiso   1.00
C46    C     0.41232   0.80943   0.78003   0.00000  Uiso   1.00
N47    N     0.39268   0.85618   0.81264   0.00000  Uiso   1.00
N48    N     0.54128   0.14363   0.94680   0.00000  Uiso   1.00
S49    S     0.55667   0.92293   1.04388   0.00000  Uiso   1.00
O50    O     0.47421   0.73384   0.66502   0.00000  Uiso   1.00
O51    O     0.61915   0.97782   1.15437   0.00000  Uiso   1.00
O52    O     0.51372   0.86560   1.21984   0.00000  Uiso   1.00
O53    O     0.56790   0.89583   0.80560   0.00000  Uiso   1.00
Li54   Li    0.53305   0.83015   0.16930   0.00000  Uiso   1.00
H55    H     0.15889   0.49647   0.79067   0.00000  Uiso   1.00
H56    H     0.83410   0.47975   0.95150   0.00000  Uiso   1.00
H57    H     0.83673   0.34127   0.95388   0.00000  Uiso   1.00
H58    H     0.16792   0.63793   0.81285   0.00000  Uiso   1.00
H59    H     0.93873   0.53321   1.05090   0.00000  Uiso   1.00
H60    H     0.93309   0.34177   0.83692   0.00000  Uiso   1.00
H61    H     0.06236   0.40762   0.78394   0.00000  Uiso   1.00
C62    C     0.07343   0.50771   0.87502   0.00000  Uiso   1.00
C63    C     0.03908   0.54290   0.95967   0.00000  Uiso   1.00
C64    C     0.96742   0.50589   0.98555   0.00000  Uiso   1.00
C65    C     0.63652   0.25914   0.95553   0.00000  Uiso   1.00
C66    C     0.59135   0.28851   0.95424   0.00000  Uiso   1.00
C67    C     0.81196   0.42148   0.95127   0.00000  Uiso   1.00
C68    C     0.92838   0.43522   0.93374   0.00000  Uiso   1.00
C69    C     0.96310   0.39999   0.86735   0.00000  Uiso   1.00
C70    C     0.03392   0.43604   0.83879   0.00000  Uiso   1.00
C71    C     0.37170   0.74056   0.71436   0.00000  Uiso   1.00
C72    C     0.40858   0.70249   0.69446   0.00000  Uiso   1.00
C73    C     0.19057   0.60289   0.78003   0.00000  Uiso   1.00
N74    N     0.14382   0.53650   0.81264   0.00000  Uiso   1.00
N75    N     0.85637   0.39765   0.94680   0.00000  Uiso   1.00
S76    S     0.07707   0.63374   1.04388   0.00000  Uiso   1.00
O77    O     0.26616   0.74037   0.66502   0.00000  Uiso   1.00
O78    O     0.02218   0.64133   1.15437   0.00000  Uiso   1.00
O79    O     0.13440   0.64812   1.21984   0.00000  Uiso   1.00
O80    O     0.10417   0.67207   0.80560   0.00000  Uiso   1.00
Li81   Li    0.16985   0.70290   0.16930   0.00000  Uiso   1.00
loop_
_geom_bond_atom_site_label_1
_geom_bond_atom_site_label_2
_geom_bond_distance
_geom_bond_site_symmetry_2
_ccdc_geom_bond_type
H1     N20     1.120   .     S
H2     C13     1.151   .     S
H3     N21     1.120   .     S
H4     C19     1.151   .     S
H5     C10     1.150   .     S
H6     C15     1.151   .     S
H7     C16     1.150   .     S
C8     C9      1.433   .     D
C8     C16     1.418   .     S
C8     N20     1.424   .     S
C9     C10     1.409   .     S
C9     S22     1.841   .     S
C10    C14     1.412   .     D
C11    C12     1.469   .     D
C11    C39     1.473   .     S
C11    C67     1.404   .     S
C12    C65     1.473   .     D
C13    N21     1.355   .     D
C13    C38     1.404   .     S
C14    C15     1.413   .     S
C14    N21     1.411   .     S
C15    C16     1.394   .     D
C17    C18     1.470   .     S
C17    C45     1.456   .     S
C17    C73     1.399   .     D
C18    C71     1.456   .     S
C18    O77     1.294   .     D
C19    N20     1.346   .     S
C19    C44     1.399   .     D
S22    O24     1.459   .     D
S22    O25     1.498   .     D
S22    O26     1.488   .     S
O23    C45     1.294   .     D
H28    N47     1.120   .     S
H29    C40     1.151   .     S
H30    N48     1.120   .     S
H31    C46     1.151   .     S
H32    C37     1.150   .     S
H33    C42     1.151   .     S
H34    C43     1.150   .     S
C35    C36     1.433   .     D
C35    C43     1.418   .     S
C35    N47     1.424   .     S
C36    C37     1.409   1_565 S
C36    S49     1.841   .     S
C37    C36     1.409   1_545 S
C37    C41     1.412   .     D
C38    C39     1.469   .     S
C38    C66     1.473   .     D
C40    N48     1.355   .     D
C40    C65     1.404   .     S
C41    C42     1.413   .     S
C41    N48     1.411   .     S
C42    C43     1.394   1_545 D
C43    C42     1.394   1_565 D
C44    C45     1.470   .     S
C44    C72     1.456   .     S
C46    N47     1.346   .     S
C46    C71     1.399   .     D
S49    O51     1.459   .     D
S49    O52     1.498   .     D
S49    O53     1.488   .     S
O50    C72     1.294   .     D
H55    N74     1.120   .     S
H56    C67     1.151   .     S
H57    N75     1.120   .     S
H58    C73     1.151   .     S
H59    C64     1.150   .     S
H60    C69     1.151   .     S
H61    C70     1.150   .     S
C62    C63     1.433   .     D
C62    C70     1.418   .     S
C62    N74     1.424   .     S
C63    C64     1.409   1_455 S
C63    S76     1.841   .     S
C64    C63     1.409   1_655 S
C64    C68     1.412   .     D
C65    C66     1.469   .     S
C67    N75     1.355   .     D
C68    C69     1.413   .     S
C68    N75     1.411   .     S
C69    C70     1.394   1_655 D
C70    C69     1.394   1_455 D
C71    C72     1.470   .     S
C73    N74     1.346   .     S
S76    O78     1.459   .     D
S76    O79     1.498   .     D
S76    O80     1.488   .     S
