data_568
_audit_creation_date              2023-09-08
_audit_creation_method            'Materials Studio'
_symmetry_space_group_name_H-M    'P1'
_symmetry_Int_Tables_number       1
_symmetry_cell_setting            triclinic
loop_
_symmetry_equiv_pos_as_xyz
  x,y,z
_cell_length_a                    52.2000
_cell_length_b                    52.2000
_cell_length_c                    3.8000
_cell_angle_alpha                 90.0000
_cell_angle_beta                  90.0000
_cell_angle_gamma                 120.0000
loop_
_atom_site_label
_atom_site_type_symbol
_atom_site_fract_x
_atom_site_fract_y
_atom_site_fract_z
_atom_site_U_iso_or_equiv
_atom_site_adp_type
_atom_site_occupancy
C1     C     0.91955   0.94724  -0.01394   0.00000  Uiso   1.00
N2     N     0.69905   0.87622  -0.01391   0.00000  Uiso   1.00
C3     C     0.72863   0.88841   0.02061   0.00000  Uiso   1.00
C4     C     0.74200   0.91883   0.06597   0.00000  Uiso   1.00
C5     C     0.71977   0.92569   0.05331   0.00000  Uiso   1.00
C6     C     0.82388   0.93150  -0.21349   0.00000  Uiso   1.00
C7     C     0.79300   0.91588  -0.21168   0.00000  Uiso   1.00
C8     C     0.94570   0.00046  -0.03098   0.00000  Uiso   1.00
C9     C     0.97289   0.00079  -0.02418   0.00000  Uiso   1.00
C10    C     0.41390   0.72073   0.03347   0.00000  Uiso   1.00
N11    N     0.63444   0.79159   0.03275   0.00000  Uiso   1.00
C12    C     0.63945   0.76894   0.08877   0.00000  Uiso   1.00
C13    C     0.60489   0.77964   0.06862   0.00000  Uiso   1.00
C14    C     0.59155   0.74965   0.15129   0.00000  Uiso   1.00
C15    C     0.61379   0.74277   0.16147   0.00000  Uiso   1.00
C16    C     0.50943   0.73532  -0.15931   0.00000  Uiso   1.00
C17    C     0.54032   0.75089  -0.16343   0.00000  Uiso   1.00
O18    O     0.44211   0.74513   0.04853   0.00000  Uiso   1.00
C19    C     0.38758   0.66751   0.00825   0.00000  Uiso   1.00
C20    C     0.36041   0.66725   0.02005   0.00000  Uiso   1.00
C21    C     0.38765   0.72147   0.03575   0.00000  Uiso   1.00
C22    C     0.36045   0.69460   0.02411   0.00000  Uiso   1.00
C23    C     0.91949   0.97347  -0.03042   0.00000  Uiso   1.00
N24    N     0.69904   0.82386   0.02666   0.00000  Uiso   1.00
C25    C     0.69399   0.79595   0.00920   0.00000  Uiso   1.00
C26    C     0.72858   0.84119  -0.01499   0.00000  Uiso   1.00
C27    C     0.74185   0.82408  -0.06292   0.00000  Uiso   1.00
C28    C     0.71962   0.79500  -0.04449   0.00000  Uiso   1.00
C29    C     0.82426   0.89354   0.18900   0.00000  Uiso   1.00
C30    C     0.79337   0.87827   0.19712   0.00000  Uiso   1.00
O31    O     0.89131   0.96966  -0.04227   0.00000  Uiso   1.00
C32    C     0.94583   0.94658  -0.01434   0.00000  Uiso   1.00
C33    C     0.66674   0.89724  -0.03767   0.00000  Uiso   1.00
C34    C     0.66672   0.77056   0.05815   0.00000  Uiso   1.00
C35    C     0.83951   0.92024  -0.01474   0.00000  Uiso   1.00
B36    B     0.87376   0.93740  -0.01955   0.00000  Uiso   1.00
C37    C     0.58950   0.79531   0.01666   0.00000  Uiso   1.00
C38    C     0.49401   0.74759   0.02058   0.00000  Uiso   1.00
C39    C     0.55629   0.77871   0.01841   0.00000  Uiso   1.00
B40    B     0.45971   0.73047   0.02151   0.00000  Uiso   1.00
C41    C     0.41387   0.69447   0.01038   0.00000  Uiso   1.00
C42    C     0.63943   0.87159  -0.06308   0.00000  Uiso   1.00
C43    C     0.60486   0.82636  -0.03735   0.00000  Uiso   1.00
C44    C     0.59148   0.84300  -0.11765   0.00000  Uiso   1.00
C45    C     0.61372   0.87210  -0.13138   0.00000  Uiso   1.00
C46    C     0.50951   0.77532   0.19948   0.00000  Uiso   1.00
C47    C     0.54041   0.79061   0.20144   0.00000  Uiso   1.00
C48    C     0.69406   0.89911   0.00000   0.00000  Uiso   1.00
O49    O     0.89142   0.92280   0.00000   0.00000  Uiso   1.00
N50    N     0.63444   0.84395   0.00000   0.00000  Uiso   1.00
O51    O     0.44205   0.69821   0.00000   0.00000  Uiso   1.00
C52    C     0.74400   0.87249   0.00000   0.00000  Uiso   1.00
C53    C     0.77723   0.88910   0.00000   0.00000  Uiso   1.00
C54    C     0.97284   0.97363  -0.02418   0.00000  Uiso   1.00
H55    H     0.76463   0.93486   0.12759   0.00000  Uiso   1.00
H56    H     0.72226   0.94738   0.08952   0.00000  Uiso   1.00
H57    H     0.56879   0.73373   0.20539   0.00000  Uiso   1.00
H58    H     0.61130   0.72136   0.22024   0.00000  Uiso   1.00
H59    H     0.39046   0.64862  -0.01335   0.00000  Uiso   1.00
H60    H     0.39042   0.74321   0.05782   0.00000  Uiso   1.00
H61    H     0.83644   0.88549   0.34026   0.00000  Uiso   1.00
H62    H     0.78224   0.85945   0.36985   0.00000  Uiso   1.00
H63    H     0.66674   0.74984   0.07392   0.00000  Uiso   1.00
H64    H     0.49757   0.78429   0.33860   0.00000  Uiso   1.00
H65    H     0.55180   0.81072   0.35034   0.00000  Uiso   1.00
H66    H     0.94279   0.01937  -0.04636   0.00000  Uiso   1.00
H67    H     0.83572   0.95153  -0.36911   0.00000  Uiso   1.00
H68    H     0.78141   0.92338  -0.37887   0.00000  Uiso   1.00
H69    H     0.49742   0.71438  -0.29760   0.00000  Uiso   1.00
H70    H     0.55162   0.74210  -0.31294   0.00000  Uiso   1.00
H71    H     0.76447   0.83077  -0.12558   0.00000  Uiso   1.00
H72    H     0.72187   0.77559  -0.07213   0.00000  Uiso   1.00
H73    H     0.94294   0.92480   0.00200   0.00000  Uiso   1.00
H74    H     0.66678   0.91799  -0.05294   0.00000  Uiso   1.00
H75    H     0.56861   0.83600  -0.16594   0.00000  Uiso   1.00
H76    H     0.61141   0.89118  -0.18621   0.00000  Uiso   1.00
H77    H     0.17069   0.85490   0.13131   0.00000  Uiso   1.00
H78    H     0.16051   0.80980   0.12511   0.00000  Uiso   1.00
C79    C     0.05276   0.97231  -0.01394   0.00000  Uiso   1.00
N80    N     0.12378   0.82283  -0.01391   0.00000  Uiso   1.00
C81    C     0.11159   0.84022   0.02061   0.00000  Uiso   1.00
C82    C     0.08117   0.82317   0.06597   0.00000  Uiso   1.00
C83    C     0.07431   0.79408   0.05331   0.00000  Uiso   1.00
C84    C     0.06850   0.89238  -0.21349   0.00000  Uiso   1.00
C85    C     0.08412   0.87712  -0.21168   0.00000  Uiso   1.00
C86    C     0.99954   0.94524  -0.03098   0.00000  Uiso   1.00
C87    C     0.99921   0.97210  -0.02418   0.00000  Uiso   1.00
C88    C     0.27927   0.69317   0.03347   0.00000  Uiso   1.00
N89    N     0.20841   0.84285   0.03275   0.00000  Uiso   1.00
C90    C     0.23106   0.87051   0.08877   0.00000  Uiso   1.00
C91    C     0.22036   0.82525   0.06862   0.00000  Uiso   1.00
C92    C     0.25035   0.84190   0.15129   0.00000  Uiso   1.00
C93    C     0.25723   0.87102   0.16147   0.00000  Uiso   1.00
C94    C     0.26468   0.77411  -0.15931   0.00000  Uiso   1.00
C95    C     0.24911   0.78943  -0.16343   0.00000  Uiso   1.00
O96    O     0.25487   0.69698   0.04853   0.00000  Uiso   1.00
C97    C     0.33249   0.72007   0.00825   0.00000  Uiso   1.00
C98    C     0.33275   0.69316   0.02005   0.00000  Uiso   1.00
C99    C     0.27853   0.66618   0.03575   0.00000  Uiso   1.00
C100   C     0.30540   0.66585   0.02411   0.00000  Uiso   1.00
C101   C     0.02653   0.94602  -0.03042   0.00000  Uiso   1.00
N102   N     0.17614   0.87518   0.02666   0.00000  Uiso   1.00
C103   C     0.20405   0.89804   0.00920   0.00000  Uiso   1.00
C104   C     0.15881   0.88739  -0.01499   0.00000  Uiso   1.00
C105   C     0.17592   0.91777  -0.06292   0.00000  Uiso   1.00
C106   C     0.20500   0.92462  -0.04449   0.00000  Uiso   1.00
C107   C     0.10646   0.93072   0.18900   0.00000  Uiso   1.00
C108   C     0.12173   0.91510   0.19712   0.00000  Uiso   1.00
O109   O     0.03034   0.92165  -0.04227   0.00000  Uiso   1.00
C110   C     0.05342   0.99925  -0.01434   0.00000  Uiso   1.00
C111   C     0.10276   0.76950  -0.03767   0.00000  Uiso   1.00
C112   C     0.22944   0.89616   0.05815   0.00000  Uiso   1.00
C113   C     0.07976   0.91927  -0.01474   0.00000  Uiso   1.00
B114   B     0.06260   0.93636  -0.01955   0.00000  Uiso   1.00
C115   C     0.20469   0.79419   0.01666   0.00000  Uiso   1.00
C116   C     0.25241   0.74642   0.02058   0.00000  Uiso   1.00
C117   C     0.22129   0.77758   0.01841   0.00000  Uiso   1.00
B118   B     0.26953   0.72924   0.02151   0.00000  Uiso   1.00
C119   C     0.30553   0.71940   0.01038   0.00000  Uiso   1.00
C120   C     0.12841   0.76784  -0.06308   0.00000  Uiso   1.00
C121   C     0.17364   0.77850  -0.03735   0.00000  Uiso   1.00
C122   C     0.15700   0.74848  -0.11765   0.00000  Uiso   1.00
C123   C     0.12790   0.74162  -0.13138   0.00000  Uiso   1.00
C124   C     0.22468   0.73419   0.19948   0.00000  Uiso   1.00
C125   C     0.20939   0.74980   0.20144   0.00000  Uiso   1.00
C126   C     0.10089   0.79495   0.00000   0.00000  Uiso   1.00
O127   O     0.07720   0.96862   0.00000   0.00000  Uiso   1.00
N128   N     0.15605   0.79049   0.00000   0.00000  Uiso   1.00
O129   O     0.30179   0.74384   0.00000   0.00000  Uiso   1.00
C130   C     0.12751   0.87151   0.00000   0.00000  Uiso   1.00
C131   C     0.11090   0.88813   0.00000   0.00000  Uiso   1.00
C132   C     0.02637   0.99921  -0.02418   0.00000  Uiso   1.00
H133   H     0.06514   0.82976   0.12759   0.00000  Uiso   1.00
H134   H     0.05262   0.77488   0.08952   0.00000  Uiso   1.00
H135   H     0.26627   0.83506   0.20539   0.00000  Uiso   1.00
H136   H     0.27864   0.88994   0.22024   0.00000  Uiso   1.00
H137   H     0.35138   0.74183  -0.01335   0.00000  Uiso   1.00
H138   H     0.25679   0.64721   0.05782   0.00000  Uiso   1.00
H139   H     0.11451   0.95096   0.34026   0.00000  Uiso   1.00
H140   H     0.14055   0.92279   0.36985   0.00000  Uiso   1.00
H141   H     0.25016   0.91690   0.07392   0.00000  Uiso   1.00
H142   H     0.21571   0.71328   0.33860   0.00000  Uiso   1.00
H143   H     0.18928   0.74108   0.35034   0.00000  Uiso   1.00
H144   H     0.98063   0.92343  -0.04636   0.00000  Uiso   1.00
H145   H     0.04847   0.88419  -0.36911   0.00000  Uiso   1.00
H146   H     0.07662   0.85803  -0.37887   0.00000  Uiso   1.00
H147   H     0.28562   0.78304  -0.29760   0.00000  Uiso   1.00
H148   H     0.25790   0.80952  -0.31294   0.00000  Uiso   1.00
H149   H     0.16923   0.93370  -0.12558   0.00000  Uiso   1.00
H150   H     0.22441   0.94628  -0.07213   0.00000  Uiso   1.00
H151   H     0.07521   0.01814   0.00200   0.00000  Uiso   1.00
H152   H     0.08201   0.74878  -0.05294   0.00000  Uiso   1.00
H153   H     0.16400   0.73261  -0.16594   0.00000  Uiso   1.00
H154   H     0.10881   0.72023  -0.18621   0.00000  Uiso   1.00
H155   H     0.14510   0.31579   0.13131   0.00000  Uiso   1.00
H156   H     0.19020   0.35071   0.12511   0.00000  Uiso   1.00
C157   C     0.02769   0.08045  -0.01394   0.00000  Uiso   1.00
N158   N     0.17717   0.30095  -0.01391   0.00000  Uiso   1.00
C159   C     0.15978   0.27137   0.02061   0.00000  Uiso   1.00
C160   C     0.17683   0.25800   0.06597   0.00000  Uiso   1.00
C161   C     0.20592   0.28023   0.05331   0.00000  Uiso   1.00
C162   C     0.10762   0.17612  -0.21349   0.00000  Uiso   1.00
C163   C     0.12288   0.20700  -0.21168   0.00000  Uiso   1.00
C164   C     0.05476   0.05430  -0.03098   0.00000  Uiso   1.00
C165   C     0.02790   0.02711  -0.02418   0.00000  Uiso   1.00
C166   C     0.30683   0.58610   0.03347   0.00000  Uiso   1.00
N167   N     0.15715   0.36556   0.03275   0.00000  Uiso   1.00
C168   C     0.12949   0.36055   0.08877   0.00000  Uiso   1.00
C169   C     0.17475   0.39511   0.06862   0.00000  Uiso   1.00
C170   C     0.15810   0.40845   0.15129   0.00000  Uiso   1.00
C171   C     0.12898   0.38621   0.16147   0.00000  Uiso   1.00
C172   C     0.22589   0.49057  -0.15931   0.00000  Uiso   1.00
C173   C     0.21057   0.45968  -0.16343   0.00000  Uiso   1.00
O174   O     0.30302   0.55789   0.04853   0.00000  Uiso   1.00
C175   C     0.27993   0.61242   0.00825   0.00000  Uiso   1.00
C176   C     0.30684   0.63959   0.02005   0.00000  Uiso   1.00
C177   C     0.33382   0.61235   0.03575   0.00000  Uiso   1.00
C178   C     0.33415   0.63955   0.02411   0.00000  Uiso   1.00
C179   C     0.05398   0.08051  -0.03042   0.00000  Uiso   1.00
N180   N     0.12482   0.30096   0.02666   0.00000  Uiso   1.00
C181   C     0.10196   0.30601   0.00920   0.00000  Uiso   1.00
C182   C     0.11261   0.27142  -0.01499   0.00000  Uiso   1.00
C183   C     0.08223   0.25815  -0.06292   0.00000  Uiso   1.00
C184   C     0.07538   0.28038  -0.04449   0.00000  Uiso   1.00
C185   C     0.06928   0.17574   0.18900   0.00000  Uiso   1.00
C186   C     0.08490   0.20663   0.19712   0.00000  Uiso   1.00
O187   O     0.07835   0.10869  -0.04227   0.00000  Uiso   1.00
C188   C     0.00075   0.05417  -0.01434   0.00000  Uiso   1.00
C189   C     0.23050   0.33326  -0.03767   0.00000  Uiso   1.00
C190   C     0.10384   0.33328   0.05815   0.00000  Uiso   1.00
C191   C     0.08073   0.16049  -0.01474   0.00000  Uiso   1.00
B192   B     0.06364   0.12624  -0.01955   0.00000  Uiso   1.00
C193   C     0.20581   0.41050   0.01666   0.00000  Uiso   1.00
C194   C     0.25358   0.50599   0.02058   0.00000  Uiso   1.00
C195   C     0.22242   0.44371   0.01841   0.00000  Uiso   1.00
B196   B     0.27076   0.54029   0.02151   0.00000  Uiso   1.00
C197   C     0.28060   0.58613   0.01038   0.00000  Uiso   1.00
C198   C     0.23216   0.36057  -0.06308   0.00000  Uiso   1.00
C199   C     0.22150   0.39514  -0.03735   0.00000  Uiso   1.00
C200   C     0.25152   0.40852  -0.11765   0.00000  Uiso   1.00
C201   C     0.25838   0.38628  -0.13138   0.00000  Uiso   1.00
C202   C     0.26581   0.49049   0.19948   0.00000  Uiso   1.00
C203   C     0.25020   0.45959   0.20144   0.00000  Uiso   1.00
C204   C     0.20505   0.30594   0.00000   0.00000  Uiso   1.00
O205   O     0.03138   0.10858   0.00000   0.00000  Uiso   1.00
N206   N     0.20951   0.36556   0.00000   0.00000  Uiso   1.00
O207   O     0.25616   0.55795   0.00000   0.00000  Uiso   1.00
C208   C     0.12849   0.25600   0.00000   0.00000  Uiso   1.00
C209   C     0.11187   0.22277   0.00000   0.00000  Uiso   1.00
C210   C     0.00079   0.02716  -0.02418   0.00000  Uiso   1.00
H211   H     0.17024   0.23538   0.12759   0.00000  Uiso   1.00
H212   H     0.22512   0.27774   0.08952   0.00000  Uiso   1.00
H213   H     0.16494   0.43121   0.20539   0.00000  Uiso   1.00
H214   H     0.11006   0.38870   0.22024   0.00000  Uiso   1.00
H215   H     0.25817   0.60955  -0.01335   0.00000  Uiso   1.00
H216   H     0.35279   0.60958   0.05782   0.00000  Uiso   1.00
H217   H     0.04905   0.16356   0.34026   0.00000  Uiso   1.00
H218   H     0.07721   0.21776   0.36985   0.00000  Uiso   1.00
H219   H     0.08310   0.33326   0.07392   0.00000  Uiso   1.00
H220   H     0.28672   0.50243   0.33860   0.00000  Uiso   1.00
H221   H     0.25892   0.44820   0.35034   0.00000  Uiso   1.00
H222   H     0.07658   0.05721  -0.04636   0.00000  Uiso   1.00
H223   H     0.11581   0.16428  -0.36911   0.00000  Uiso   1.00
H224   H     0.14197   0.21859  -0.37887   0.00000  Uiso   1.00
H225   H     0.21696   0.50258  -0.29760   0.00000  Uiso   1.00
H226   H     0.19048   0.44838  -0.31294   0.00000  Uiso   1.00
H227   H     0.06630   0.23553  -0.12558   0.00000  Uiso   1.00
H228   H     0.05372   0.27814  -0.07213   0.00000  Uiso   1.00
H229   H     0.98186   0.05706   0.00200   0.00000  Uiso   1.00
H230   H     0.25122   0.33322  -0.05294   0.00000  Uiso   1.00
H231   H     0.26739   0.43139  -0.16594   0.00000  Uiso   1.00
H232   H     0.27977   0.38859  -0.18621   0.00000  Uiso   1.00
H233   H     0.68421   0.82931   0.13131   0.00000  Uiso   1.00
H234   H     0.64929   0.83949   0.12511   0.00000  Uiso   1.00
loop_
_geom_bond_atom_site_label_1
_geom_bond_atom_site_label_2
_geom_bond_distance
_geom_bond_site_symmetry_2
_ccdc_geom_bond_type
C1     C32     1.389   .     D
C1     C23     1.372   .     S
C1     O49     1.383   .     S
N2     C48     1.345   .     S
N2     C3      1.350   .     D
C3     C52     1.417   .     S
C3     C4      1.389   .     S
C4     H55     1.078   .     S
C4     C5      1.376   .     D
C5     H56     1.082   .     S
C5     C48     1.380   .     S
C6     C7      1.396   .     S
C6     C35     1.436   .     D
C6     H67     1.086   .     S
C7     H68     1.077   .     S
C7     C53     1.459   .     D
C8     H66     1.073   .     S
C8     C9      1.411   .     S
C8     C23     1.389   1_545 D
C9     C54     1.416   1_545 S
C9     C210    1.418   1_655 D
C10    C21     1.390   .     S
C10    O18     1.385   .     S
C10    C41     1.373   .     D
N11    C12     1.349   .     D
N11    C13     1.351   .     S
C12    C34     1.388   .     S
C12    C15     1.381   .     S
C13    C14     1.394   .     S
C13    C37     1.418   .     D
C14    H57     1.076   .     S
C14    C15     1.377   .     D
C15    H58     1.082   .     S
C16    H69     1.086   .     S
C16    C17     1.397   .     S
C16    C38     1.429   .     D
C17    H70     1.073   .     S
C17    C39     1.439   .     D
O18    B40     1.464   .     S
C19    C41     1.390   .     S
C19    C20     1.412   .     D
C19    H59     1.072   .     S
C20    C22     1.427   .     S
C20    C178    1.410   .     S
C21    H60     1.073   .     S
C21    C22     1.412   .     D
C22    C98     1.410   .     S
C23    O31     1.383   .     S
C23    C8      1.389   1_565 D
N24    H233    1.029   .     S
N24    C25     1.346   .     S
N24    C26     1.351   .     S
C25    C34     1.390   .     D
C25    C28     1.379   .     S
C26    C27     1.389   .     S
C26    C52     1.416   .     D
C27    H71     1.077   .     S
C27    C28     1.376   .     D
C28    H72     1.082   .     S
C29    H61     1.086   .     S
C29    C30     1.397   .     D
C29    C35     1.437   .     S
C30    C53     1.438   .     S
C30    H62     1.078   .     S
O31    B36     1.463   .     S
C32    C54     1.411   .     S
C32    H73     1.071   .     S
C33    C42     1.388   .     S
C33    H74     1.084   .     S
C33    C48     1.387   .     D
C34    H63     1.084   .     S
C35    B36     1.548   .     S
B36    O49     1.462   .     S
C37    C39     1.501   .     S
C37    C43     1.419   .     S
C38    C46     1.429   .     S
C38    B40     1.551   .     S
C39    C47     1.439   .     S
B40    O51     1.463   .     S
C41    O51     1.384   .     S
C42    C45     1.380   .     D
C42    N50     1.353   .     S
C43    C44     1.394   .     D
C43    N50     1.353   .     S
C44    H75     1.075   .     S
C44    C45     1.376   .     S
C45    H76     1.082   .     S
C46    H64     1.086   .     S
C46    C47     1.397   .     D
C47    H65     1.073   .     S
N50    H234    1.030   .     S
C52    C53     1.502   .     S
C54    C87     1.418   .     D
C54    C9      1.416   1_565 S
H77    N102    1.029   .     S
H78    N128    1.030   .     S
C79    C101    1.372   .     S
C79    C110    1.389   .     D
C79    O127    1.383   .     S
N80    C81     1.350   .     D
N80    C126    1.345   .     S
C81    C82     1.389   .     S
C81    C130    1.417   .     S
C82    H133    1.078   .     S
C82    C83     1.376   .     D
C83    C126    1.380   .     S
C83    H134    1.082   .     S
C84    H145    1.086   .     S
C84    C85     1.396   .     S
C84    C113    1.436   .     D
C85    H146    1.077   .     S
C85    C131    1.459   .     D
C86    C87     1.411   .     S
C86    H144    1.072   .     S
C86    C101    1.389   1_655 D
C87    C132    1.416   1_655 S
C88    C99     1.390   .     D
C88    O96     1.385   .     S
C88    C119    1.373   .     S
N89    C91     1.351   .     S
N89    C90     1.349   .     D
C90    C112    1.388   .     S
C90    C93     1.381   .     S
C91    C92     1.394   .     S
C91    C115    1.418   .     D
C92    H135    1.076   .     S
C92    C93     1.377   .     D
C93    H136    1.082   .     S
C94    H147    1.086   .     S
C94    C95     1.397   .     S
C94    C116    1.429   .     D
C95    H148    1.073   .     S
C95    C117    1.439   .     D
O96    B118    1.464   .     S
C97    C119    1.390   .     D
C97    C98     1.412   .     S
C97    H137    1.072   .     S
C98    C100    1.427   .     D
C99    H138    1.073   .     S
C99    C100    1.412   .     S
C100   C176    1.410   .     S
C101   O109    1.383   .     S
C101   C86     1.389   1_455 D
N102   C103    1.346   .     S
N102   C104    1.351   .     S
C103   C112    1.390   .     D
C103   C106    1.379   .     S
C104   C105    1.389   .     S
C104   C130    1.416   .     D
C105   H149    1.077   .     S
C105   C106    1.376   .     D
C106   H150    1.082   .     S
C107   C108    1.397   .     D
C107   H139    1.086   .     S
C107   C113    1.437   .     S
C108   H140    1.078   .     S
C108   C131    1.438   .     S
O109   B114    1.463   .     S
C110   C132    1.411   .     S
C110   H151    1.072   1_565 S
C111   H152    1.084   .     S
C111   C120    1.388   .     S
C111   C126    1.387   .     D
C112   H141    1.084   .     S
C113   B114    1.548   .     S
B114   O127    1.462   .     S
C115   C117    1.501   .     S
C115   C121    1.419   .     S
C116   C124    1.429   .     S
C116   B118    1.551   .     S
C117   C125    1.439   .     S
B118   O129    1.463   .     S
C119   O129    1.384   .     S
C120   C123    1.380   .     D
C120   N128    1.353   .     S
C121   C122    1.394   .     D
C121   N128    1.353   .     S
C122   C123    1.376   .     S
C122   H153    1.075   .     S
C123   H154    1.082   .     S
C124   H142    1.086   .     S
C124   C125    1.397   .     D
C125   H143    1.073   .     S
C130   C131    1.502   .     S
C132   C87     1.416   1_455 S
C132   C165    1.418   1_565 D
H151   C110    1.072   1_545 S
H155   N180    1.029   .     S
H156   N206    1.030   .     S
C157   C179    1.372   .     S
C157   C188    1.389   .     D
C157   O205    1.383   .     S
N158   C204    1.345   .     S
N158   C159    1.350   .     D
C159   C208    1.417   .     S
C159   C160    1.389   .     S
C160   H211    1.078   .     S
C160   C161    1.376   .     D
C161   C204    1.380   .     S
C161   H212    1.082   .     S
C162   C191    1.436   .     D
C162   H223    1.086   .     S
C162   C163    1.396   .     S
C163   H224    1.077   .     S
C163   C209    1.459   .     D
C164   H222    1.073   .     S
C164   C179    1.389   .     D
C164   C165    1.411   .     S
C165   C210    1.416   .     S
C165   C132    1.418   1_545 D
C166   O174    1.385   .     S
C166   C197    1.373   .     D
C166   C177    1.390   .     S
N167   C168    1.349   .     D
N167   C169    1.351   .     S
C168   C171    1.381   .     S
C168   C190    1.388   .     S
C169   C170    1.394   .     S
C169   C193    1.418   .     D
C170   H213    1.076   .     S
C170   C171    1.377   .     D
C171   H214    1.082   .     S
C172   H225    1.086   .     S
C172   C173    1.397   .     S
C172   C194    1.429   .     D
C173   H226    1.073   .     S
C173   C195    1.439   .     D
O174   B196    1.464   .     S
C175   C176    1.412   .     D
C175   C197    1.390   .     S
C175   H215    1.072   .     S
C176   C178    1.427   .     S
C177   H216    1.073   .     S
C177   C178    1.412   .     D
C179   O187    1.383   .     S
N180   C181    1.346   .     S
N180   C182    1.351   .     S
C181   C190    1.390   .     D
C181   C184    1.379   .     S
C182   C183    1.389   .     S
C182   C208    1.416   .     D
C183   H227    1.077   .     S
C183   C184    1.376   .     D
C184   H228    1.082   .     S
C185   H217    1.086   .     S
C185   C186    1.397   .     D
C185   C191    1.437   .     S
C186   H218    1.078   .     S
C186   C209    1.438   .     S
O187   B192    1.463   .     S
C188   C210    1.411   .     S
C188   H229    1.071   1_455 S
C189   H230    1.084   .     S
C189   C198    1.388   .     S
C189   C204    1.387   .     D
C190   H219    1.084   .     S
C191   B192    1.548   .     S
B192   O205    1.462   .     S
C193   C195    1.501   .     S
C193   C199    1.419   .     S
C194   C202    1.429   .     S
C194   B196    1.551   .     S
C195   C203    1.439   .     S
B196   O207    1.463   .     S
C197   O207    1.384   .     S
C198   C201    1.380   .     D
C198   N206    1.353   .     S
C199   C200    1.394   .     D
C199   N206    1.353   .     S
C200   H231    1.075   .     S
C200   C201    1.376   .     S
C201   H232    1.082   .     S
C202   H220    1.086   .     S
C202   C203    1.397   .     D
C203   H221    1.073   .     S
C208   C209    1.502   .     S
C210   C9      1.418   1_455 D
H229   C188    1.071   1_655 S
