data_569
_audit_creation_date              2023-09-08
_audit_creation_method            'Materials Studio'
_symmetry_space_group_name_H-M    'P1'
_symmetry_Int_Tables_number       1
_symmetry_cell_setting            triclinic
loop_
_symmetry_equiv_pos_as_xyz
  x,y,z
_cell_length_a                    52.2000
_cell_length_b                    52.2000
_cell_length_c                    3.8000
_cell_angle_alpha                 90.0000
_cell_angle_beta                  90.0000
_cell_angle_gamma                 120.0000
loop_
_atom_site_label
_atom_site_type_symbol
_atom_site_fract_x
_atom_site_fract_y
_atom_site_fract_z
_atom_site_U_iso_or_equiv
_atom_site_adp_type
_atom_site_occupancy
C1     C     0.91955   0.94724  -0.01394   0.00000  Uiso   1.00
N2     N     0.69905   0.87622  -0.01391   0.00000  Uiso   1.00
C3     C     0.72863   0.88841   0.02061   0.00000  Uiso   1.00
C4     C     0.74200   0.91883   0.06597   0.00000  Uiso   1.00
C5     C     0.71977   0.92569   0.05331   0.00000  Uiso   1.00
C6     C     0.82388   0.93150  -0.21349   0.00000  Uiso   1.00
C7     C     0.79300   0.91588  -0.21168   0.00000  Uiso   1.00
C8     C     0.94570   0.00046  -0.03098   0.00000  Uiso   1.00
C9     C     0.97289   0.00079  -0.02418   0.00000  Uiso   1.00
C10    C     0.41390   0.72073   0.03347   0.00000  Uiso   1.00
N11    N     0.63444   0.79159   0.03275   0.00000  Uiso   1.00
C12    C     0.63945   0.76894   0.08877   0.00000  Uiso   1.00
C13    C     0.60489   0.77964   0.06862   0.00000  Uiso   1.00
C14    C     0.59155   0.74965   0.15129   0.00000  Uiso   1.00
C15    C     0.61379   0.74277   0.16147   0.00000  Uiso   1.00
C16    C     0.50943   0.73532  -0.15931   0.00000  Uiso   1.00
C17    C     0.54032   0.75089  -0.16343   0.00000  Uiso   1.00
O18    O     0.44211   0.74513   0.04853   0.00000  Uiso   1.00
C19    C     0.38758   0.66751   0.00825   0.00000  Uiso   1.00
C20    C     0.36041   0.66725   0.02005   0.00000  Uiso   1.00
C21    C     0.41387   0.69447   0.01038   0.00000  Uiso   1.00
C22    C     0.63943   0.87159  -0.06308   0.00000  Uiso   1.00
C23    C     0.60486   0.82636  -0.03735   0.00000  Uiso   1.00
C24    C     0.59148   0.84300  -0.11765   0.00000  Uiso   1.00
C25    C     0.61372   0.87210  -0.13138   0.00000  Uiso   1.00
C26    C     0.50951   0.77532   0.19948   0.00000  Uiso   1.00
C27    C     0.54041   0.79061   0.20144   0.00000  Uiso   1.00
C28    C     0.38765   0.72147   0.03575   0.00000  Uiso   1.00
C29    C     0.36045   0.69460   0.02411   0.00000  Uiso   1.00
C30    C     0.91949   0.97347  -0.03042   0.00000  Uiso   1.00
N31    N     0.69904   0.82386   0.02666   0.00000  Uiso   1.00
C32    C     0.69399   0.79595   0.00920   0.00000  Uiso   1.00
C33    C     0.72858   0.84119  -0.01499   0.00000  Uiso   1.00
C34    C     0.74185   0.82408  -0.06292   0.00000  Uiso   1.00
C35    C     0.71962   0.79500  -0.04449   0.00000  Uiso   1.00
C36    C     0.82426   0.89354   0.18900   0.00000  Uiso   1.00
C37    C     0.79337   0.87827   0.19712   0.00000  Uiso   1.00
O38    O     0.89131   0.96966  -0.04227   0.00000  Uiso   1.00
C39    C     0.94583   0.94658  -0.01434   0.00000  Uiso   1.00
C40    C     0.66674   0.89724  -0.03767   0.00000  Uiso   1.00
C41    C     0.66672   0.77056   0.05815   0.00000  Uiso   1.00
C42    C     0.83951   0.92024  -0.01474   0.00000  Uiso   1.00
B43    B     0.87376   0.93740  -0.01955   0.00000  Uiso   1.00
C44    C     0.58950   0.79531   0.01666   0.00000  Uiso   1.00
C45    C     0.49401   0.74759   0.02058   0.00000  Uiso   1.00
C46    C     0.55629   0.77871   0.01841   0.00000  Uiso   1.00
B47    B     0.45971   0.73047   0.02151   0.00000  Uiso   1.00
C48    C     0.69406   0.89911   0.00000   0.00000  Uiso   1.00
O49    O     0.89142   0.92280   0.00000   0.00000  Uiso   1.00
N50    N     0.63444   0.84395   0.00000   0.00000  Uiso   1.00
O51    O     0.44205   0.69821   0.00000   0.00000  Uiso   1.00
C52    C     0.74400   0.87249   0.00000   0.00000  Uiso   1.00
C53    C     0.77723   0.88910   0.00000   0.00000  Uiso   1.00
C54    C     0.97284   0.97363  -0.02418   0.00000  Uiso   1.00
H55    H     0.38777   0.64578  -0.00286   0.00000  Uiso   1.00
H56    H     0.38825   0.74359   0.04691   0.00000  Uiso   1.00
H57    H     0.21501   0.71195   0.33961   0.00000  Uiso   1.00
H58    H     0.18748   0.74054   0.34805   0.00000  Uiso   1.00
H59    H     0.28695   0.78372  -0.29859   0.00000  Uiso   1.00
H60    H     0.25844   0.81132  -0.31081   0.00000  Uiso   1.00
H61    H     0.76697   0.93263   0.10369   0.00000  Uiso   1.00
H62    H     0.72523   0.94961   0.08511   0.00000  Uiso   1.00
H63    H     0.83631   0.95286  -0.37121   0.00000  Uiso   1.00
H64    H     0.78021   0.92406  -0.37519   0.00000  Uiso   1.00
H65    H     0.94544   0.02216  -0.03684   0.00000  Uiso   1.00
H66    H     0.56663   0.73619   0.19496   0.00000  Uiso   1.00
H67    H     0.61472   0.72174   0.21326   0.00000  Uiso   1.00
H68    H     0.56651   0.83155  -0.15727   0.00000  Uiso   1.00
H69    H     0.60822   0.89023  -0.19040   0.00000  Uiso   1.00
H70    H     0.76675   0.83520  -0.10655   0.00000  Uiso   1.00
H71    H     0.71874   0.77278  -0.06359   0.00000  Uiso   1.00
H72    H     0.83704   0.88479   0.34269   0.00000  Uiso   1.00
H73    H     0.78095   0.85721   0.36010   0.00000  Uiso   1.00
H74    H     0.94529   0.92449  -0.00681   0.00000  Uiso   1.00
H75    H     0.66821   0.91977  -0.04719   0.00000  Uiso   1.00
H76    H     0.66824   0.74955   0.07271   0.00000  Uiso   1.00
C77    C     0.05276   0.97231  -0.01394   0.00000  Uiso   1.00
N78    N     0.12378   0.82283  -0.01391   0.00000  Uiso   1.00
C79    C     0.11159   0.84022   0.02061   0.00000  Uiso   1.00
C80    C     0.08117   0.82317   0.06597   0.00000  Uiso   1.00
C81    C     0.07431   0.79408   0.05331   0.00000  Uiso   1.00
C82    C     0.06850   0.89238  -0.21349   0.00000  Uiso   1.00
C83    C     0.08412   0.87712  -0.21168   0.00000  Uiso   1.00
C84    C     0.99954   0.94524  -0.03098   0.00000  Uiso   1.00
C85    C     0.99921   0.97210  -0.02418   0.00000  Uiso   1.00
C86    C     0.27927   0.69317   0.03347   0.00000  Uiso   1.00
N87    N     0.20841   0.84285   0.03275   0.00000  Uiso   1.00
C88    C     0.23106   0.87051   0.08877   0.00000  Uiso   1.00
C89    C     0.22036   0.82525   0.06862   0.00000  Uiso   1.00
C90    C     0.25035   0.84190   0.15129   0.00000  Uiso   1.00
C91    C     0.25723   0.87102   0.16147   0.00000  Uiso   1.00
C92    C     0.26468   0.77411  -0.15931   0.00000  Uiso   1.00
C93    C     0.24911   0.78943  -0.16343   0.00000  Uiso   1.00
O94    O     0.25487   0.69698   0.04853   0.00000  Uiso   1.00
C95    C     0.33249   0.72007   0.00825   0.00000  Uiso   1.00
C96    C     0.33275   0.69316   0.02005   0.00000  Uiso   1.00
C97    C     0.30553   0.71940   0.01038   0.00000  Uiso   1.00
C98    C     0.12841   0.76784  -0.06308   0.00000  Uiso   1.00
C99    C     0.17364   0.77850  -0.03735   0.00000  Uiso   1.00
C100   C     0.15700   0.74848  -0.11765   0.00000  Uiso   1.00
C101   C     0.12790   0.74162  -0.13138   0.00000  Uiso   1.00
C102   C     0.22468   0.73419   0.19948   0.00000  Uiso   1.00
C103   C     0.20939   0.74980   0.20144   0.00000  Uiso   1.00
C104   C     0.27853   0.66618   0.03575   0.00000  Uiso   1.00
C105   C     0.30540   0.66585   0.02411   0.00000  Uiso   1.00
C106   C     0.02653   0.94602  -0.03042   0.00000  Uiso   1.00
N107   N     0.17614   0.87518   0.02666   0.00000  Uiso   1.00
C108   C     0.20405   0.89804   0.00920   0.00000  Uiso   1.00
C109   C     0.15881   0.88739  -0.01499   0.00000  Uiso   1.00
C110   C     0.17592   0.91777  -0.06292   0.00000  Uiso   1.00
C111   C     0.20500   0.92462  -0.04449   0.00000  Uiso   1.00
C112   C     0.10646   0.93072   0.18900   0.00000  Uiso   1.00
C113   C     0.12173   0.91510   0.19712   0.00000  Uiso   1.00
O114   O     0.03034   0.92165  -0.04227   0.00000  Uiso   1.00
C115   C     0.05342   0.99925  -0.01434   0.00000  Uiso   1.00
C116   C     0.10276   0.76950  -0.03767   0.00000  Uiso   1.00
C117   C     0.22944   0.89616   0.05815   0.00000  Uiso   1.00
C118   C     0.07976   0.91927  -0.01474   0.00000  Uiso   1.00
B119   B     0.06260   0.93636  -0.01955   0.00000  Uiso   1.00
C120   C     0.20469   0.79419   0.01666   0.00000  Uiso   1.00
C121   C     0.25241   0.74642   0.02058   0.00000  Uiso   1.00
C122   C     0.22129   0.77758   0.01841   0.00000  Uiso   1.00
B123   B     0.26953   0.72924   0.02151   0.00000  Uiso   1.00
C124   C     0.10089   0.79495   0.00000   0.00000  Uiso   1.00
O125   O     0.07720   0.96862   0.00000   0.00000  Uiso   1.00
N126   N     0.15605   0.79049   0.00000   0.00000  Uiso   1.00
O127   O     0.30179   0.74384   0.00000   0.00000  Uiso   1.00
C128   C     0.12751   0.87151   0.00000   0.00000  Uiso   1.00
C129   C     0.11090   0.88813   0.00000   0.00000  Uiso   1.00
C130   C     0.02637   0.99921  -0.02418   0.00000  Uiso   1.00
H131   H     0.35422   0.74199  -0.00286   0.00000  Uiso   1.00
H132   H     0.25641   0.64466   0.04691   0.00000  Uiso   1.00
H133   H     0.28804   0.50305   0.33961   0.00000  Uiso   1.00
H134   H     0.25946   0.44694   0.34805   0.00000  Uiso   1.00
H135   H     0.21628   0.50322  -0.29859   0.00000  Uiso   1.00
H136   H     0.18868   0.44712  -0.31081   0.00000  Uiso   1.00
H137   H     0.06737   0.83434   0.10369   0.00000  Uiso   1.00
H138   H     0.05038   0.77562   0.08511   0.00000  Uiso   1.00
H139   H     0.04714   0.88345  -0.37121   0.00000  Uiso   1.00
H140   H     0.07593   0.85614  -0.37519   0.00000  Uiso   1.00
H141   H     0.97784   0.92328  -0.03684   0.00000  Uiso   1.00
H142   H     0.26381   0.83043   0.19496   0.00000  Uiso   1.00
H143   H     0.27826   0.89298   0.21326   0.00000  Uiso   1.00
H144   H     0.16845   0.73496  -0.15727   0.00000  Uiso   1.00
H145   H     0.10977   0.71799  -0.19040   0.00000  Uiso   1.00
H146   H     0.16480   0.93155  -0.10655   0.00000  Uiso   1.00
H147   H     0.22722   0.94596  -0.06359   0.00000  Uiso   1.00
H148   H     0.11521   0.95225   0.34269   0.00000  Uiso   1.00
H149   H     0.14279   0.92374   0.36010   0.00000  Uiso   1.00
H150   H     0.07551   0.02081  -0.00681   0.00000  Uiso   1.00
H151   H     0.08023   0.74845  -0.04719   0.00000  Uiso   1.00
H152   H     0.25045   0.91869   0.07271   0.00000  Uiso   1.00
C153   C     0.02769   0.08045  -0.01394   0.00000  Uiso   1.00
N154   N     0.17717   0.30095  -0.01391   0.00000  Uiso   1.00
C155   C     0.15978   0.27137   0.02061   0.00000  Uiso   1.00
C156   C     0.17683   0.25800   0.06597   0.00000  Uiso   1.00
C157   C     0.20592   0.28023   0.05331   0.00000  Uiso   1.00
C158   C     0.10762   0.17612  -0.21349   0.00000  Uiso   1.00
C159   C     0.12288   0.20700  -0.21168   0.00000  Uiso   1.00
C160   C     0.05476   0.05430  -0.03098   0.00000  Uiso   1.00
C161   C     0.02790   0.02711  -0.02418   0.00000  Uiso   1.00
C162   C     0.30683   0.58610   0.03347   0.00000  Uiso   1.00
N163   N     0.15715   0.36556   0.03275   0.00000  Uiso   1.00
C164   C     0.12949   0.36055   0.08877   0.00000  Uiso   1.00
C165   C     0.17475   0.39511   0.06862   0.00000  Uiso   1.00
C166   C     0.15810   0.40845   0.15129   0.00000  Uiso   1.00
C167   C     0.12898   0.38621   0.16147   0.00000  Uiso   1.00
C168   C     0.22589   0.49057  -0.15931   0.00000  Uiso   1.00
C169   C     0.21057   0.45968  -0.16343   0.00000  Uiso   1.00
O170   O     0.30302   0.55789   0.04853   0.00000  Uiso   1.00
C171   C     0.27993   0.61242   0.00825   0.00000  Uiso   1.00
C172   C     0.30684   0.63959   0.02005   0.00000  Uiso   1.00
C173   C     0.28060   0.58613   0.01038   0.00000  Uiso   1.00
C174   C     0.23216   0.36057  -0.06308   0.00000  Uiso   1.00
C175   C     0.22150   0.39514  -0.03735   0.00000  Uiso   1.00
C176   C     0.25152   0.40852  -0.11765   0.00000  Uiso   1.00
C177   C     0.25838   0.38628  -0.13138   0.00000  Uiso   1.00
C178   C     0.26581   0.49049   0.19948   0.00000  Uiso   1.00
C179   C     0.25020   0.45959   0.20144   0.00000  Uiso   1.00
C180   C     0.33382   0.61235   0.03575   0.00000  Uiso   1.00
C181   C     0.33415   0.63955   0.02411   0.00000  Uiso   1.00
C182   C     0.05398   0.08051  -0.03042   0.00000  Uiso   1.00
N183   N     0.12482   0.30096   0.02666   0.00000  Uiso   1.00
C184   C     0.10196   0.30601   0.00920   0.00000  Uiso   1.00
C185   C     0.11261   0.27142  -0.01499   0.00000  Uiso   1.00
C186   C     0.08223   0.25815  -0.06292   0.00000  Uiso   1.00
C187   C     0.07538   0.28038  -0.04449   0.00000  Uiso   1.00
C188   C     0.06928   0.17574   0.18900   0.00000  Uiso   1.00
C189   C     0.08490   0.20663   0.19712   0.00000  Uiso   1.00
O190   O     0.07835   0.10869  -0.04227   0.00000  Uiso   1.00
C191   C     0.00075   0.05417  -0.01434   0.00000  Uiso   1.00
C192   C     0.23050   0.33326  -0.03767   0.00000  Uiso   1.00
C193   C     0.10384   0.33328   0.05815   0.00000  Uiso   1.00
C194   C     0.08073   0.16049  -0.01474   0.00000  Uiso   1.00
B195   B     0.06364   0.12624  -0.01955   0.00000  Uiso   1.00
C196   C     0.20581   0.41050   0.01666   0.00000  Uiso   1.00
C197   C     0.25358   0.50599   0.02058   0.00000  Uiso   1.00
C198   C     0.22242   0.44371   0.01841   0.00000  Uiso   1.00
B199   B     0.27076   0.54029   0.02151   0.00000  Uiso   1.00
C200   C     0.20505   0.30594   0.00000   0.00000  Uiso   1.00
O201   O     0.03138   0.10858   0.00000   0.00000  Uiso   1.00
N202   N     0.20951   0.36556   0.00000   0.00000  Uiso   1.00
O203   O     0.25616   0.55795   0.00000   0.00000  Uiso   1.00
C204   C     0.12849   0.25600   0.00000   0.00000  Uiso   1.00
C205   C     0.11187   0.22277   0.00000   0.00000  Uiso   1.00
C206   C     0.00079   0.02716  -0.02418   0.00000  Uiso   1.00
H207   H     0.25801   0.61223  -0.00286   0.00000  Uiso   1.00
H208   H     0.35534   0.61175   0.04691   0.00000  Uiso   1.00
H209   H     0.49695   0.78499   0.33961   0.00000  Uiso   1.00
H210   H     0.55306   0.81252   0.34805   0.00000  Uiso   1.00
H211   H     0.49677   0.71305  -0.29859   0.00000  Uiso   1.00
H212   H     0.55288   0.74156  -0.31081   0.00000  Uiso   1.00
H213   H     0.16566   0.23303   0.10369   0.00000  Uiso   1.00
H214   H     0.22438   0.27477   0.08511   0.00000  Uiso   1.00
H215   H     0.11655   0.16369  -0.37121   0.00000  Uiso   1.00
H216   H     0.14386   0.21979  -0.37519   0.00000  Uiso   1.00
H217   H     0.07672   0.05456  -0.03684   0.00000  Uiso   1.00
H218   H     0.16957   0.43337   0.19496   0.00000  Uiso   1.00
H219   H     0.10702   0.38528   0.21326   0.00000  Uiso   1.00
H220   H     0.26504   0.43349  -0.15727   0.00000  Uiso   1.00
H221   H     0.28201   0.39178  -0.19040   0.00000  Uiso   1.00
H222   H     0.06845   0.23325  -0.10655   0.00000  Uiso   1.00
H223   H     0.05404   0.28126  -0.06359   0.00000  Uiso   1.00
H224   H     0.04775   0.16296   0.34269   0.00000  Uiso   1.00
H225   H     0.07626   0.21905   0.36010   0.00000  Uiso   1.00
H226   H     0.97919   0.05471  -0.00681   0.00000  Uiso   1.00
H227   H     0.25155   0.33179  -0.04719   0.00000  Uiso   1.00
H228   H     0.08131   0.33176   0.07271   0.00000  Uiso   1.00
H229   H     0.17205   0.85238   0.06788   0.00000  Uiso   1.00
H230   H     0.16587   0.81424   0.06850   0.00000  Uiso   1.00
H231   H     0.68489   0.85192   0.95496   0.00000  Uiso   1.00
H232   H     0.65319   0.81398  -0.02728   0.00000  Uiso   1.00
H233   H     0.16079   0.34681  -0.02728   0.00000  Uiso   1.00
H234   H     0.16703   0.31511   0.95496   0.00000  Uiso   1.00
loop_
_geom_bond_atom_site_label_1
_geom_bond_atom_site_label_2
_geom_bond_distance
_geom_bond_site_symmetry_2
_ccdc_geom_bond_type
C1     C30     1.372   .     S
C1     C39     1.389   .     D
C1     O49     1.383   .     S
N2     C3      1.350   .     S
N2     C48     1.345   .     S
N2     H231    1.110   1_554 S
C3     C4      1.389   .     D
C3     C52     1.417   .     S
C4     C5      1.376   .     S
C4     H61     1.140   .     S
C5     C48     1.380   .     D
C5     H62     1.140   .     S
C6     C7      1.396   .     D
C6     C42     1.436   .     S
C6     H63     1.140   .     S
C7     C53     1.459   .     S
C7     H64     1.140   .     S
C8     C9      1.411   .     S
C8     C30     1.389   1_545 D
C8     H65     1.140   .     S
C9     C54     1.416   1_545 D
C9     C206    1.418   1_655 S
C10    O18     1.385   .     S
C10    C21     1.373   .     S
C10    C28     1.390   .     D
N11    C12     1.349   .     S
N11    C13     1.351   .     S
N11    H232    1.110   .     S
C12    C15     1.381   .     S
C12    C41     1.388   .     D
C13    C14     1.394   .     S
C13    C44     1.418   .     D
C14    C15     1.377   .     D
C14    H66     1.140   .     S
C15    H67     1.140   .     S
C16    C17     1.397   .     D
C16    C45     1.429   .     S
C16    H211    1.140   .     S
C17    C46     1.439   .     S
C17    H212    1.140   .     S
O18    B47     1.464   .     S
C19    C20     1.412   .     S
C19    C21     1.390   .     D
C19    H55     1.140   .     S
C20    C29     1.427   .     S
C20    C181    1.410   .     D
C21    O51     1.384   .     S
C22    C25     1.380   .     S
C22    C40     1.388   .     D
C22    N50     1.353   .     S
C23    C24     1.394   .     S
C23    C44     1.419   .     S
C23    N50     1.353   .     D
C24    C25     1.376   .     D
C24    H68     1.140   .     S
C25    H69     1.140   .     S
C26    C27     1.397   .     S
C26    C45     1.429   .     D
C26    H209    1.140   .     S
C27    C46     1.439   .     D
C27    H210    1.140   .     S
C28    C29     1.412   .     S
C28    H56     1.140   .     S
C29    C96     1.410   .     D
C30    C8      1.389   1_565 D
C30    O38     1.383   .     S
N31    C32     1.346   .     D
N31    C33     1.351   .     S
C32    C35     1.379   .     S
C32    C41     1.390   .     S
C33    C34     1.389   .     S
C33    C52     1.416   .     D
C34    C35     1.376   .     D
C34    H70     1.140   .     S
C35    H71     1.140   .     S
C36    C37     1.397   .     S
C36    C42     1.437   .     D
C36    H72     1.140   .     S
C37    C53     1.438   .     D
C37    H73     1.140   .     S
O38    B43     1.463   .     S
C39    C54     1.411   .     S
C39    H74     1.140   .     S
C40    C48     1.387   .     S
C40    H75     1.140   .     S
C41    H76     1.140   .     S
C42    B43     1.548   .     S
B43    O49     1.462   .     S
C44    C46     1.501   .     S
C45    B47     1.551   .     S
B47    O51     1.463   .     S
C52    C53     1.502   .     S
C54    C9      1.416   1_565 D
C54    C85     1.418   .     S
H57    C102    1.140   .     S
H58    C103    1.140   .     S
H59    C92     1.140   .     S
H60    C93     1.140   .     S
C77    C106    1.372   .     D
C77    C115    1.389   .     S
C77    O125    1.383   .     S
N78    C79     1.350   .     D
N78    C124    1.345   .     S
C79    C80     1.389   .     S
C79    C128    1.417   .     S
C80    C81     1.376   .     D
C80    H137    1.140   .     S
C81    C124    1.380   .     S
C81    H138    1.140   .     S
C82    C83     1.396   .     D
C82    C118    1.436   .     S
C82    H139    1.140   .     S
C83    C129    1.459   .     S
C83    H140    1.140   .     S
C84    C85     1.411   .     D
C84    C106    1.389   1_655 S
C84    H141    1.140   .     S
C85    C130    1.416   1_655 S
C86    O94     1.385   .     S
C86    C97     1.373   .     S
C86    C104    1.390   .     D
N87    C88     1.349   .     D
N87    C89     1.351   .     S
C88    C91     1.381   .     S
C88    C117    1.388   .     S
C89    C90     1.394   .     S
C89    C120    1.418   .     D
C90    C91     1.377   .     D
C90    H142    1.140   .     S
C91    H143    1.140   .     S
C92    C93     1.397   .     D
C92    C121    1.429   .     S
C93    C122    1.439   .     S
O94    B123    1.464   .     S
C95    C96     1.412   .     S
C95    C97     1.390   .     D
C95    H131    1.140   .     S
C96    C105    1.427   .     S
C97    O127    1.384   .     S
C98    C101    1.380   .     D
C98    C116    1.388   .     S
C98    N126    1.353   .     S
C99    C100    1.394   .     D
C99    C120    1.419   .     S
C99    N126    1.353   .     S
C100   C101    1.376   .     S
C100   H144    1.140   .     S
C101   H145    1.140   .     S
C102   C103    1.397   .     S
C102   C121    1.429   .     D
C103   C122    1.439   .     D
C104   C105    1.412   .     S
C104   H132    1.140   .     S
C105   C172    1.410   .     D
C106   C84     1.389   1_455 S
C106   O114    1.383   .     S
N107   C108    1.346   .     S
N107   C109    1.351   .     S
N107   H229    1.110   .     S
C108   C111    1.379   .     S
C108   C117    1.390   .     D
C109   C110    1.389   .     S
C109   C128    1.416   .     D
C110   C111    1.376   .     D
C110   H146    1.140   .     S
C111   H147    1.140   .     S
C112   C113    1.397   .     S
C112   C118    1.437   .     D
C112   H148    1.140   .     S
C113   C129    1.438   .     D
C113   H149    1.140   .     S
O114   B119    1.463   .     S
C115   C130    1.411   .     D
C115   H150    1.140   1_565 S
C116   C124    1.387   .     D
C116   H151    1.140   .     S
C117   H152    1.140   .     S
C118   B119    1.548   .     S
B119   O125    1.462   .     S
C120   C122    1.501   .     S
C121   B123    1.551   .     S
B123   O127    1.463   .     S
N126   H230    1.110   .     S
C128   C129    1.502   .     S
C130   C85     1.416   1_455 S
C130   C161    1.418   1_565 S
H133   C178    1.140   .     S
H134   C179    1.140   .     S
H135   C168    1.140   .     S
H136   C169    1.140   .     S
H150   C115    1.140   1_545 S
C153   C182    1.372   .     S
C153   C191    1.389   .     D
C153   O201    1.383   .     S
N154   C155    1.350   .     S
N154   C200    1.345   .     S
N154   H234    1.110   1_554 S
C155   C156    1.389   .     D
C155   C204    1.417   .     S
C156   C157    1.376   .     S
C156   H213    1.140   .     S
C157   C200    1.380   .     D
C157   H214    1.140   .     S
C158   C159    1.396   .     D
C158   C194    1.436   .     S
C158   H215    1.140   .     S
C159   C205    1.459   .     S
C159   H216    1.140   .     S
C160   C161    1.411   .     S
C160   C182    1.389   .     D
C160   H217    1.140   .     S
C161   C130    1.418   1_545 S
C161   C206    1.416   .     D
C162   O170    1.385   .     S
C162   C173    1.373   .     S
C162   C180    1.390   .     D
N163   C164    1.349   .     S
N163   C165    1.351   .     S
N163   H233    1.110   .     S
C164   C167    1.381   .     S
C164   C193    1.388   .     D
C165   C166    1.394   .     S
C165   C196    1.418   .     D
C166   C167    1.377   .     D
C166   H218    1.140   .     S
C167   H219    1.140   .     S
C168   C169    1.397   .     D
C168   C197    1.429   .     S
C169   C198    1.439   .     S
O170   B199    1.464   .     S
C171   C172    1.412   .     S
C171   C173    1.390   .     D
C171   H207    1.140   .     S
C172   C181    1.427   .     S
C173   O203    1.384   .     S
C174   C177    1.380   .     S
C174   C192    1.388   .     D
C174   N202    1.353   .     S
C175   C176    1.394   .     S
C175   C196    1.419   .     S
C175   N202    1.353   .     D
C176   C177    1.376   .     D
C176   H220    1.140   .     S
C177   H221    1.140   .     S
C178   C179    1.397   .     S
C178   C197    1.429   .     D
C179   C198    1.439   .     D
C180   C181    1.412   .     S
C180   H208    1.140   .     S
C182   O190    1.383   .     S
N183   C184    1.346   .     D
N183   C185    1.351   .     S
C184   C187    1.379   .     S
C184   C193    1.390   .     S
C185   C186    1.389   .     S
C185   C204    1.416   .     D
C186   C187    1.376   .     D
C186   H222    1.140   .     S
C187   H223    1.140   .     S
C188   C189    1.397   .     S
C188   C194    1.437   .     D
C188   H224    1.140   .     S
C189   C205    1.438   .     D
C189   H225    1.140   .     S
O190   B195    1.463   .     S
C191   C206    1.411   .     S
C191   H226    1.140   1_455 S
C192   C200    1.387   .     S
C192   H227    1.140   .     S
C193   H228    1.140   .     S
C194   B195    1.548   .     S
B195   O201    1.462   .     S
C196   C198    1.501   .     S
C197   B199    1.551   .     S
B199   O203    1.463   .     S
C204   C205    1.502   .     S
C206   C9      1.418   1_455 S
H226   C191    1.140   1_655 S
H231   N2      1.110   1_556 S
H234   N154    1.110   1_556 S
