data_57
_audit_creation_date              2023-09-08
_audit_creation_method            'Materials Studio'
_symmetry_space_group_name_H-M    'P1'
_symmetry_Int_Tables_number       1
_symmetry_cell_setting            triclinic
loop_
_symmetry_equiv_pos_as_xyz
  x,y,z
_cell_length_a                    44.3543
_cell_length_b                    44.3543
_cell_length_c                    3.4112
_cell_angle_alpha                 90.0000
_cell_angle_beta                  90.0000
_cell_angle_gamma                 120.0000
loop_
_atom_site_label
_atom_site_type_symbol
_atom_site_fract_x
_atom_site_fract_y
_atom_site_fract_z
_atom_site_U_iso_or_equiv
_atom_site_adp_type
_atom_site_occupancy
H1     H     0.56586   0.57955   0.25186   0.00000  Uiso   1.00
H2     H     0.42045   0.98630   0.25186   0.00000  Uiso   1.00
H3     H     0.01370   0.43414   0.25186   0.00000  Uiso   1.00
H4     H     0.43414   0.42045   0.25186   0.00000  Uiso   1.00
H5     H     0.57955   0.01370   0.25186   0.00000  Uiso   1.00
H6     H     0.98630   0.56586   0.25186   0.00000  Uiso   1.00
H7     H     0.43414   0.42045   0.74814   0.00000  Uiso   1.00
H8     H     0.57955   0.01370   0.74814   0.00000  Uiso   1.00
H9     H     0.98630   0.56586   0.74814   0.00000  Uiso   1.00
H10    H     0.56586   0.57955   0.74814   0.00000  Uiso   1.00
H11    H     0.42045   0.98630   0.74814   0.00000  Uiso   1.00
H12    H     0.01370   0.43414   0.74814   0.00000  Uiso   1.00
O13    O     0.41036   0.53805   0.50000   0.00000  Uiso   1.00
C14    C     0.43714   0.53102   0.50000   0.00000  Uiso   1.00
C15    C     0.46748   0.49977   0.50000   0.00000  Uiso   1.00
C16    C     0.43549   0.49994   0.50000   0.00000  Uiso   1.00
C17    C     0.35139   0.59439   0.50000   0.00000  Uiso   1.00
C18    C     0.36922   0.57578   0.50000   0.00000  Uiso   1.00
H19    H     0.32312   0.58119   0.50000   0.00000  Uiso   1.00
H20    H     0.35531   0.54741   0.50000   0.00000  Uiso   1.00
H21    H     0.41104   0.47542   0.50000   0.00000  Uiso   1.00
O22    O     0.53805   0.41036   0.50000   0.00000  Uiso   1.00
C23    C     0.53102   0.43714   0.50000   0.00000  Uiso   1.00
C24    C     0.49977   0.46748   0.50000   0.00000  Uiso   1.00
C25    C     0.49994   0.43549   0.50000   0.00000  Uiso   1.00
C26    C     0.59439   0.35139   0.50000   0.00000  Uiso   1.00
C27    C     0.57578   0.36922   0.50000   0.00000  Uiso   1.00
H28    H     0.58119   0.32312   0.50000   0.00000  Uiso   1.00
H29    H     0.54741   0.35531   0.50000   0.00000  Uiso   1.00
H30    H     0.47542   0.41104   0.50000   0.00000  Uiso   1.00
N31    N     0.31570   0.63140   0.50000   0.00000  Uiso   1.00
C32    C     0.53137   0.53137   0.50000   0.00000  Uiso   1.00
C33    C     0.40570   0.59430   0.50000   0.00000  Uiso   1.00
C34    C     0.35035   0.64965   0.50000   0.00000  Uiso   1.00
C35    C     0.36945   0.63055   0.50000   0.00000  Uiso   1.00
B36    B     0.42562   0.57438   0.50000   0.00000  Uiso   1.00
C37    C     0.56448   0.56448   0.50000   0.00000  Uiso   1.00
H38    H     0.58613   0.55927   0.50000   0.00000  Uiso   1.00
O39    O     0.46195   0.87231   0.50000   0.00000  Uiso   1.00
C40    C     0.46898   0.90612   0.50000   0.00000  Uiso   1.00
C41    C     0.50023   0.96771   0.50000   0.00000  Uiso   1.00
C42    C     0.50006   0.93555   0.50000   0.00000  Uiso   1.00
C43    C     0.40561   0.75700   0.50000   0.00000  Uiso   1.00
C44    C     0.42422   0.79344   0.50000   0.00000  Uiso   1.00
H45    H     0.41881   0.74193   0.50000   0.00000  Uiso   1.00
H46    H     0.45259   0.80790   0.50000   0.00000  Uiso   1.00
H47    H     0.52458   0.93562   0.50000   0.00000  Uiso   1.00
O48    O     0.58964   0.12769   0.50000   0.00000  Uiso   1.00
C49    C     0.56286   0.09388   0.50000   0.00000  Uiso   1.00
C50    C     0.53252   0.03229   0.50000   0.00000  Uiso   1.00
C51    C     0.56451   0.06445   0.50000   0.00000  Uiso   1.00
C52    C     0.64861   0.24300   0.50000   0.00000  Uiso   1.00
C53    C     0.63078   0.20656   0.50000   0.00000  Uiso   1.00
H54    H     0.67688   0.25807   0.50000   0.00000  Uiso   1.00
H55    H     0.64469   0.19210   0.50000   0.00000  Uiso   1.00
H56    H     0.58896   0.06438   0.50000   0.00000  Uiso   1.00
N57    N     0.36860   0.68430   0.50000   0.00000  Uiso   1.00
C58    C     0.46863   0.00000   0.50000   0.00000  Uiso   1.00
C59    C     0.40570   0.81140   0.50000   0.00000  Uiso   1.00
C60    C     0.35035   0.70070   0.50000   0.00000  Uiso   1.00
C61    C     0.36945   0.73890   0.50000   0.00000  Uiso   1.00
B62    B     0.42562   0.85124   0.50000   0.00000  Uiso   1.00
C63    C     0.43552  -0.00000   0.50000   0.00000  Uiso   1.00
H64    H     0.44072   0.02686   0.50000   0.00000  Uiso   1.00
O65    O     0.12769   0.58964   0.50000   0.00000  Uiso   1.00
C66    C     0.09388   0.56286   0.50000   0.00000  Uiso   1.00
C67    C     0.03229   0.53252   0.50000   0.00000  Uiso   1.00
C68    C     0.06445   0.56451   0.50000   0.00000  Uiso   1.00
C69    C     0.24300   0.64861   0.50000   0.00000  Uiso   1.00
C70    C     0.20656   0.63078   0.50000   0.00000  Uiso   1.00
H71    H     0.25807   0.67688   0.50000   0.00000  Uiso   1.00
H72    H     0.19210   0.64469   0.50000   0.00000  Uiso   1.00
H73    H     0.06438   0.58896   0.50000   0.00000  Uiso   1.00
O74    O     0.87231   0.46195   0.50000   0.00000  Uiso   1.00
C75    C     0.90612   0.46898   0.50000   0.00000  Uiso   1.00
C76    C     0.96771   0.50023   0.50000   0.00000  Uiso   1.00
C77    C     0.93555   0.50006   0.50000   0.00000  Uiso   1.00
C78    C     0.75700   0.40561   0.50000   0.00000  Uiso   1.00
C79    C     0.79344   0.42422   0.50000   0.00000  Uiso   1.00
H80    H     0.74193   0.41881   0.50000   0.00000  Uiso   1.00
H81    H     0.80790   0.45259   0.50000   0.00000  Uiso   1.00
H82    H     0.93562   0.52458   0.50000   0.00000  Uiso   1.00
N83    N     0.31570   0.68430   0.50000   0.00000  Uiso   1.00
C84    C     0.00000   0.46863   0.50000   0.00000  Uiso   1.00
C85    C     0.18860   0.59430   0.50000   0.00000  Uiso   1.00
C86    C     0.29930   0.64965   0.50000   0.00000  Uiso   1.00
C87    C     0.26110   0.63055   0.50000   0.00000  Uiso   1.00
B88    B     0.14876   0.57438   0.50000   0.00000  Uiso   1.00
C89    C     0.00000   0.43552   0.50000   0.00000  Uiso   1.00
H90    H     0.97314   0.41387   0.50000   0.00000  Uiso   1.00
O91    O     0.58964   0.46195   0.50000   0.00000  Uiso   1.00
C92    C     0.56286   0.46898   0.50000   0.00000  Uiso   1.00
C93    C     0.53252   0.50023   0.50000   0.00000  Uiso   1.00
C94    C     0.56451   0.50006   0.50000   0.00000  Uiso   1.00
C95    C     0.64861   0.40561   0.50000   0.00000  Uiso   1.00
C96    C     0.63078   0.42422   0.50000   0.00000  Uiso   1.00
H97    H     0.67688   0.41881   0.50000   0.00000  Uiso   1.00
H98    H     0.64469   0.45259   0.50000   0.00000  Uiso   1.00
H99    H     0.58896   0.52458   0.50000   0.00000  Uiso   1.00
O100   O     0.46195   0.58964   0.50000   0.00000  Uiso   1.00
C101   C     0.46898   0.56286   0.50000   0.00000  Uiso   1.00
C102   C     0.50023   0.53252   0.50000   0.00000  Uiso   1.00
C103   C     0.50006   0.56451   0.50000   0.00000  Uiso   1.00
C104   C     0.40561   0.64861   0.50000   0.00000  Uiso   1.00
C105   C     0.42422   0.63078   0.50000   0.00000  Uiso   1.00
H106   H     0.41881   0.67688   0.50000   0.00000  Uiso   1.00
H107   H     0.45259   0.64469   0.50000   0.00000  Uiso   1.00
H108   H     0.52458   0.58896   0.50000   0.00000  Uiso   1.00
N109   N     0.68430   0.36860   0.50000   0.00000  Uiso   1.00
C110   C     0.46863   0.46863   0.50000   0.00000  Uiso   1.00
C111   C     0.59430   0.40570   0.50000   0.00000  Uiso   1.00
C112   C     0.64965   0.35035   0.50000   0.00000  Uiso   1.00
C113   C     0.63055   0.36945   0.50000   0.00000  Uiso   1.00
B114   B     0.57438   0.42562   0.50000   0.00000  Uiso   1.00
C115   C     0.43552   0.43552   0.50000   0.00000  Uiso   1.00
H116   H     0.41387   0.44072   0.50000   0.00000  Uiso   1.00
O117   O     0.53805   0.12769   0.50000   0.00000  Uiso   1.00
C118   C     0.53102   0.09388   0.50000   0.00000  Uiso   1.00
C119   C     0.49977   0.03229   0.50000   0.00000  Uiso   1.00
C120   C     0.49994   0.06445   0.50000   0.00000  Uiso   1.00
C121   C     0.59439   0.24300   0.50000   0.00000  Uiso   1.00
C122   C     0.57578   0.20656   0.50000   0.00000  Uiso   1.00
H123   H     0.58119   0.25807   0.50000   0.00000  Uiso   1.00
H124   H     0.54741   0.19210   0.50000   0.00000  Uiso   1.00
H125   H     0.47542   0.06438   0.50000   0.00000  Uiso   1.00
O126   O     0.41036   0.87231   0.50000   0.00000  Uiso   1.00
C127   C     0.43714   0.90612   0.50000   0.00000  Uiso   1.00
C128   C     0.46748   0.96771   0.50000   0.00000  Uiso   1.00
C129   C     0.43549   0.93555   0.50000   0.00000  Uiso   1.00
C130   C     0.35139   0.75700   0.50000   0.00000  Uiso   1.00
C131   C     0.36922   0.79344   0.50000   0.00000  Uiso   1.00
H132   H     0.32312   0.74193   0.50000   0.00000  Uiso   1.00
H133   H     0.35531   0.80790   0.50000   0.00000  Uiso   1.00
H134   H     0.41104   0.93562   0.50000   0.00000  Uiso   1.00
N135   N     0.63140   0.31570   0.50000   0.00000  Uiso   1.00
C136   C     0.53137   0.00000   0.50000   0.00000  Uiso   1.00
C137   C     0.59430   0.18860   0.50000   0.00000  Uiso   1.00
C138   C     0.64965   0.29930   0.50000   0.00000  Uiso   1.00
C139   C     0.63055   0.26110   0.50000   0.00000  Uiso   1.00
B140   B     0.57438   0.14876   0.50000   0.00000  Uiso   1.00
C141   C     0.56448   0.00000   0.50000   0.00000  Uiso   1.00
H142   H     0.55927   0.97314   0.50000   0.00000  Uiso   1.00
O143   O     0.87231   0.41036   0.50000   0.00000  Uiso   1.00
C144   C     0.90612   0.43714   0.50000   0.00000  Uiso   1.00
C145   C     0.96771   0.46748   0.50000   0.00000  Uiso   1.00
C146   C     0.93555   0.43549   0.50000   0.00000  Uiso   1.00
C147   C     0.75700   0.35139   0.50000   0.00000  Uiso   1.00
C148   C     0.79344   0.36922   0.50000   0.00000  Uiso   1.00
H149   H     0.74193   0.32312   0.50000   0.00000  Uiso   1.00
H150   H     0.80790   0.35531   0.50000   0.00000  Uiso   1.00
H151   H     0.93562   0.41104   0.50000   0.00000  Uiso   1.00
O152   O     0.12769   0.53805   0.50000   0.00000  Uiso   1.00
C153   C     0.09388   0.53102   0.50000   0.00000  Uiso   1.00
C154   C     0.03229   0.49977   0.50000   0.00000  Uiso   1.00
C155   C     0.06445   0.49994   0.50000   0.00000  Uiso   1.00
C156   C     0.24300   0.59439   0.50000   0.00000  Uiso   1.00
C157   C     0.20656   0.57578   0.50000   0.00000  Uiso   1.00
H158   H     0.25807   0.58119   0.50000   0.00000  Uiso   1.00
H159   H     0.19210   0.54741   0.50000   0.00000  Uiso   1.00
H160   H     0.06438   0.47542   0.50000   0.00000  Uiso   1.00
N161   N     0.68430   0.31570   0.50000   0.00000  Uiso   1.00
C162   C     0.00000   0.53137   0.50000   0.00000  Uiso   1.00
C163   C     0.81140   0.40570   0.50000   0.00000  Uiso   1.00
C164   C     0.70070   0.35035   0.50000   0.00000  Uiso   1.00
C165   C     0.73890   0.36945   0.50000   0.00000  Uiso   1.00
B166   B     0.85124   0.42562   0.50000   0.00000  Uiso   1.00
C167   C     0.00000   0.56448   0.50000   0.00000  Uiso   1.00
H168   H     0.02686   0.58613   0.50000   0.00000  Uiso   1.00
loop_
_geom_bond_atom_site_label_1
_geom_bond_atom_site_label_2
_geom_bond_distance
_geom_bond_site_symmetry_2
_ccdc_geom_bond_type
H1     C37     1.061   .     S
H2     C63     1.061   1_565 S
H3     C89     1.061   .     S
H4     C115    1.061   .     S
H5     C141    1.061   .     S
H6     C167    1.061   1_655 S
H7     C115    1.061   .     S
H8     C141    1.061   .     S
H9     C167    1.061   1_655 S
H10    C37     1.061   .     S
H11    C63     1.061   1_565 S
H12    C89     1.061   .     S
O13    C14     1.371   .     S
O13    B36     1.401   .     S
C14    C16     1.343   .     S
C14    C101    1.412   .     D
C15    C16     1.423   .     D
C15    C102    1.453   .     S
C15    C110    1.407   .     S
C16    H21     1.086   .     S
C17    C18     1.400   .     S
C17    H19     1.087   .     S
C17    C35     1.389   .     D
C18    H20     1.090   .     S
C18    C33     1.401   .     D
O22    C23     1.371   .     S
O22    B114    1.401   .     S
C23    C25     1.343   .     D
C23    C92     1.412   .     S
C24    C25     1.423   .     S
C24    C93     1.453   .     S
C24    C110    1.407   .     D
C25    H30     1.086   .     S
C26    C27     1.400   .     D
C26    H28     1.087   .     S
C26    C113    1.389   .     S
C27    H29     1.090   .     S
C27    C111    1.401   .     S
N31    C34     1.332   .     S
N31    C86     1.332   .     D
C32    C37     1.469   .     S
C32    C93     1.407   .     D
C32    C102    1.407   .     S
C33    B36     1.530   .     S
C33    C105    1.401   .     S
C34    C35     1.467   .     S
C34    N57     1.332   .     D
C35    C104    1.389   .     S
B36    O100    1.401   .     S
C37    H38     1.094   .     S
O39    C40     1.371   .     S
O39    B62     1.401   .     S
C40    C42     1.343   .     S
C40    C127    1.412   .     D
C41    C42     1.423   .     D
C41    C128    1.453   .     S
C41    C136    1.407   1_565 S
C42    H47     1.086   .     S
C43    C44     1.400   .     S
C43    H45     1.087   .     S
C43    C61     1.389   .     D
C44    H46     1.090   .     S
C44    C59     1.401   .     D
O48    C49     1.371   .     S
O48    B140    1.401   .     S
C49    C51     1.343   .     D
C49    C118    1.412   .     S
C50    C51     1.423   .     S
C50    C119    1.453   .     S
C50    C136    1.407   .     D
C51    H56     1.086   .     S
C52    C53     1.400   .     D
C52    H54     1.087   .     S
C52    C139    1.389   .     S
C53    H55     1.090   .     S
C53    C137    1.401   .     S
N57    C60     1.332   .     S
C58    C63     1.469   .     S
C58    C119    1.407   .     D
C58    C128    1.407   1_545 S
C59    B62     1.530   .     S
C59    C131    1.401   .     S
C60    C61     1.467   .     S
C60    N83     1.332   .     D
C61    C130    1.389   .     S
B62    O126    1.401   .     S
C63    H2      1.061   1_545 S
C63    H11     1.061   1_545 S
C63    H64     1.094   .     S
O65    C66     1.371   .     S
O65    B88     1.401   .     S
C66    C68     1.343   .     D
C66    C153    1.412   .     S
C67    C68     1.423   .     S
C67    C154    1.453   .     S
C67    C162    1.407   .     D
C68    H73     1.086   .     S
C69    C70     1.400   .     S
C69    H71     1.087   .     S
C69    C87     1.389   .     D
C70    H72     1.090   .     S
C70    C85     1.401   .     D
O74    C75     1.371   .     S
O74    B166    1.401   .     S
C75    C77     1.343   .     S
C75    C144    1.412   .     D
C76    C77     1.423   .     D
C76    C145    1.453   .     S
C76    C162    1.407   1_655 S
C77    H82     1.086   .     S
C78    C79     1.400   .     S
C78    H80     1.087   .     S
C78    C165    1.389   .     D
C79    H81     1.090   .     S
C79    C163    1.401   .     D
N83    C86     1.332   .     S
C84    C89     1.469   .     S
C84    C145    1.407   1_455 S
C84    C154    1.407   .     D
C85    B88     1.530   .     S
C85    C157    1.401   .     S
C86    C87     1.467   .     S
C87    C156    1.389   .     S
B88    O152    1.401   .     S
C89    H90     1.094   1_455 S
H90    C89     1.094   1_655 S
O91    C92     1.371   .     S
O91    B114    1.401   .     S
C92    C94     1.343   .     D
C93    C94     1.423   .     S
C94    H99     1.086   .     S
C95    C96     1.400   .     S
C95    H97     1.087   .     S
C95    C113    1.389   .     D
C96    H98     1.090   .     S
C96    C111    1.401   .     D
O100   C101    1.371   .     S
C101   C103    1.343   .     S
C102   C103    1.423   .     D
C103   H108    1.086   .     S
C104   C105    1.400   .     D
C104   H106    1.087   .     S
C105   H107    1.090   .     S
N109   C112    1.332   .     D
N109   C164    1.332   .     S
C110   C115    1.469   .     S
C111   B114    1.530   .     S
C112   C113    1.467   .     S
C112   N135    1.332   .     S
C115   H116    1.094   .     S
O117   C118    1.371   .     S
O117   B140    1.401   .     S
C118   C120    1.343   .     D
C119   C120    1.423   .     S
C120   H125    1.086   .     S
C121   C122    1.400   .     S
C121   H123    1.087   .     S
C121   C139    1.389   .     D
C122   H124    1.090   .     S
C122   C137    1.401   .     D
O126   C127    1.371   .     S
C127   C129    1.343   .     S
C128   C58     1.407   1_565 S
C128   C129    1.423   .     D
C129   H134    1.086   .     S
C130   C131    1.400   .     D
C130   H132    1.087   .     S
C131   H133    1.090   .     S
N135   C138    1.332   .     D
C136   C41     1.407   1_545 S
C136   C141    1.469   .     S
C137   B140    1.530   .     S
C138   C139    1.467   .     S
C138   N161    1.332   .     S
C141   H142    1.094   1_545 S
H142   C141    1.094   1_565 S
O143   C144    1.371   .     S
O143   B166    1.401   .     S
C144   C146    1.343   .     S
C145   C84     1.407   1_655 S
C145   C146    1.423   .     D
C146   H151    1.086   .     S
C147   C148    1.400   .     D
C147   H149    1.087   .     S
C147   C165    1.389   .     S
C148   H150    1.090   .     S
C148   C163    1.401   .     S
O152   C153    1.371   .     S
C153   C155    1.343   .     D
C154   C155    1.423   .     S
C155   H160    1.086   .     S
C156   C157    1.400   .     D
C156   H158    1.087   .     S
C157   H159    1.090   .     S
N161   C164    1.332   .     D
C162   C76     1.407   1_455 S
C162   C167    1.469   .     S
C163   B166    1.530   .     S
C164   C165    1.467   .     S
C167   H6      1.061   1_455 S
C167   H9      1.061   1_455 S
C167   H168    1.094   .     S
