data_572
_audit_creation_date              2023-09-08
_audit_creation_method            'Materials Studio'
_symmetry_space_group_name_H-M    'P1'
_symmetry_Int_Tables_number       1
_symmetry_cell_setting            triclinic
loop_
_symmetry_equiv_pos_as_xyz
  x,y,z
_cell_length_a                    30.5000
_cell_length_b                    30.5000
_cell_length_c                    3.4919
_cell_angle_alpha                 90.0000
_cell_angle_beta                  90.0000
_cell_angle_gamma                 120.0000
loop_
_atom_site_label
_atom_site_type_symbol
_atom_site_fract_x
_atom_site_fract_y
_atom_site_fract_z
_atom_site_U_iso_or_equiv
_atom_site_adp_type
_atom_site_occupancy
O1     O     0.29695   0.57697   0.00000   0.00000  Uiso   1.00
N2     N     0.38245   0.58505   0.00000   0.00000  Uiso   1.00
C3     C     0.31382   0.61757   0.00000   0.00000  Uiso   1.00
C4     C     0.39342   0.63145   0.00000   0.00000  Uiso   1.00
C5     C     0.41468   0.56990   0.00000   0.00000  Uiso   1.00
C6     C     0.46145   0.59947   0.00000   0.00000  Uiso   1.00
C7     C     0.49111   0.58277   0.00000   0.00000  Uiso   1.00
C8     C     0.47494   0.53664   0.00000   0.00000  Uiso   1.00
C9     C     0.42853   0.50701   0.00000   0.00000  Uiso   1.00
C10    C     0.39878   0.52354   0.00000   0.00000  Uiso   1.00
C11    C     0.36359   0.64675   0.00000   0.00000  Uiso   1.00
H12    H     0.42849   0.65656   0.00000   0.00000  Uiso   1.00
H13    H     0.47589   0.63531   0.00000   0.00000  Uiso   1.00
H14    H     0.34922   0.55946   0.00000   0.00000  Uiso   1.00
H15    H     0.36308   0.50007   0.00000   0.00000  Uiso   1.00
H16    H     0.52692   0.60571   0.00000   0.00000  Uiso   1.00
H17    H     0.41558   0.47120   0.00000   0.00000  Uiso   1.00
C18    C     0.50627   0.52081   0.00000   0.00000  Uiso   1.00
H19    H     0.54076   0.55085   0.00000   0.00000  Uiso   1.00
O20    O     0.42303   0.71998   0.00000   0.00000  Uiso   1.00
N21    N     0.41495   0.79740   0.00000   0.00000  Uiso   1.00
C22    C     0.38243   0.69625   0.00000   0.00000  Uiso   1.00
C23    C     0.36855   0.76197   0.00000   0.00000  Uiso   1.00
C24    C     0.43010   0.84478   0.00000   0.00000  Uiso   1.00
C25    C     0.40053   0.86198   0.00000   0.00000  Uiso   1.00
C26    C     0.41723   0.90834   0.00000   0.00000  Uiso   1.00
C27    C     0.46336   0.93830   0.00000   0.00000  Uiso   1.00
C28    C     0.49299   0.92152   0.00000   0.00000  Uiso   1.00
C29    C     0.47646   0.87524   0.00000   0.00000  Uiso   1.00
C30    C     0.35325   0.71684   0.00000   0.00000  Uiso   1.00
H31    H     0.34344   0.77193   0.00000   0.00000  Uiso   1.00
H32    H     0.36469   0.84058   0.00000   0.00000  Uiso   1.00
H33    H     0.44054   0.78976   0.00000   0.00000  Uiso   1.00
H34    H     0.49993   0.86301   0.00000   0.00000  Uiso   1.00
H35    H     0.39429   0.92121   0.00000   0.00000  Uiso   1.00
H36    H     0.52880   0.94438   0.00000   0.00000  Uiso   1.00
C37    C     0.47919   0.98546   0.00000   0.00000  Uiso   1.00
H38    H     0.44915   0.98992   0.00000   0.00000  Uiso   1.00
O39    O     0.28002   0.70305   0.00000   0.00000  Uiso   1.00
N40    N     0.20260   0.61755   0.00000   0.00000  Uiso   1.00
C41    C     0.30375   0.68618   0.00000   0.00000  Uiso   1.00
C42    C     0.23803   0.60658   0.00000   0.00000  Uiso   1.00
C43    C     0.15522   0.58532   0.00000   0.00000  Uiso   1.00
C44    C     0.13802   0.53855   0.00000   0.00000  Uiso   1.00
C45    C     0.09166   0.50889   0.00000   0.00000  Uiso   1.00
C46    C     0.06170   0.52506   0.00000   0.00000  Uiso   1.00
C47    C     0.07848   0.57147   0.00000   0.00000  Uiso   1.00
C48    C     0.12476   0.60122   0.00000   0.00000  Uiso   1.00
C49    C     0.28316   0.63641   0.00000   0.00000  Uiso   1.00
H50    H     0.22807   0.57151   0.00000   0.00000  Uiso   1.00
H51    H     0.15942   0.52411   0.00000   0.00000  Uiso   1.00
H52    H     0.21024   0.65078   0.00000   0.00000  Uiso   1.00
H53    H     0.13699   0.63692   0.00000   0.00000  Uiso   1.00
H54    H     0.07879   0.47308   0.00000   0.00000  Uiso   1.00
H55    H     0.05562   0.58442   0.00000   0.00000  Uiso   1.00
C56    C     0.01454   0.49373   0.00000   0.00000  Uiso   1.00
H57    H     0.01008   0.45924   0.00000   0.00000  Uiso   1.00
O58    O     0.70305   0.42303   0.00000   0.00000  Uiso   1.00
N59    N     0.61755   0.41495   0.00000   0.00000  Uiso   1.00
C60    C     0.68618   0.38243   0.00000   0.00000  Uiso   1.00
C61    C     0.60658   0.36855   0.00000   0.00000  Uiso   1.00
C62    C     0.58532   0.43010   0.00000   0.00000  Uiso   1.00
C63    C     0.53855   0.40053   0.00000   0.00000  Uiso   1.00
C64    C     0.50889   0.41723   0.00000   0.00000  Uiso   1.00
C65    C     0.52506   0.46336   0.00000   0.00000  Uiso   1.00
C66    C     0.57147   0.49299   0.00000   0.00000  Uiso   1.00
C67    C     0.60122   0.47646   0.00000   0.00000  Uiso   1.00
C68    C     0.63641   0.35325   0.00000   0.00000  Uiso   1.00
H69    H     0.57151   0.34344   0.00000   0.00000  Uiso   1.00
H70    H     0.52411   0.36469   0.00000   0.00000  Uiso   1.00
H71    H     0.65078   0.44054   0.00000   0.00000  Uiso   1.00
H72    H     0.63692   0.49993   0.00000   0.00000  Uiso   1.00
H73    H     0.47308   0.39429   0.00000   0.00000  Uiso   1.00
H74    H     0.58442   0.52880   0.00000   0.00000  Uiso   1.00
C75    C     0.49373   0.47919   0.00000   0.00000  Uiso   1.00
H76    H     0.45924   0.44915   0.00000   0.00000  Uiso   1.00
O77    O     0.57697   0.28002   0.00000   0.00000  Uiso   1.00
N78    N     0.58505   0.20260   0.00000   0.00000  Uiso   1.00
C79    C     0.61757   0.30375   0.00000   0.00000  Uiso   1.00
C80    C     0.63145   0.23803   0.00000   0.00000  Uiso   1.00
C81    C     0.56990   0.15522   0.00000   0.00000  Uiso   1.00
C82    C     0.59947   0.13802   0.00000   0.00000  Uiso   1.00
C83    C     0.58277   0.09166   0.00000   0.00000  Uiso   1.00
C84    C     0.53664   0.06170   0.00000   0.00000  Uiso   1.00
C85    C     0.50701   0.07848   0.00000   0.00000  Uiso   1.00
C86    C     0.52354   0.12476   0.00000   0.00000  Uiso   1.00
C87    C     0.64675   0.28316   0.00000   0.00000  Uiso   1.00
H88    H     0.65656   0.22807   0.00000   0.00000  Uiso   1.00
H89    H     0.63531   0.15942   0.00000   0.00000  Uiso   1.00
H90    H     0.55946   0.21024   0.00000   0.00000  Uiso   1.00
H91    H     0.50007   0.13699   0.00000   0.00000  Uiso   1.00
H92    H     0.60571   0.07879   0.00000   0.00000  Uiso   1.00
H93    H     0.47120   0.05562   0.00000   0.00000  Uiso   1.00
C94    C     0.52081   0.01454   0.00000   0.00000  Uiso   1.00
H95    H     0.55085   0.01008   0.00000   0.00000  Uiso   1.00
O96    O     0.71998   0.29695   0.00000   0.00000  Uiso   1.00
N97    N     0.79740   0.38245   0.00000   0.00000  Uiso   1.00
C98    C     0.69625   0.31382   0.00000   0.00000  Uiso   1.00
C99    C     0.76197   0.39342   0.00000   0.00000  Uiso   1.00
C100   C     0.84478   0.41468   0.00000   0.00000  Uiso   1.00
C101   C     0.86198   0.46145   0.00000   0.00000  Uiso   1.00
C102   C     0.90834   0.49111   0.00000   0.00000  Uiso   1.00
C103   C     0.93830   0.47494   0.00000   0.00000  Uiso   1.00
C104   C     0.92152   0.42853   0.00000   0.00000  Uiso   1.00
C105   C     0.87524   0.39878   0.00000   0.00000  Uiso   1.00
C106   C     0.71684   0.36359   0.00000   0.00000  Uiso   1.00
H107   H     0.77193   0.42849   0.00000   0.00000  Uiso   1.00
H108   H     0.84058   0.47589   0.00000   0.00000  Uiso   1.00
H109   H     0.78976   0.34922   0.00000   0.00000  Uiso   1.00
H110   H     0.86301   0.36308   0.00000   0.00000  Uiso   1.00
H111   H     0.92121   0.52692   0.00000   0.00000  Uiso   1.00
H112   H     0.94438   0.41558   0.00000   0.00000  Uiso   1.00
C113   C     0.98546   0.50627   0.00000   0.00000  Uiso   1.00
H114   H     0.98992   0.54076   0.00000   0.00000  Uiso   1.00
loop_
_geom_bond_atom_site_label_1
_geom_bond_atom_site_label_2
_geom_bond_distance
_geom_bond_site_symmetry_2
_ccdc_geom_bond_type
O1     C3      1.077   .     D
N2     C4      1.281   .     S
N2     C5      1.278   .     S
N2     H14     0.919   .     S
C3     C11     1.321   .     S
C3     C49     1.320   .     S
C4     C11     1.212   .     D
C4     H12     0.955   .     S
C5     C6      1.250   .     D
C5     C10     1.245   .     S
C6     C7      1.240   .     S
C6     H13     0.953   .     S
C7     C8      1.236   .     D
C7     H16     0.958   .     S
C8     C9      1.241   .     S
C8     C18     1.268   .     S
C9     C10     1.239   .     D
C9     H17     0.958   .     S
C10    H15     0.958   .     S
C11    C22     1.320   .     S
C18    H19     0.991   .     S
C18    C75     1.128   .     D
O20    C22     1.077   .     D
N21    C23     1.281   .     S
N21    C24     1.278   .     S
N21    H33     0.919   .     S
C22    C30     1.321   .     S
C23    C30     1.212   .     D
C23    H31     0.955   .     S
C24    C25     1.250   .     D
C24    C29     1.245   .     S
C25    C26     1.240   .     S
C25    H32     0.953   .     S
C26    C27     1.236   .     D
C26    H35     0.958   .     S
C27    C28     1.241   .     S
C27    C37     1.268   .     S
C28    C29     1.239   .     D
C28    H36     0.958   .     S
C29    H34     0.958   .     S
C30    C41     1.320   .     S
C37    H38     0.991   .     S
C37    C94     1.128   1_565 D
O39    C41     1.077   .     D
N40    C42     1.281   .     S
N40    C43     1.278   .     S
N40    H52     0.919   .     S
C41    C49     1.321   .     S
C42    C49     1.212   .     D
C42    H50     0.955   .     S
C43    C44     1.250   .     S
C43    C48     1.245   .     D
C44    C45     1.240   .     D
C44    H51     0.953   .     S
C45    C46     1.236   .     S
C45    H54     0.958   .     S
C46    C47     1.241   .     D
C46    C56     1.268   .     S
C47    C48     1.239   .     S
C47    H55     0.958   .     S
C48    H53     0.958   .     S
C56    H57     0.991   .     S
C56    C113    1.128   1_455 D
O58    C60     1.077   .     D
N59    C61     1.281   .     S
N59    C62     1.278   .     S
N59    H71     0.919   .     S
C60    C68     1.321   .     S
C60    C106    1.320   .     S
C61    C68     1.212   .     D
C61    H69     0.955   .     S
C62    C63     1.250   .     D
C62    C67     1.245   .     S
C63    C64     1.240   .     S
C63    H70     0.953   .     S
C64    C65     1.236   .     D
C64    H73     0.958   .     S
C65    C66     1.241   .     S
C65    C75     1.268   .     S
C66    C67     1.239   .     D
C66    H74     0.958   .     S
C67    H72     0.958   .     S
C68    C79     1.320   .     S
C75    H76     0.991   .     S
O77    C79     1.077   .     D
N78    C80     1.281   .     S
N78    C81     1.278   .     S
N78    H90     0.919   .     S
C79    C87     1.321   .     S
C80    C87     1.212   .     D
C80    H88     0.955   .     S
C81    C82     1.250   .     D
C81    C86     1.245   .     S
C82    C83     1.240   .     S
C82    H89     0.953   .     S
C83    C84     1.236   .     D
C83    H92     0.958   .     S
C84    C85     1.241   .     S
C84    C94     1.268   .     S
C85    C86     1.239   .     D
C85    H93     0.958   .     S
C86    H91     0.958   .     S
C87    C98     1.320   .     S
C94    C37     1.128   1_545 D
C94    H95     0.991   .     S
O96    C98     1.077   .     D
N97    C99     1.281   .     S
N97    C100    1.278   .     S
N97    H109    0.919   .     S
C98    C106    1.321   .     S
C99    C106    1.212   .     D
C99    H107    0.955   .     S
C100   C101    1.250   .     S
C100   C105    1.245   .     D
C101   C102    1.240   .     D
C101   H108    0.953   .     S
C102   C103    1.236   .     S
C102   H111    0.958   .     S
C103   C104    1.241   .     D
C103   C113    1.268   .     S
C104   C105    1.239   .     S
C104   H112    0.958   .     S
C105   H110    0.958   .     S
C113   C56     1.128   1_655 D
C113   H114    0.991   .     S
