data_573
_audit_creation_date              2023-09-08
_audit_creation_method            'Materials Studio'
_symmetry_space_group_name_H-M    'P1'
_symmetry_Int_Tables_number       1
_symmetry_cell_setting            triclinic
loop_
_symmetry_equiv_pos_as_xyz
  x,y,z
_cell_length_a                    30.5200
_cell_length_b                    30.5200
_cell_length_c                    3.7300
_cell_angle_alpha                 90.0000
_cell_angle_beta                  90.0000
_cell_angle_gamma                 120.0000
loop_
_atom_site_label
_atom_site_type_symbol
_atom_site_fract_x
_atom_site_fract_y
_atom_site_fract_z
_atom_site_U_iso_or_equiv
_atom_site_adp_type
_atom_site_occupancy
N1     N     0.48594   0.97435   0.50000   0.00000  Uiso   1.00
C2     C     0.51385   0.95316   0.50000   0.00000  Uiso   1.00
O3     O     0.42799   0.74235   0.50000   0.00000  Uiso   1.00
C4     C     0.43914   0.86845   0.50000   0.00000  Uiso   1.00
C5     C     0.41667   0.81685   0.50000   0.00000  Uiso   1.00
C6     C     0.44621   0.79422   0.50000   0.00000  Uiso   1.00
C7     C     0.49834   0.82428   0.50000   0.00000  Uiso   1.00
C8     C     0.52001   0.87600   0.50000   0.00000  Uiso   1.00
C9     C     0.40840   0.50900   0.50000   0.00000  Uiso   1.00
N10    N     0.37327   0.65899   0.50000   0.00000  Uiso   1.00
C11    C     0.37884   0.70495   0.50000   0.00000  Uiso   1.00
H12    H     0.55553   0.97517   0.50000   0.00000  Uiso   1.00
H13    H     0.41546   0.88528   0.50000   0.00000  Uiso   1.00
H14    H     0.37616   0.79454   0.50000   0.00000  Uiso   1.00
H15    H     0.52235   0.80774   0.50000   0.00000  Uiso   1.00
H16    H     0.56096   0.89898   0.50000   0.00000  Uiso   1.00
N17    N     0.02565   0.51159   0.50000   0.00000  Uiso   1.00
C18    C     0.04684   0.56069   0.50000   0.00000  Uiso   1.00
O19    O     0.25765   0.68564   0.50000   0.00000  Uiso   1.00
C20    C     0.13155   0.57069   0.50000   0.00000  Uiso   1.00
C21    C     0.18315   0.59982   0.50000   0.00000  Uiso   1.00
C22    C     0.20578   0.65199   0.50000   0.00000  Uiso   1.00
C23    C     0.17572   0.67406   0.50000   0.00000  Uiso   1.00
C24    C     0.12400   0.64401   0.50000   0.00000  Uiso   1.00
C25    C     0.49100   0.89940   0.50000   0.00000  Uiso   1.00
N26    N     0.34101   0.71428   0.50000   0.00000  Uiso   1.00
C27    C     0.29505   0.67389   0.50000   0.00000  Uiso   1.00
H28    H     0.02483   0.58036   0.50000   0.00000  Uiso   1.00
H29    H     0.11472   0.53018   0.50000   0.00000  Uiso   1.00
H30    H     0.20546   0.58162   0.50000   0.00000  Uiso   1.00
H31    H     0.19226   0.71461   0.50000   0.00000  Uiso   1.00
H32    H     0.10102   0.66198   0.50000   0.00000  Uiso   1.00
N33    N     0.48841   0.51406   0.50000   0.00000  Uiso   1.00
C34    C     0.43931   0.48615   0.50000   0.00000  Uiso   1.00
O35    O     0.31436   0.57201   0.50000   0.00000  Uiso   1.00
C36    C     0.42931   0.56086   0.50000   0.00000  Uiso   1.00
C37    C     0.40018   0.58333   0.50000   0.00000  Uiso   1.00
C38    C     0.34801   0.55379   0.50000   0.00000  Uiso   1.00
C39    C     0.32594   0.50166   0.50000   0.00000  Uiso   1.00
C40    C     0.35599   0.47999   0.50000   0.00000  Uiso   1.00
C41    C     0.10060   0.59160   0.50000   0.00000  Uiso   1.00
N42    N     0.28572   0.62673   0.50000   0.00000  Uiso   1.00
C43    C     0.32611   0.62116   0.50000   0.00000  Uiso   1.00
H44    H     0.41964   0.44447   0.50000   0.00000  Uiso   1.00
H45    H     0.46982   0.58454   0.50000   0.00000  Uiso   1.00
H46    H     0.41838   0.62384   0.50000   0.00000  Uiso   1.00
H47    H     0.28539   0.47765   0.50000   0.00000  Uiso   1.00
H48    H     0.33802   0.43904   0.50000   0.00000  Uiso   1.00
N49    N     0.51406   0.02565   0.50000   0.00000  Uiso   1.00
C50    C     0.48615   0.04684   0.50000   0.00000  Uiso   1.00
O51    O     0.57201   0.25765   0.50000   0.00000  Uiso   1.00
C52    C     0.56086   0.13155   0.50000   0.00000  Uiso   1.00
C53    C     0.58333   0.18315   0.50000   0.00000  Uiso   1.00
C54    C     0.55379   0.20578   0.50000   0.00000  Uiso   1.00
C55    C     0.50166   0.17572   0.50000   0.00000  Uiso   1.00
C56    C     0.47999   0.12400   0.50000   0.00000  Uiso   1.00
C57    C     0.59160   0.49100   0.50000   0.00000  Uiso   1.00
N58    N     0.62673   0.34101   0.50000   0.00000  Uiso   1.00
C59    C     0.62116   0.29505   0.50000   0.00000  Uiso   1.00
H60    H     0.44447   0.02483   0.50000   0.00000  Uiso   1.00
H61    H     0.58454   0.11472   0.50000   0.00000  Uiso   1.00
H62    H     0.62384   0.20546   0.50000   0.00000  Uiso   1.00
H63    H     0.47765   0.19226   0.50000   0.00000  Uiso   1.00
H64    H     0.43904   0.10102   0.50000   0.00000  Uiso   1.00
N65    N     0.97435   0.48841   0.50000   0.00000  Uiso   1.00
C66    C     0.95316   0.43931   0.50000   0.00000  Uiso   1.00
O67    O     0.74235   0.31436   0.50000   0.00000  Uiso   1.00
C68    C     0.86845   0.42931   0.50000   0.00000  Uiso   1.00
C69    C     0.81685   0.40018   0.50000   0.00000  Uiso   1.00
C70    C     0.79422   0.34801   0.50000   0.00000  Uiso   1.00
C71    C     0.82428   0.32594   0.50000   0.00000  Uiso   1.00
C72    C     0.87600   0.35599   0.50000   0.00000  Uiso   1.00
C73    C     0.50900   0.10060   0.50000   0.00000  Uiso   1.00
N74    N     0.65899   0.28572   0.50000   0.00000  Uiso   1.00
C75    C     0.70495   0.32611   0.50000   0.00000  Uiso   1.00
H76    H     0.97517   0.41964   0.50000   0.00000  Uiso   1.00
H77    H     0.88528   0.46982   0.50000   0.00000  Uiso   1.00
H78    H     0.79454   0.41838   0.50000   0.00000  Uiso   1.00
H79    H     0.80774   0.28539   0.50000   0.00000  Uiso   1.00
H80    H     0.89898   0.33802   0.50000   0.00000  Uiso   1.00
N81    N     0.51159   0.48594   0.50000   0.00000  Uiso   1.00
C82    C     0.56069   0.51385   0.50000   0.00000  Uiso   1.00
O83    O     0.68564   0.42799   0.50000   0.00000  Uiso   1.00
C84    C     0.57069   0.43914   0.50000   0.00000  Uiso   1.00
C85    C     0.59982   0.41667   0.50000   0.00000  Uiso   1.00
C86    C     0.65199   0.44621   0.50000   0.00000  Uiso   1.00
C87    C     0.67406   0.49834   0.50000   0.00000  Uiso   1.00
C88    C     0.64401   0.52001   0.50000   0.00000  Uiso   1.00
C89    C     0.89940   0.40840   0.50000   0.00000  Uiso   1.00
N90    N     0.71428   0.37327   0.50000   0.00000  Uiso   1.00
C91    C     0.67389   0.37884   0.50000   0.00000  Uiso   1.00
H92    H     0.58036   0.55553   0.50000   0.00000  Uiso   1.00
H93    H     0.53018   0.41546   0.50000   0.00000  Uiso   1.00
H94    H     0.58162   0.37616   0.50000   0.00000  Uiso   1.00
H95    H     0.71461   0.52235   0.50000   0.00000  Uiso   1.00
H96    H     0.66198   0.56096   0.50000   0.00000  Uiso   1.00
loop_
_geom_bond_atom_site_label_1
_geom_bond_atom_site_label_2
_geom_bond_distance
_geom_bond_site_symmetry_2
_ccdc_geom_bond_type
N1     C2      1.302   .     D
N1     N49     1.358   1_565 S
C2     H12     1.102   .     S
C2     C25     1.426   .     S
O3     C6      1.391   .     S
O3     C11     1.357   .     S
C4     C5      1.368   .     S
C4     H13     1.076   .     S
C4     C25     1.379   .     D
C5     C6      1.383   .     D
C5     H14     1.073   .     S
C6     C7      1.383   .     S
C7     C8      1.373   .     D
C7     H15     1.078   .     S
C8     H16     1.085   .     S
C8     C25     1.388   .     S
C9     C34     1.426   .     S
C9     C36     1.379   .     D
C9     C40     1.388   .     S
N10    C11     1.326   .     D
N10    C43     1.320   .     S
C11    N26     1.320   .     S
N17    C18     1.302   .     D
N17    N65     1.358   1_455 S
C18    H28     1.102   .     S
C18    C41     1.426   .     S
O19    C22     1.391   .     S
O19    C27     1.357   .     S
C20    C21     1.368   .     D
C20    H29     1.076   .     S
C20    C41     1.379   .     S
C21    C22     1.383   .     S
C21    H30     1.073   .     S
C22    C23     1.383   .     D
C23    C24     1.373   .     S
C23    H31     1.078   .     S
C24    H32     1.085   .     S
C24    C41     1.388   .     D
N26    C27     1.326   .     D
C27    N42     1.320   .     S
N33    C34     1.302   .     D
N33    N81     1.358   .     S
C34    H44     1.102   .     S
O35    C38     1.391   .     S
O35    C43     1.357   .     S
C36    C37     1.368   .     S
C36    H45     1.076   .     S
C37    C38     1.383   .     D
C37    H46     1.073   .     S
C38    C39     1.383   .     S
C39    C40     1.373   .     D
C39    H47     1.078   .     S
C40    H48     1.085   .     S
N42    C43     1.326   .     D
N49    N1      1.358   1_545 S
N49    C50     1.302   .     D
C50    H60     1.102   .     S
C50    C73     1.426   .     S
O51    C54     1.391   .     S
O51    C59     1.357   .     S
C52    C53     1.368   .     S
C52    H61     1.076   .     S
C52    C73     1.379   .     D
C53    C54     1.383   .     D
C53    H62     1.073   .     S
C54    C55     1.383   .     S
C55    C56     1.373   .     D
C55    H63     1.078   .     S
C56    H64     1.085   .     S
C56    C73     1.388   .     S
C57    C82     1.426   .     S
C57    C84     1.379   .     D
C57    C88     1.388   .     S
N58    C59     1.326   .     D
N58    C91     1.320   .     S
C59    N74     1.320   .     S
N65    N17     1.358   1_655 S
N65    C66     1.302   .     D
C66    H76     1.102   .     S
C66    C89     1.426   .     S
O67    C70     1.391   .     S
O67    C75     1.357   .     S
C68    C69     1.368   .     S
C68    H77     1.076   .     S
C68    C89     1.379   .     D
C69    C70     1.383   .     D
C69    H78     1.073   .     S
C70    C71     1.383   .     S
C71    C72     1.373   .     D
C71    H79     1.078   .     S
C72    H80     1.085   .     S
C72    C89     1.388   .     S
N74    C75     1.326   .     D
C75    N90     1.320   .     S
N81    C82     1.302   .     D
C82    H92     1.102   .     S
O83    C86     1.391   .     S
O83    C91     1.357   .     S
C84    C85     1.368   .     S
C84    H93     1.076   .     S
C85    C86     1.383   .     D
C85    H94     1.073   .     S
C86    C87     1.383   .     S
C87    C88     1.373   .     D
C87    H95     1.078   .     S
C88    H96     1.085   .     S
N90    C91     1.326   .     D
