data_574
_audit_creation_date              2023-09-08
_audit_creation_method            'Materials Studio'
_symmetry_space_group_name_H-M    'P1'
_symmetry_Int_Tables_number       1
_symmetry_cell_setting            triclinic
loop_
_symmetry_equiv_pos_as_xyz
  x,y,z
_cell_length_a                    43.4600
_cell_length_b                    43.4600
_cell_length_c                    3.5000
_cell_angle_alpha                 90.0000
_cell_angle_beta                  90.0000
_cell_angle_gamma                 120.0000
loop_
_atom_site_label
_atom_site_type_symbol
_atom_site_fract_x
_atom_site_fract_y
_atom_site_fract_z
_atom_site_U_iso_or_equiv
_atom_site_adp_type
_atom_site_occupancy
N1     N     0.64489   0.29911   0.00000   0.00000  Uiso   1.00
C2     C     0.67961   0.31116   0.00000   0.00000  Uiso   1.00
O3     O     0.59480   0.30546   0.00000   0.00000  Uiso   1.00
C4     C     0.67338   0.25259   0.00000   0.00000  Uiso   1.00
C5     C     0.63652   0.23495   0.00000   0.00000  Uiso   1.00
C6     C     0.61750   0.20021   0.00000   0.00000  Uiso   1.00
C7     C     0.63314   0.17971   0.00000   0.00000  Uiso   1.00
C8     C     0.66969   0.19517   0.00000   0.00000  Uiso   1.00
C9     C     0.68992   0.23210   0.00000   0.00000  Uiso   1.00
C10    C     0.60704   0.14329   0.00000   0.00000  Uiso   1.00
N11    N     0.61042   0.11597   0.00000   0.00000  Uiso   1.00
C12    C     0.91760   0.49616   0.00000   0.00000  Uiso   1.00
C13    C     0.92120   0.46563   0.00000   0.00000  Uiso   1.00
C14    C     0.95282   0.46768   0.00000   0.00000  Uiso   1.00
C15    C     0.98318   0.49984   0.00000   0.00000  Uiso   1.00
C16    C     0.98034   0.53080   0.00000   0.00000  Uiso   1.00
C17    C     0.94777   0.52871   0.00000   0.00000  Uiso   1.00
H18    H     0.61846   0.24416   0.00000   0.00000  Uiso   1.00
H19    H     0.58912   0.18936   0.00000   0.00000  Uiso   1.00
H20    H     0.68215   0.17930   0.00000   0.00000  Uiso   1.00
H21    H     0.71827   0.24476   0.00000   0.00000  Uiso   1.00
H22    H     0.58192   0.14030   0.00000   0.00000  Uiso   1.00
H23    H     0.90110   0.43848   0.00000   0.00000  Uiso   1.00
H24    H     0.95209   0.44293   0.00000   0.00000  Uiso   1.00
H25    H     0.00225   0.55709   0.00000   0.00000  Uiso   1.00
H26    H     0.94609   0.55244   0.00000   0.00000  Uiso   1.00
N27    N     0.70089   0.34578   0.00000   0.00000  Uiso   1.00
C28    C     0.68884   0.36845   0.00000   0.00000  Uiso   1.00
O29    O     0.69454   0.28934   0.00000   0.00000  Uiso   1.00
C30    C     0.74741   0.42079   0.00000   0.00000  Uiso   1.00
C31    C     0.76505   0.40157   0.00000   0.00000  Uiso   1.00
C32    C     0.79979   0.41729   0.00000   0.00000  Uiso   1.00
C33    C     0.82029   0.45343   0.00000   0.00000  Uiso   1.00
C34    C     0.80483   0.47452   0.00000   0.00000  Uiso   1.00
C35    C     0.76790   0.45782   0.00000   0.00000  Uiso   1.00
C36    C     0.85671   0.46375   0.00000   0.00000  Uiso   1.00
N37    N     0.88403   0.49445   0.00000   0.00000  Uiso   1.00
C38    C     0.50384   0.42144   0.00000   0.00000  Uiso   1.00
C39    C     0.53437   0.45557   0.00000   0.00000  Uiso   1.00
C40    C     0.53232   0.48514   0.00000   0.00000  Uiso   1.00
C41    C     0.50016   0.48334   0.00000   0.00000  Uiso   1.00
C42    C     0.46920   0.44954   0.00000   0.00000  Uiso   1.00
C43    C     0.47129   0.41906   0.00000   0.00000  Uiso   1.00
H44    H     0.75584   0.37430   0.00000   0.00000  Uiso   1.00
H45    H     0.81064   0.39976   0.00000   0.00000  Uiso   1.00
H46    H     0.82070   0.50285   0.00000   0.00000  Uiso   1.00
H47    H     0.75524   0.47351   0.00000   0.00000  Uiso   1.00
H48    H     0.85970   0.44162   0.00000   0.00000  Uiso   1.00
H49    H     0.56152   0.46262   0.00000   0.00000  Uiso   1.00
H50    H     0.55707   0.50916   0.00000   0.00000  Uiso   1.00
H51    H     0.44291   0.44516   0.00000   0.00000  Uiso   1.00
H52    H     0.44756   0.39365   0.00000   0.00000  Uiso   1.00
N53    N     0.65422   0.35511   0.00000   0.00000  Uiso   1.00
C54    C     0.63155   0.32039   0.00000   0.00000  Uiso   1.00
O55    O     0.71066   0.40520   0.00000   0.00000  Uiso   1.00
C56    C     0.57921   0.32662   0.00000   0.00000  Uiso   1.00
C57    C     0.59843   0.36348   0.00000   0.00000  Uiso   1.00
C58    C     0.58271   0.38250   0.00000   0.00000  Uiso   1.00
C59    C     0.54657   0.36686   0.00000   0.00000  Uiso   1.00
C60    C     0.52548   0.33031   0.00000   0.00000  Uiso   1.00
C61    C     0.54218   0.31008   0.00000   0.00000  Uiso   1.00
C62    C     0.53625   0.39296   0.00000   0.00000  Uiso   1.00
N63    N     0.50555   0.38958   0.00000   0.00000  Uiso   1.00
C64    C     0.57856   0.08240   0.00000   0.00000  Uiso   1.00
C65    C     0.54443   0.07880   0.00000   0.00000  Uiso   1.00
C66    C     0.51486   0.04718   0.00000   0.00000  Uiso   1.00
C67    C     0.51666   0.01682   0.00000   0.00000  Uiso   1.00
C68    C     0.55046   0.01966   0.00000   0.00000  Uiso   1.00
C69    C     0.58094   0.05223   0.00000   0.00000  Uiso   1.00
H70    H     0.62570   0.38154   0.00000   0.00000  Uiso   1.00
H71    H     0.60024   0.41088   0.00000   0.00000  Uiso   1.00
H72    H     0.49715   0.31785   0.00000   0.00000  Uiso   1.00
H73    H     0.52649   0.28173   0.00000   0.00000  Uiso   1.00
H74    H     0.55838   0.41808   0.00000   0.00000  Uiso   1.00
H75    H     0.53738   0.09890   0.00000   0.00000  Uiso   1.00
H76    H     0.49084   0.04791   0.00000   0.00000  Uiso   1.00
H77    H     0.55484   0.99775   0.00000   0.00000  Uiso   1.00
H78    H     0.60635   0.05391   0.00000   0.00000  Uiso   1.00
N79    N     0.35511   0.70089   0.00000   0.00000  Uiso   1.00
C80    C     0.32039   0.68884   0.00000   0.00000  Uiso   1.00
O81    O     0.40520   0.69454   0.00000   0.00000  Uiso   1.00
C82    C     0.32662   0.74741   0.00000   0.00000  Uiso   1.00
C83    C     0.36348   0.76505   0.00000   0.00000  Uiso   1.00
C84    C     0.38250   0.79979   0.00000   0.00000  Uiso   1.00
C85    C     0.36686   0.82029   0.00000   0.00000  Uiso   1.00
C86    C     0.33031   0.80483   0.00000   0.00000  Uiso   1.00
C87    C     0.31008   0.76790   0.00000   0.00000  Uiso   1.00
C88    C     0.39296   0.85671   0.00000   0.00000  Uiso   1.00
N89    N     0.38958   0.88403   0.00000   0.00000  Uiso   1.00
C90    C     0.08240   0.50384   0.00000   0.00000  Uiso   1.00
C91    C     0.07880   0.53437   0.00000   0.00000  Uiso   1.00
C92    C     0.04718   0.53232   0.00000   0.00000  Uiso   1.00
C93    C     0.01682   0.50016   0.00000   0.00000  Uiso   1.00
C94    C     0.01966   0.46920   0.00000   0.00000  Uiso   1.00
C95    C     0.05223   0.47129   0.00000   0.00000  Uiso   1.00
H96    H     0.38154   0.75584   0.00000   0.00000  Uiso   1.00
H97    H     0.41088   0.81064   0.00000   0.00000  Uiso   1.00
H98    H     0.31785   0.82070   0.00000   0.00000  Uiso   1.00
H99    H     0.28173   0.75524   0.00000   0.00000  Uiso   1.00
H100   H     0.41808   0.85970   0.00000   0.00000  Uiso   1.00
H101   H     0.09890   0.56152   0.00000   0.00000  Uiso   1.00
H102   H     0.04791   0.55707   0.00000   0.00000  Uiso   1.00
H103   H     0.99775   0.44291   0.00000   0.00000  Uiso   1.00
H104   H     0.05391   0.44756   0.00000   0.00000  Uiso   1.00
N105   N     0.29911   0.65422   0.00000   0.00000  Uiso   1.00
C106   C     0.31116   0.63155   0.00000   0.00000  Uiso   1.00
O107   O     0.30546   0.71066   0.00000   0.00000  Uiso   1.00
C108   C     0.25259   0.57921   0.00000   0.00000  Uiso   1.00
C109   C     0.23495   0.59843   0.00000   0.00000  Uiso   1.00
C110   C     0.20021   0.58271   0.00000   0.00000  Uiso   1.00
C111   C     0.17971   0.54657   0.00000   0.00000  Uiso   1.00
C112   C     0.19517   0.52548   0.00000   0.00000  Uiso   1.00
C113   C     0.23210   0.54218   0.00000   0.00000  Uiso   1.00
C114   C     0.14329   0.53625   0.00000   0.00000  Uiso   1.00
N115   N     0.11597   0.50555   0.00000   0.00000  Uiso   1.00
C116   C     0.49616   0.57856   0.00000   0.00000  Uiso   1.00
C117   C     0.46563   0.54443   0.00000   0.00000  Uiso   1.00
C118   C     0.46768   0.51486   0.00000   0.00000  Uiso   1.00
C119   C     0.49984   0.51666   0.00000   0.00000  Uiso   1.00
C120   C     0.53080   0.55046   0.00000   0.00000  Uiso   1.00
C121   C     0.52871   0.58094   0.00000   0.00000  Uiso   1.00
H122   H     0.24416   0.62570   0.00000   0.00000  Uiso   1.00
H123   H     0.18936   0.60024   0.00000   0.00000  Uiso   1.00
H124   H     0.17930   0.49715   0.00000   0.00000  Uiso   1.00
H125   H     0.24476   0.52649   0.00000   0.00000  Uiso   1.00
H126   H     0.14030   0.55838   0.00000   0.00000  Uiso   1.00
H127   H     0.43848   0.53738   0.00000   0.00000  Uiso   1.00
H128   H     0.44293   0.49084   0.00000   0.00000  Uiso   1.00
H129   H     0.55709   0.55484   0.00000   0.00000  Uiso   1.00
H130   H     0.55244   0.60635   0.00000   0.00000  Uiso   1.00
N131   N     0.34578   0.64489   0.00000   0.00000  Uiso   1.00
C132   C     0.36845   0.67961   0.00000   0.00000  Uiso   1.00
O133   O     0.28934   0.59480   0.00000   0.00000  Uiso   1.00
C134   C     0.42079   0.67338   0.00000   0.00000  Uiso   1.00
C135   C     0.40157   0.63652   0.00000   0.00000  Uiso   1.00
C136   C     0.41729   0.61750   0.00000   0.00000  Uiso   1.00
C137   C     0.45343   0.63314   0.00000   0.00000  Uiso   1.00
C138   C     0.47452   0.66969   0.00000   0.00000  Uiso   1.00
C139   C     0.45782   0.68992   0.00000   0.00000  Uiso   1.00
C140   C     0.46375   0.60704   0.00000   0.00000  Uiso   1.00
N141   N     0.49445   0.61042   0.00000   0.00000  Uiso   1.00
C142   C     0.42144   0.91760   0.00000   0.00000  Uiso   1.00
C143   C     0.45557   0.92120   0.00000   0.00000  Uiso   1.00
C144   C     0.48514   0.95282   0.00000   0.00000  Uiso   1.00
C145   C     0.48334   0.98318   0.00000   0.00000  Uiso   1.00
C146   C     0.44954   0.98034   0.00000   0.00000  Uiso   1.00
C147   C     0.41906   0.94777   0.00000   0.00000  Uiso   1.00
H148   H     0.37430   0.61846   0.00000   0.00000  Uiso   1.00
H149   H     0.39976   0.58912   0.00000   0.00000  Uiso   1.00
H150   H     0.50285   0.68215   0.00000   0.00000  Uiso   1.00
H151   H     0.47351   0.71827   0.00000   0.00000  Uiso   1.00
H152   H     0.44162   0.58192   0.00000   0.00000  Uiso   1.00
H153   H     0.46262   0.90110   0.00000   0.00000  Uiso   1.00
H154   H     0.50916   0.95209   0.00000   0.00000  Uiso   1.00
H155   H     0.44516   0.00225   0.00000   0.00000  Uiso   1.00
H156   H     0.39365   0.94609   0.00000   0.00000  Uiso   1.00
loop_
_geom_bond_atom_site_label_1
_geom_bond_atom_site_label_2
_geom_bond_distance
_geom_bond_site_symmetry_2
_ccdc_geom_bond_type
N1     C2      1.327   .     D
N1     C54     1.314   .     S
C2     N27     1.314   .     S
C2     O29     1.391   .     S
O3     C54     1.391   .     S
O3     C56     1.388   .     S
C4     C5      1.388   .     S
C4     C9      1.396   .     D
C4     O29     1.388   .     S
C5     C6      1.309   .     D
C5     H18     1.044   .     S
C6     C7      1.364   .     S
C6     H19     1.078   .     S
C7     C8      1.381   .     D
C7     C10     1.413   .     S
C8     C9      1.392   .     S
C8     H20     1.069   .     S
C9     H21     1.069   .     S
C10    N11     1.267   .     D
C10    H22     1.033   .     S
N11    C64     1.423   .     S
C12    C13     1.412   .     D
C12    C17     1.366   .     S
C12    N37     1.423   .     S
C13    C14     1.332   .     S
C13    H23     1.060   .     S
C14    C15     1.360   .     D
C14    H24     1.060   .     S
C15    C16     1.411   .     S
C15    C93     1.455   1_655 S
C16    C17     1.372   .     D
C16    H25     1.060   1_655 S
C17    H26     1.070   .     S
H25    C16     1.060   1_455 S
N27    C28     1.327   .     D
C28    N53     1.314   .     S
C28    O55     1.391   .     S
C30    C31     1.388   .     D
C30    C35     1.396   .     S
C30    O55     1.388   .     S
C31    C32     1.309   .     S
C31    H44     1.044   .     S
C32    C33     1.364   .     D
C32    H45     1.078   .     S
C33    C34     1.381   .     S
C33    C36     1.413   .     S
C34    C35     1.392   .     D
C34    H46     1.069   .     S
C35    H47     1.069   .     S
C36    N37     1.267   .     D
C36    H48     1.033   .     S
C38    C39     1.412   .     D
C38    C43     1.366   .     S
C38    N63     1.423   .     S
C39    C40     1.332   .     S
C39    H49     1.060   .     S
C40    C41     1.360   .     D
C40    H50     1.060   .     S
C41    C42     1.411   .     S
C41    C119    1.455   .     S
C42    C43     1.372   .     D
C42    H51     1.060   .     S
C43    H52     1.070   .     S
N53    C54     1.327   .     D
C56    C57     1.388   .     D
C56    C61     1.396   .     S
C57    C58     1.309   .     S
C57    H70     1.044   .     S
C58    C59     1.364   .     D
C58    H71     1.078   .     S
C59    C60     1.381   .     S
C59    C62     1.413   .     S
C60    C61     1.392   .     D
C60    H72     1.069   .     S
C61    H73     1.069   .     S
C62    N63     1.267   .     D
C62    H74     1.033   .     S
C64    C65     1.412   .     S
C64    C69     1.366   .     D
C65    C66     1.332   .     D
C65    H75     1.060   .     S
C66    C67     1.360   .     S
C66    H76     1.060   .     S
C67    C68     1.411   .     D
C67    C145    1.455   1_545 S
C68    C69     1.372   .     S
C68    H77     1.060   1_545 S
C69    H78     1.070   .     S
H77    C68     1.060   1_565 S
N79    C80     1.327   .     D
N79    C132    1.314   .     S
C80    N105    1.314   .     S
C80    O107    1.391   .     S
O81    C132    1.391   .     S
O81    C134    1.388   .     S
C82    C83     1.388   .     S
C82    C87     1.396   .     D
C82    O107    1.388   .     S
C83    C84     1.309   .     D
C83    H96     1.044   .     S
C84    C85     1.364   .     S
C84    H97     1.078   .     S
C85    C86     1.381   .     D
C85    C88     1.413   .     S
C86    C87     1.392   .     S
C86    H98     1.069   .     S
C87    H99     1.069   .     S
C88    N89     1.267   .     D
C88    H100    1.033   .     S
N89    C142    1.423   .     S
C90    C91     1.412   .     D
C90    C95     1.366   .     S
C90    N115    1.423   .     S
C91    C92     1.332   .     S
C91    H101    1.060   .     S
C92    C93     1.360   .     D
C92    H102    1.060   .     S
C93    C15     1.455   1_455 S
C93    C94     1.411   .     S
C94    C95     1.372   .     D
C94    H103    1.060   1_455 S
C95    H104    1.070   .     S
H103   C94     1.060   1_655 S
N105   C106    1.327   .     D
C106   N131    1.314   .     S
C106   O133    1.391   .     S
C108   C109    1.388   .     D
C108   C113    1.396   .     S
C108   O133    1.388   .     S
C109   C110    1.309   .     S
C109   H122    1.044   .     S
C110   C111    1.364   .     D
C110   H123    1.078   .     S
C111   C112    1.381   .     S
C111   C114    1.413   .     S
C112   C113    1.392   .     D
C112   H124    1.069   .     S
C113   H125    1.069   .     S
C114   N115    1.267   .     D
C114   H126    1.033   .     S
C116   C117    1.412   .     D
C116   C121    1.366   .     S
C116   N141    1.423   .     S
C117   C118    1.332   .     S
C117   H127    1.060   .     S
C118   C119    1.360   .     D
C118   H128    1.060   .     S
C119   C120    1.411   .     S
C120   C121    1.372   .     D
C120   H129    1.060   .     S
C121   H130    1.070   .     S
N131   C132    1.327   .     D
C134   C135    1.388   .     D
C134   C139    1.396   .     S
C135   C136    1.309   .     S
C135   H148    1.044   .     S
C136   C137    1.364   .     D
C136   H149    1.078   .     S
C137   C138    1.381   .     S
C137   C140    1.413   .     S
C138   C139    1.392   .     D
C138   H150    1.069   .     S
C139   H151    1.069   .     S
C140   N141    1.267   .     D
C140   H152    1.033   .     S
C142   C143    1.412   .     S
C142   C147    1.366   .     D
C143   C144    1.332   .     D
C143   H153    1.060   .     S
C144   C145    1.360   .     S
C144   H154    1.060   .     S
C145   C67     1.455   1_565 S
C145   C146    1.411   .     D
C146   C147    1.372   .     S
C146   H155    1.060   1_565 S
C147   H156    1.070   .     S
H155   C146    1.060   1_545 S
