data_575
_audit_creation_date              2023-09-08
_audit_creation_method            'Materials Studio'
_symmetry_space_group_name_H-M    'P1'
_symmetry_Int_Tables_number       1
_symmetry_cell_setting            triclinic
loop_
_symmetry_equiv_pos_as_xyz
  x,y,z
_cell_length_a                    26.9733
_cell_length_b                    26.9733
_cell_length_c                    6.3570
_cell_angle_alpha                 90.0000
_cell_angle_beta                  90.0000
_cell_angle_gamma                 120.0000
loop_
_atom_site_label
_atom_site_type_symbol
_atom_site_fract_x
_atom_site_fract_y
_atom_site_fract_z
_atom_site_U_iso_or_equiv
_atom_site_adp_type
_atom_site_occupancy
C1     C     0.13143   0.13411   0.07991   0.00000  Uiso   1.00
C2     C     0.16533   0.16439  -0.09205   0.00000  Uiso   1.00
C3     C     0.22631   0.19046  -0.08805   0.00000  Uiso   1.00
C4     C     0.25628   0.18812   0.08841   0.00000  Uiso   1.00
C5     C     0.22153   0.15699   0.25834   0.00000  Uiso   1.00
C6     C     0.16047   0.13036   0.25540   0.00000  Uiso   1.00
C7     C     0.35614   0.24970  -0.03598   0.00000  Uiso   1.00
C8     C     0.41891   0.28165   0.00964   0.00000  Uiso   1.00
C9     C     0.45730   0.32058  -0.14033   0.00000  Uiso   1.00
C10    C     0.51756   0.35355  -0.10843   0.00000  Uiso   1.00
C11    C     0.54276   0.34820   0.07429   0.00000  Uiso   1.00
C12    C     0.50552   0.30940   0.22586   0.00000  Uiso   1.00
C13    C     0.44496   0.27705   0.19343   0.00000  Uiso   1.00
C14    C     0.63361   0.35454   0.12588   0.00000  Uiso   1.00
C15    C     0.03639   0.05349   0.10754   0.00000  Uiso   1.00
C16    C     0.12407   0.98602   0.56899   0.00000  Uiso   1.00
C17    C     0.15681   0.02201   0.73379   0.00000  Uiso   1.00
C18    C     0.21771   0.05645   0.71973   0.00000  Uiso   1.00
C19    C     0.24846   0.05648   0.54202   0.00000  Uiso   1.00
C20    C     0.21495   0.01991   0.37898   0.00000  Uiso   1.00
C21    C     0.15411   0.98505   0.39197   0.00000  Uiso   1.00
C22    C     0.34754   0.12434   0.66121   0.00000  Uiso   1.00
C23    C     0.41045   0.15032   0.62560   0.00000  Uiso   1.00
C24    C     0.44919   0.18055   0.78835   0.00000  Uiso   1.00
C25    C     0.50965   0.20521   0.76929   0.00000  Uiso   1.00
C26    C     0.53440   0.20081   0.58411   0.00000  Uiso   1.00
C27    C     0.49671   0.17144   0.41873   0.00000  Uiso   1.00
C28    C     0.43614   0.14708   0.43918   0.00000  Uiso   1.00
C29    C     0.65018   0.37019   0.60275   0.00000  Uiso   1.00
C30    C     0.03275   0.97848   0.60921   0.00000  Uiso   1.00
O31    O     0.07174   0.11234   0.07664   0.00000  Uiso   1.00
O32    O     0.60239   0.38285   0.10185   0.00000  Uiso   1.00
O33    O     0.06411   0.95051   0.58003   0.00000  Uiso   1.00
O34    O     0.59368   0.22151   0.56687   0.00000  Uiso   1.00
N35    N     0.31840   0.21624   0.10251   0.00000  Uiso   1.00
N36    N     0.98201   0.03818   0.10038   0.00000  Uiso   1.00
N37    N     0.31033   0.09045   0.52251   0.00000  Uiso   1.00
N38    N     0.61065   0.31601   0.59526   0.00000  Uiso   1.00
N39    N     0.97743   0.94308   0.60228   0.00000  Uiso   1.00
H40    H     0.14324   0.16823  -0.23060   0.00000  Uiso   1.00
H41    H     0.25064   0.21423  -0.22680   0.00000  Uiso   1.00
H42    H     0.24308   0.15447   0.40034   0.00000  Uiso   1.00
H43    H     0.13521   0.10756   0.39384   0.00000  Uiso   1.00
H44    H     0.34310   0.25787  -0.18821   0.00000  Uiso   1.00
H45    H     0.44007   0.32634  -0.28784   0.00000  Uiso   1.00
H46    H     0.54595   0.38455  -0.22785   0.00000  Uiso   1.00
H47    H     0.52426   0.30494   0.37197   0.00000  Uiso   1.00
H48    H     0.41737   0.24729   0.31727   0.00000  Uiso   1.00
H49    H     0.13438   0.02273   0.87608   0.00000  Uiso   1.00
H50    H     0.24141   0.08367   0.85376   0.00000  Uiso   1.00
H51    H     0.23708   0.01803   0.23743   0.00000  Uiso   1.00
H52    H     0.12922   0.95615   0.26251   0.00000  Uiso   1.00
H53    H     0.33414   0.13233   0.81301   0.00000  Uiso   1.00
H54    H     0.43197   0.18440   0.93854   0.00000  Uiso   1.00
H55    H     0.53783   0.22730   0.90273   0.00000  Uiso   1.00
H56    H     0.51565   0.16754   0.27223   0.00000  Uiso   1.00
H57    H     0.40830   0.12408   0.30528   0.00000  Uiso   1.00
N58    N     0.61034   0.29935   0.12485   0.00000  Uiso   1.00
C59    C     0.86589   0.99732   0.07991   0.00000  Uiso   1.00
C60    C     0.83561   0.00094  -0.09205   0.00000  Uiso   1.00
C61    C     0.80954   0.03585  -0.08805   0.00000  Uiso   1.00
C62    C     0.81188   0.06816   0.08841   0.00000  Uiso   1.00
C63    C     0.84301   0.06454   0.25834   0.00000  Uiso   1.00
C64    C     0.86964   0.03011   0.25540   0.00000  Uiso   1.00
C65    C     0.75030   0.10644  -0.03598   0.00000  Uiso   1.00
C66    C     0.71835   0.13726   0.00964   0.00000  Uiso   1.00
C67    C     0.67942   0.13672  -0.14033   0.00000  Uiso   1.00
C68    C     0.64645   0.16401  -0.10843   0.00000  Uiso   1.00
C69    C     0.65180   0.19456   0.07429   0.00000  Uiso   1.00
C70    C     0.69060   0.19612   0.22586   0.00000  Uiso   1.00
C71    C     0.72295   0.16791   0.19343   0.00000  Uiso   1.00
C72    C     0.64546   0.27907   0.12588   0.00000  Uiso   1.00
C73    C     0.94651   0.98290   0.10754   0.00000  Uiso   1.00
C74    C     0.01398   0.13805   0.56899   0.00000  Uiso   1.00
C75    C     0.97799   0.13480   0.73379   0.00000  Uiso   1.00
C76    C     0.94355   0.16126   0.71973   0.00000  Uiso   1.00
C77    C     0.94352   0.19198   0.54202   0.00000  Uiso   1.00
C78    C     0.98009   0.19504   0.37898   0.00000  Uiso   1.00
C79    C     0.01495   0.16906   0.39197   0.00000  Uiso   1.00
C80    C     0.87566   0.22320   0.66121   0.00000  Uiso   1.00
C81    C     0.84968   0.26013   0.62560   0.00000  Uiso   1.00
C82    C     0.81945   0.26864   0.78835   0.00000  Uiso   1.00
C83    C     0.79479   0.30444   0.76929   0.00000  Uiso   1.00
C84    C     0.79919   0.33359   0.58411   0.00000  Uiso   1.00
C85    C     0.82856   0.32527   0.41873   0.00000  Uiso   1.00
C86    C     0.85292   0.28906   0.43918   0.00000  Uiso   1.00
C87    C     0.62981   0.27999   0.60275   0.00000  Uiso   1.00
C88    C     0.02152   0.05427   0.60921   0.00000  Uiso   1.00
O89    O     0.88766   0.95940   0.07664   0.00000  Uiso   1.00
O90    O     0.61715   0.21954   0.10185   0.00000  Uiso   1.00
O91    O     0.04949   0.11360   0.58003   0.00000  Uiso   1.00
O92    O     0.77849   0.37217   0.56687   0.00000  Uiso   1.00
N93    N     0.78376   0.10216   0.10251   0.00000  Uiso   1.00
N94    N     0.96182   0.94383   0.10038   0.00000  Uiso   1.00
N95    N     0.90955   0.21988   0.52251   0.00000  Uiso   1.00
N96    N     0.68399   0.29464   0.59526   0.00000  Uiso   1.00
N97    N     0.05692   0.03435   0.60228   0.00000  Uiso   1.00
H98    H     0.83177   0.97501  -0.23060   0.00000  Uiso   1.00
H99    H     0.78577   0.03641  -0.22680   0.00000  Uiso   1.00
H100   H     0.84553   0.08861   0.40034   0.00000  Uiso   1.00
H101   H     0.89244   0.02765   0.39384   0.00000  Uiso   1.00
H102   H     0.74213   0.08523  -0.18821   0.00000  Uiso   1.00
H103   H     0.67366   0.11373  -0.28784   0.00000  Uiso   1.00
H104   H     0.61545   0.16140  -0.22785   0.00000  Uiso   1.00
H105   H     0.69506   0.21932   0.37197   0.00000  Uiso   1.00
H106   H     0.75271   0.17008   0.31727   0.00000  Uiso   1.00
H107   H     0.97727   0.11165   0.87608   0.00000  Uiso   1.00
H108   H     0.91633   0.15774   0.85376   0.00000  Uiso   1.00
H109   H     0.98197   0.21905   0.23743   0.00000  Uiso   1.00
H110   H     0.04385   0.17307   0.26251   0.00000  Uiso   1.00
H111   H     0.86767   0.20181   0.81301   0.00000  Uiso   1.00
H112   H     0.81560   0.24757   0.93854   0.00000  Uiso   1.00
H113   H     0.77270   0.31053   0.90273   0.00000  Uiso   1.00
H114   H     0.83246   0.34811   0.27223   0.00000  Uiso   1.00
H115   H     0.87592   0.28422   0.30528   0.00000  Uiso   1.00
N116   N     0.70065   0.31099   0.12485   0.00000  Uiso   1.00
C117   C     0.00268   0.86857   0.07991   0.00000  Uiso   1.00
C118   C     0.99906   0.83467  -0.09205   0.00000  Uiso   1.00
C119   C     0.96415   0.77369  -0.08805   0.00000  Uiso   1.00
C120   C     0.93184   0.74372   0.08841   0.00000  Uiso   1.00
C121   C     0.93546   0.77847   0.25834   0.00000  Uiso   1.00
C122   C     0.96989   0.83953   0.25540   0.00000  Uiso   1.00
C123   C     0.89356   0.64386  -0.03598   0.00000  Uiso   1.00
C124   C     0.86274   0.58109   0.00964   0.00000  Uiso   1.00
C125   C     0.86328   0.54270  -0.14033   0.00000  Uiso   1.00
C126   C     0.83599   0.48244  -0.10843   0.00000  Uiso   1.00
C127   C     0.80544   0.45724   0.07429   0.00000  Uiso   1.00
C128   C     0.80388   0.49448   0.22586   0.00000  Uiso   1.00
C129   C     0.83209   0.55504   0.19343   0.00000  Uiso   1.00
C130   C     0.72093   0.36639   0.12588   0.00000  Uiso   1.00
C131   C     0.01710   0.96361   0.10754   0.00000  Uiso   1.00
C132   C     0.86195   0.87593   0.56899   0.00000  Uiso   1.00
C133   C     0.86520   0.84319   0.73379   0.00000  Uiso   1.00
C134   C     0.83874   0.78229   0.71973   0.00000  Uiso   1.00
C135   C     0.80802   0.75154   0.54202   0.00000  Uiso   1.00
C136   C     0.80496   0.78505   0.37898   0.00000  Uiso   1.00
C137   C     0.83094   0.84589   0.39197   0.00000  Uiso   1.00
C138   C     0.77680   0.65246   0.66121   0.00000  Uiso   1.00
C139   C     0.73987   0.58955   0.62560   0.00000  Uiso   1.00
C140   C     0.73136   0.55081   0.78835   0.00000  Uiso   1.00
C141   C     0.69556   0.49035   0.76929   0.00000  Uiso   1.00
C142   C     0.66641   0.46560   0.58411   0.00000  Uiso   1.00
C143   C     0.67473   0.50329   0.41873   0.00000  Uiso   1.00
C144   C     0.71094   0.56386   0.43918   0.00000  Uiso   1.00
C145   C     0.72001   0.34982   0.60275   0.00000  Uiso   1.00
C146   C     0.94573   0.96725   0.60921   0.00000  Uiso   1.00
O147   O     0.04060   0.92826   0.07664   0.00000  Uiso   1.00
O148   O     0.78046   0.39761   0.10185   0.00000  Uiso   1.00
O149   O     0.88640   0.93589   0.58003   0.00000  Uiso   1.00
O150   O     0.62783   0.40632   0.56687   0.00000  Uiso   1.00
N151   N     0.89784   0.68160   0.10251   0.00000  Uiso   1.00
N152   N     0.05617   0.01799   0.10038   0.00000  Uiso   1.00
N153   N     0.78012   0.68967   0.52251   0.00000  Uiso   1.00
N154   N     0.70536   0.38935   0.59526   0.00000  Uiso   1.00
N155   N     0.96565   0.02257   0.60228   0.00000  Uiso   1.00
H156   H     0.02499   0.85676  -0.23060   0.00000  Uiso   1.00
H157   H     0.96359   0.74936  -0.22680   0.00000  Uiso   1.00
H158   H     0.91139   0.75692   0.40034   0.00000  Uiso   1.00
H159   H     0.97235   0.86479   0.39384   0.00000  Uiso   1.00
H160   H     0.91477   0.65690  -0.18821   0.00000  Uiso   1.00
H161   H     0.88627   0.55993  -0.28784   0.00000  Uiso   1.00
H162   H     0.83860   0.45405  -0.22785   0.00000  Uiso   1.00
H163   H     0.78068   0.47574   0.37197   0.00000  Uiso   1.00
H164   H     0.82992   0.58263   0.31727   0.00000  Uiso   1.00
H165   H     0.88835   0.86562   0.87608   0.00000  Uiso   1.00
H166   H     0.84226   0.75859   0.85376   0.00000  Uiso   1.00
H167   H     0.78095   0.76292   0.23743   0.00000  Uiso   1.00
H168   H     0.82693   0.87078   0.26251   0.00000  Uiso   1.00
H169   H     0.79819   0.66586   0.81301   0.00000  Uiso   1.00
H170   H     0.75243   0.56803   0.93854   0.00000  Uiso   1.00
H171   H     0.68947   0.46217   0.90273   0.00000  Uiso   1.00
H172   H     0.65189   0.48435   0.27223   0.00000  Uiso   1.00
H173   H     0.71578   0.59170   0.30528   0.00000  Uiso   1.00
N174   N     0.68901   0.38966   0.12485   0.00000  Uiso   1.00
loop_
_geom_bond_atom_site_label_1
_geom_bond_atom_site_label_2
_geom_bond_distance
_geom_bond_site_symmetry_2
_ccdc_geom_bond_type
C1     C2      1.397   .     D
C1     C6      1.396   .     S
C1     O31     1.411   .     S
C2     C3      1.430   .     S
C2     H40     1.097   .     S
C3     C4      1.402   .     D
C3     H41     1.095   .     S
C4     C5      1.401   .     S
C4     N35     1.456   .     S
C5     C6      1.430   .     D
C5     H42     1.094   .     S
C6     H43     1.095   .     S
C7     C8      1.495   .     S
C7     N35     1.307   .     D
C7     H44     1.089   .     S
C8     C9      1.413   .     D
C8     C13     1.400   .     S
C9     C10     1.424   .     S
C9     H45     1.092   .     S
C10    C11     1.389   .     D
C10    H46     1.105   .     S
C11    C12     1.408   .     S
C11    O32     1.410   .     S
C12    C13     1.431   .     D
C12    H47     1.092   .     S
C13    H48     1.105   .     S
C14    O32     1.400   .     S
C14    N58     1.295   .     S
C14    N174    1.309   .     D
C15    O31     1.398   .     S
C15    N36     1.311   1_455 S
C15    N152    1.309   .     D
C16    C17     1.401   1_565 D
C16    C21     1.395   .     S
C16    O33     1.410   .     S
C17    C16     1.401   1_545 D
C17    C18     1.429   .     S
C17    H49     1.094   .     S
C18    C19     1.401   .     D
C18    H50     1.097   .     S
C19    C20     1.405   .     S
C19    N37     1.453   .     S
C20    C21     1.429   1_545 D
C20    H51     1.095   .     S
C21    C20     1.429   1_565 D
C21    H52     1.101   .     S
C22    C23     1.494   .     S
C22    N37     1.305   .     D
C22    H53     1.089   .     S
C23    C24     1.405   .     D
C23    C28     1.397   .     S
C24    C25     1.425   .     S
C24    H54     1.089   .     S
C25    C26     1.387   .     D
C25    H55     1.095   .     S
C26    C27     1.400   .     S
C26    O34     1.410   .     S
C27    C28     1.430   .     D
C27    H56     1.092   .     S
C28    H57     1.099   .     S
C29    N38     1.310   .     D
C29    O150    1.397   .     S
C29    N154    1.310   .     S
C30    O33     1.399   .     S
C30    N39     1.310   1_455 D
C30    N97     1.310   1_565 S
O34    C87     1.397   .     S
N36    C15     1.311   1_655 S
N36    C73     1.309   1_545 D
N38    C87     1.310   .     S
N39    C30     1.310   1_655 D
N39    C146    1.310   .     S
N58    C72     1.309   .     D
C59    C60     1.397   1_565 S
C59    C64     1.396   1_565 D
C59    O89     1.411   .     S
C60    C59     1.397   1_545 S
C60    C61     1.430   .     D
C60    H98     1.097   1_545 S
C61    C62     1.402   .     S
C61    H99     1.095   .     S
C62    C63     1.401   .     D
C62    N93     1.456   .     S
C63    C64     1.430   .     S
C63    H100    1.094   .     S
C64    C59     1.396   1_545 D
C64    H101    1.095   .     S
C65    C66     1.495   .     S
C65    N93     1.307   .     D
C65    H102    1.089   .     S
C66    C67     1.413   .     S
C66    C71     1.400   .     D
C67    C68     1.424   .     D
C67    H103    1.092   .     S
C68    C69     1.389   .     S
C68    H104    1.105   .     S
C69    C70     1.408   .     D
C69    O90     1.410   .     S
C70    C71     1.431   .     S
C70    H105    1.092   .     S
C71    H106    1.105   .     S
C72    O90     1.400   .     S
C72    N116    1.295   .     S
C73    N36     1.309   1_565 D
C73    O89     1.398   .     S
C73    N94     1.311   .     S
C74    C75     1.401   1_455 D
C74    C79     1.395   .     S
C74    O91     1.410   .     S
C75    C74     1.401   1_655 D
C75    C76     1.429   .     S
C75    H107    1.094   .     S
C76    C77     1.401   .     D
C76    H108    1.097   .     S
C77    C78     1.405   .     S
C77    N95     1.453   .     S
C78    C79     1.429   1_655 D
C78    H109    1.095   .     S
C79    C78     1.429   1_455 D
C79    H110    1.101   .     S
C80    C81     1.494   .     S
C80    N95     1.305   .     D
C80    H111    1.089   .     S
C81    C82     1.405   .     D
C81    C86     1.397   .     S
C82    C83     1.425   .     S
C82    H112    1.089   .     S
C83    C84     1.387   .     D
C83    H113    1.095   .     S
C84    C85     1.400   .     S
C84    O92     1.410   .     S
C85    C86     1.430   .     D
C85    H114    1.092   .     S
C86    H115    1.099   .     S
C87    N96     1.310   .     D
C88    O91     1.399   .     S
C88    N97     1.310   .     D
C88    N155    1.310   1_455 S
O92    C145    1.397   .     S
N94    C131    1.309   1_655 D
N96    C145    1.310   .     S
N97    C30     1.310   1_545 S
H98    C60     1.097   1_565 S
N116   C130    1.309   .     D
C117   C118    1.397   1_455 D
C117   C122    1.396   1_455 S
C117   O147    1.411   .     S
C118   C117    1.397   1_655 D
C118   C119    1.430   .     S
C118   H156    1.097   1_655 S
C119   C120    1.402   .     D
C119   H157    1.095   .     S
C120   C121    1.401   .     S
C120   N151    1.456   .     S
C121   C122    1.430   .     D
C121   H158    1.094   .     S
C122   C117    1.396   1_655 S
C122   H159    1.095   .     S
C123   C124    1.495   .     S
C123   N151    1.307   .     D
C123   H160    1.089   .     S
C124   C125    1.413   .     D
C124   C129    1.400   .     S
C125   C126    1.424   .     S
C125   H161    1.092   .     S
C126   C127    1.389   .     D
C126   H162    1.105   .     S
C127   C128    1.408   .     S
C127   O148    1.410   .     S
C128   C129    1.431   .     D
C128   H163    1.092   .     S
C129   H164    1.105   .     S
C130   O148    1.400   .     S
C130   N174    1.295   .     S
C131   N94     1.309   1_455 D
C131   O147    1.398   .     S
C131   N152    1.311   1_565 S
C132   C133    1.401   .     D
C132   C137    1.395   .     S
C132   O149    1.410   .     S
C133   C134    1.429   .     S
C133   H165    1.094   .     S
C134   C135    1.401   .     D
C134   H166    1.097   .     S
C135   C136    1.405   .     S
C135   N153    1.453   .     S
C136   C137    1.429   .     D
C136   H167    1.095   .     S
C137   H168    1.101   .     S
C138   C139    1.494   .     S
C138   N153    1.305   .     D
C138   H169    1.089   .     S
C139   C140    1.405   .     D
C139   C144    1.397   .     S
C140   C141    1.425   .     S
C140   H170    1.089   .     S
C141   C142    1.387   .     D
C141   H171    1.095   .     S
C142   C143    1.400   .     S
C142   O150    1.410   .     S
C143   C144    1.430   .     D
C143   H172    1.092   .     S
C144   H173    1.099   .     S
C145   N154    1.310   .     D
C146   O149    1.399   .     S
C146   N155    1.310   1_565 D
N152   C131    1.311   1_545 S
N155   C146    1.310   1_545 D
N155   C88     1.310   1_655 S
H156   C118    1.097   1_455 S
