data_576
_audit_creation_date              2023-09-08
_audit_creation_method            'Materials Studio'
_symmetry_space_group_name_H-M    'P1'
_symmetry_Int_Tables_number       1
_symmetry_cell_setting            triclinic
loop_
_symmetry_equiv_pos_as_xyz
  x,y,z
_cell_length_a                    37.3065
_cell_length_b                    37.3065
_cell_length_c                    6.6266
_cell_angle_alpha                 90.0000
_cell_angle_beta                  90.0000
_cell_angle_gamma                 120.0000
loop_
_atom_site_label
_atom_site_type_symbol
_atom_site_fract_x
_atom_site_fract_y
_atom_site_fract_z
_atom_site_U_iso_or_equiv
_atom_site_adp_type
_atom_site_occupancy
C1     C     0.75671   0.32157   0.32421   0.00000  Uiso   1.00
C2     C     0.77751   0.31903   0.15551   0.00000  Uiso   1.00
C3     C     0.82041   0.33717   0.16246   0.00000  Uiso   1.00
C4     C     0.84212   0.35722   0.33939   0.00000  Uiso   1.00
C5     C     0.81994   0.35851   0.50811   0.00000  Uiso   1.00
C6     C     0.77720   0.34113   0.50171   0.00000  Uiso   1.00
C7     C     0.90901   0.39343   0.20970   0.00000  Uiso   1.00
C8     C     0.95381   0.41263   0.22686   0.00000  Uiso   1.00
C9     C     0.97908   0.43578   0.06419   0.00000  Uiso   1.00
C10    C     0.02183   0.45699   0.08280   0.00000  Uiso   1.00
C11    C     0.69052   0.31764   0.32425   0.00000  Uiso   1.00
C12    C     0.76408   0.42630   0.80863   0.00000  Uiso   1.00
C13    C     0.78692   0.42380   0.96833   0.00000  Uiso   1.00
C14    C     0.82916   0.43934   0.93984   0.00000  Uiso   1.00
C15    C     0.84791   0.45688   0.75351   0.00000  Uiso   1.00
C16    C     0.82355   0.45788   0.59446   0.00000  Uiso   1.00
C17    C     0.78167   0.44338   0.62290   0.00000  Uiso   1.00
C18    C     0.91685   0.49468   0.84926   0.00000  Uiso   1.00
C19    C     0.96096   0.51306   0.81149   0.00000  Uiso   1.00
C20    C     0.98936   0.54122   0.95186   0.00000  Uiso   1.00
C21    C     0.03144   0.56147   0.91203   0.00000  Uiso   1.00
C22    C     0.67749   0.30555   0.83406   0.00000  Uiso   1.00
O23    O     0.71304   0.29861   0.31741   0.00000  Uiso   1.00
O24    O     0.72153   0.41284   0.83089   0.00000  Uiso   1.00
N25    N     0.88497   0.37531   0.36081   0.00000  Uiso   1.00
N26    N     0.64959   0.29082   0.32522   0.00000  Uiso   1.00
N27    N     0.88997   0.47305   0.71356   0.00000  Uiso   1.00
N28    N     0.70811   0.34510   0.83440   0.00000  Uiso   1.00
H29    H     0.75991   0.30263   0.02193   0.00000  Uiso   1.00
H30    H     0.83696   0.33436   0.03329   0.00000  Uiso   1.00
H31    H     0.83716   0.37418   0.64386   0.00000  Uiso   1.00
H32    H     0.76017   0.34288   0.63148   0.00000  Uiso   1.00
H33    H     0.89715   0.39692   0.06242   0.00000  Uiso   1.00
H34    H     0.96480   0.43787  -0.07594   0.00000  Uiso   1.00
H35    H     0.77177   0.40913   1.11001   0.00000  Uiso   1.00
H36    H     0.84745   0.43665   1.06129   0.00000  Uiso   1.00
H37    H     0.83833   0.47084   0.44995   0.00000  Uiso   1.00
H38    H     0.76232   0.44419   0.50223   0.00000  Uiso   1.00
H39    H     0.90784   0.50199   0.99587   0.00000  Uiso   1.00
H40    H     0.97792   0.54724   1.09224   0.00000  Uiso   1.00
H41    H     0.43418   0.95825  -0.03990   0.00000  Uiso   1.00
H42    H     0.53004   0.94601   1.01649   0.00000  Uiso   1.00
C43    C     0.58982   0.56216   0.40752   0.00000  Uiso   1.00
C44    C     0.54462   0.58499   0.26515   0.00000  Uiso   1.00
C45    C     0.56863   0.58369   0.42620   0.00000  Uiso   1.00
H46    H     0.60800   0.56029   0.53159   0.00000  Uiso   1.00
H47    H     0.56993   0.59934   0.56780   0.00000  Uiso   1.00
C48    C     0.52094   0.60597   0.29230   0.00000  Uiso   1.00
N49    N     0.50063   0.61014   0.14559   0.00000  Uiso   1.00
C50    C     0.47821   0.63069   0.17229   0.00000  Uiso   1.00
C51    C     0.48364   0.65770   0.33293   0.00000  Uiso   1.00
C52    C     0.46048   0.67746   0.34146   0.00000  Uiso   1.00
C53    C     0.43193   0.67028   0.18882   0.00000  Uiso   1.00
C54    C     0.42586   0.64403   0.02692   0.00000  Uiso   1.00
C55    C     0.44924   0.62442   0.02055   0.00000  Uiso   1.00
H56    H     0.46435   0.69863   0.46370   0.00000  Uiso   1.00
H57    H     0.44572   0.60382  -0.10395   0.00000  Uiso   1.00
H58    H     0.50671   0.66426   0.44972   0.00000  Uiso   1.00
H59    H     0.52102   0.61717   0.44691   0.00000  Uiso   1.00
C60    C     0.52900   0.02443   0.63226   0.00000  Uiso   1.00
C61    C     0.50665   0.98226   0.59374   0.00000  Uiso   1.00
C62    C     0.44641   0.49246   0.73103   0.00000  Uiso   1.00
H63    H     0.51771   0.47085   0.52625   0.00000  Uiso   1.00
H64    H     0.48200   0.51102   0.45387   0.00000  Uiso   1.00
C65    C     0.42394   0.51386   0.68232   0.00000  Uiso   1.00
N66    N     0.39329   0.50876   0.79249   0.00000  Uiso   1.00
H67    H     0.43469   0.53394   0.54728   0.00000  Uiso   1.00
C68    C     0.37043   0.52812   0.74815   0.00000  Uiso   1.00
C69    C     0.37181   0.54821   0.56546   0.00000  Uiso   1.00
C70    C     0.34879   0.56791   0.54177   0.00000  Uiso   1.00
C71    C     0.32430   0.56722   0.70232   0.00000  Uiso   1.00
C72    C     0.32108   0.54647   0.88165   0.00000  Uiso   1.00
C73    C     0.34410   0.52681   0.90326   0.00000  Uiso   1.00
H74    H     0.39094   0.54870   0.43996   0.00000  Uiso   1.00
H75    H     0.30129   0.54650   1.00207   0.00000  Uiso   1.00
H76    H     0.34291   0.51056   1.04211   0.00000  Uiso   1.00
H77    H     0.41593   0.76608   0.40215   0.00000  Uiso   1.00
H78    H     0.36038   0.76447  -0.09346   0.00000  Uiso   1.00
O79    O     0.28630   0.70071   0.68545   0.00000  Uiso   1.00
O80    O     0.30465   0.71826   0.19553   0.00000  Uiso   1.00
C81    C     0.37236   0.67929   0.18850   0.00000  Uiso   1.00
N82    N     0.34712   0.63851   0.18773   0.00000  Uiso   1.00
C83    C     0.37285   0.69069   0.68124   0.00000  Uiso   1.00
N84    N     0.35897   0.64989   0.68101   0.00000  Uiso   1.00
C85    C     0.67843   0.43514   0.32421   0.00000  Uiso   1.00
C86    C     0.68097   0.45848   0.15551   0.00000  Uiso   1.00
C87    C     0.66283   0.48324   0.16246   0.00000  Uiso   1.00
C88    C     0.64278   0.48490   0.33939   0.00000  Uiso   1.00
C89    C     0.64149   0.46143   0.50811   0.00000  Uiso   1.00
C90    C     0.65887   0.43607   0.50171   0.00000  Uiso   1.00
C91    C     0.60657   0.51558   0.20970   0.00000  Uiso   1.00
C92    C     0.58737   0.54118   0.22686   0.00000  Uiso   1.00
C93    C     0.56422   0.54330   0.06419   0.00000  Uiso   1.00
C94    C     0.54301   0.56484   0.08280   0.00000  Uiso   1.00
C95    C     0.68236   0.37288   0.32425   0.00000  Uiso   1.00
C96    C     0.57370   0.33778   0.80863   0.00000  Uiso   1.00
C97    C     0.57620   0.36312   0.96833   0.00000  Uiso   1.00
C98    C     0.56066   0.38982   0.93984   0.00000  Uiso   1.00
C99    C     0.54312   0.39103   0.75351   0.00000  Uiso   1.00
C100   C     0.54212   0.36567   0.59446   0.00000  Uiso   1.00
C101   C     0.55662   0.33829   0.62290   0.00000  Uiso   1.00
C102   C     0.50532   0.42217   0.84926   0.00000  Uiso   1.00
C103   C     0.48694   0.44790   0.81149   0.00000  Uiso   1.00
C104   C     0.45878   0.44814   0.95186   0.00000  Uiso   1.00
C105   C     0.43853   0.46997   0.91203   0.00000  Uiso   1.00
C106   C     0.69445   0.37194   0.83406   0.00000  Uiso   1.00
O107   O     0.70139   0.41443   0.31741   0.00000  Uiso   1.00
O108   O     0.58716   0.30869   0.83089   0.00000  Uiso   1.00
N109   N     0.62469   0.50966   0.36081   0.00000  Uiso   1.00
N110   N     0.70918   0.35877   0.32522   0.00000  Uiso   1.00
N111   N     0.52695   0.41692   0.71356   0.00000  Uiso   1.00
N112   N     0.65490   0.36301   0.83440   0.00000  Uiso   1.00
H113   H     0.69737   0.45728   0.02193   0.00000  Uiso   1.00
H114   H     0.66564   0.50260   0.03329   0.00000  Uiso   1.00
H115   H     0.62582   0.46298   0.64386   0.00000  Uiso   1.00
H116   H     0.65712   0.41729   0.63148   0.00000  Uiso   1.00
H117   H     0.60308   0.50023   0.06242   0.00000  Uiso   1.00
H118   H     0.56213   0.52693  -0.07594   0.00000  Uiso   1.00
H119   H     0.59087   0.36264   1.11001   0.00000  Uiso   1.00
H120   H     0.56335   0.41080   1.06129   0.00000  Uiso   1.00
H121   H     0.52916   0.36749   0.44995   0.00000  Uiso   1.00
H122   H     0.55581   0.31813   0.50223   0.00000  Uiso   1.00
H123   H     0.49801   0.40585   0.99587   0.00000  Uiso   1.00
H124   H     0.45276   0.43068   1.09224   0.00000  Uiso   1.00
H125   H     0.04175   0.47593  -0.03990   0.00000  Uiso   1.00
H126   H     0.05399   0.58403   1.01649   0.00000  Uiso   1.00
C127   C     0.43784   0.02766   0.40752   0.00000  Uiso   1.00
C128   C     0.41501   0.95963   0.26515   0.00000  Uiso   1.00
C129   C     0.41631   0.98494   0.42620   0.00000  Uiso   1.00
H130   H     0.43971   0.04771   0.53159   0.00000  Uiso   1.00
H131   H     0.40066   0.97059   0.56780   0.00000  Uiso   1.00
C132   C     0.39403   0.91497   0.29230   0.00000  Uiso   1.00
N133   N     0.38986   0.89049   0.14559   0.00000  Uiso   1.00
C134   C     0.36931   0.84752   0.17229   0.00000  Uiso   1.00
C135   C     0.34230   0.82594   0.33293   0.00000  Uiso   1.00
C136   C     0.32254   0.78302   0.34146   0.00000  Uiso   1.00
C137   C     0.32972   0.76165   0.18882   0.00000  Uiso   1.00
C138   C     0.35597   0.78183   0.02692   0.00000  Uiso   1.00
C139   C     0.37558   0.82482   0.02055   0.00000  Uiso   1.00
H140   H     0.30137   0.76572   0.46370   0.00000  Uiso   1.00
H141   H     0.39618   0.84190  -0.10395   0.00000  Uiso   1.00
H142   H     0.33574   0.84245   0.44972   0.00000  Uiso   1.00
H143   H     0.38283   0.90385   0.44691   0.00000  Uiso   1.00
C144   C     0.97557   0.50457   0.63226   0.00000  Uiso   1.00
C145   C     0.01774   0.52439   0.59374   0.00000  Uiso   1.00
C146   C     0.50754   0.95395   0.73103   0.00000  Uiso   1.00
H147   H     0.52915   0.04686   0.52625   0.00000  Uiso   1.00
H148   H     0.48898   0.97098   0.45387   0.00000  Uiso   1.00
C149   C     0.48614   0.91008   0.68232   0.00000  Uiso   1.00
N150   N     0.49124   0.88453   0.79249   0.00000  Uiso   1.00
H151   H     0.46606   0.90075   0.54728   0.00000  Uiso   1.00
C152   C     0.47188   0.84231   0.74815   0.00000  Uiso   1.00
C153   C     0.45179   0.82360   0.56546   0.00000  Uiso   1.00
C154   C     0.43209   0.78088   0.54177   0.00000  Uiso   1.00
C155   C     0.43278   0.75708   0.70232   0.00000  Uiso   1.00
C156   C     0.45353   0.77461   0.88165   0.00000  Uiso   1.00
C157   C     0.47319   0.81729   0.90326   0.00000  Uiso   1.00
H158   H     0.45130   0.84224   0.43996   0.00000  Uiso   1.00
H159   H     0.45350   0.75479   1.00207   0.00000  Uiso   1.00
H160   H     0.48944   0.83235   1.04211   0.00000  Uiso   1.00
H161   H     0.23392   0.64985   0.40215   0.00000  Uiso   1.00
H162   H     0.23553   0.59591  -0.09346   0.00000  Uiso   1.00
O163   O     0.29929   0.58559   0.68545   0.00000  Uiso   1.00
O164   O     0.28174   0.58639   0.19553   0.00000  Uiso   1.00
C165   C     0.32071   0.69307   0.18850   0.00000  Uiso   1.00
N166   N     0.36149   0.70861   0.18773   0.00000  Uiso   1.00
C167   C     0.30931   0.68216   0.68124   0.00000  Uiso   1.00
N168   N     0.35011   0.70908   0.68101   0.00000  Uiso   1.00
C169   C     0.56486   0.24329   0.32421   0.00000  Uiso   1.00
C170   C     0.54152   0.22249   0.15551   0.00000  Uiso   1.00
C171   C     0.51676   0.17959   0.16246   0.00000  Uiso   1.00
C172   C     0.51510   0.15788   0.33939   0.00000  Uiso   1.00
C173   C     0.53857   0.18006   0.50811   0.00000  Uiso   1.00
C174   C     0.56393   0.22280   0.50171   0.00000  Uiso   1.00
C175   C     0.48442   0.09099   0.20970   0.00000  Uiso   1.00
C176   C     0.45882   0.04619   0.22686   0.00000  Uiso   1.00
C177   C     0.45670   0.02092   0.06419   0.00000  Uiso   1.00
C178   C     0.43516   0.97817   0.08280   0.00000  Uiso   1.00
C179   C     0.62712   0.30948   0.32425   0.00000  Uiso   1.00
C180   C     0.66222   0.23592   0.80863   0.00000  Uiso   1.00
C181   C     0.63688   0.21308   0.96833   0.00000  Uiso   1.00
C182   C     0.61018   0.17084   0.93984   0.00000  Uiso   1.00
C183   C     0.60897   0.15209   0.75351   0.00000  Uiso   1.00
C184   C     0.63433   0.17645   0.59446   0.00000  Uiso   1.00
C185   C     0.66171   0.21833   0.62290   0.00000  Uiso   1.00
C186   C     0.57783   0.08315   0.84926   0.00000  Uiso   1.00
C187   C     0.55210   0.03904   0.81149   0.00000  Uiso   1.00
C188   C     0.55186   0.01064   0.95186   0.00000  Uiso   1.00
C189   C     0.53003   0.96856   0.91203   0.00000  Uiso   1.00
C190   C     0.62806   0.32251   0.83406   0.00000  Uiso   1.00
O191   O     0.58557   0.28696   0.31741   0.00000  Uiso   1.00
O192   O     0.69131   0.27847   0.83089   0.00000  Uiso   1.00
N193   N     0.49034   0.11503   0.36081   0.00000  Uiso   1.00
N194   N     0.64123   0.35041   0.32522   0.00000  Uiso   1.00
N195   N     0.58308   0.11003   0.71356   0.00000  Uiso   1.00
N196   N     0.63699   0.29189   0.83440   0.00000  Uiso   1.00
H197   H     0.54272   0.24009   0.02193   0.00000  Uiso   1.00
H198   H     0.49740   0.16304   0.03329   0.00000  Uiso   1.00
H199   H     0.53702   0.16284   0.64386   0.00000  Uiso   1.00
H200   H     0.58271   0.23983   0.63148   0.00000  Uiso   1.00
H201   H     0.49977   0.10285   0.06242   0.00000  Uiso   1.00
H202   H     0.47307   0.03520  -0.07594   0.00000  Uiso   1.00
H203   H     0.63736   0.22823   1.11001   0.00000  Uiso   1.00
H204   H     0.58920   0.15255   1.06129   0.00000  Uiso   1.00
H205   H     0.63251   0.16167   0.44995   0.00000  Uiso   1.00
H206   H     0.68187   0.23768   0.50223   0.00000  Uiso   1.00
H207   H     0.59415   0.09216   0.99587   0.00000  Uiso   1.00
H208   H     0.56932   0.02208   1.09224   0.00000  Uiso   1.00
H209   H     0.52407   0.56582  -0.03990   0.00000  Uiso   1.00
H210   H     0.41597   0.46996   1.01649   0.00000  Uiso   1.00
C211   C     0.97234   0.41018   0.40752   0.00000  Uiso   1.00
C212   C     0.04037   0.45538   0.26515   0.00000  Uiso   1.00
C213   C     0.01506   0.43137   0.42620   0.00000  Uiso   1.00
H214   H     0.95229   0.39200   0.53159   0.00000  Uiso   1.00
H215   H     0.02941   0.43007   0.56780   0.00000  Uiso   1.00
C216   C     0.08503   0.47906   0.29230   0.00000  Uiso   1.00
N217   N     0.10951   0.49937   0.14559   0.00000  Uiso   1.00
C218   C     0.15248   0.52179   0.17229   0.00000  Uiso   1.00
C219   C     0.17406   0.51636   0.33293   0.00000  Uiso   1.00
C220   C     0.21698   0.53952   0.34146   0.00000  Uiso   1.00
C221   C     0.23835   0.56807   0.18882   0.00000  Uiso   1.00
C222   C     0.21817   0.57414   0.02692   0.00000  Uiso   1.00
C223   C     0.17518   0.55076   0.02055   0.00000  Uiso   1.00
H224   H     0.23428   0.53565   0.46370   0.00000  Uiso   1.00
H225   H     0.15810   0.55428  -0.10395   0.00000  Uiso   1.00
H226   H     0.15755   0.49329   0.44972   0.00000  Uiso   1.00
H227   H     0.09615   0.47898   0.44691   0.00000  Uiso   1.00
C228   C     0.49543   0.47100   0.63226   0.00000  Uiso   1.00
C229   C     0.47561   0.49335   0.59374   0.00000  Uiso   1.00
C230   C     0.04605   0.55359   0.73103   0.00000  Uiso   1.00
H231   H     0.95314   0.48229   0.52625   0.00000  Uiso   1.00
H232   H     0.02902   0.51800   0.45387   0.00000  Uiso   1.00
C233   C     0.08992   0.57606   0.68232   0.00000  Uiso   1.00
N234   N     0.11547   0.60671   0.79249   0.00000  Uiso   1.00
H235   H     0.09925   0.56531   0.54728   0.00000  Uiso   1.00
C236   C     0.15769   0.62957   0.74815   0.00000  Uiso   1.00
C237   C     0.17640   0.62819   0.56546   0.00000  Uiso   1.00
C238   C     0.21912   0.65121   0.54177   0.00000  Uiso   1.00
C239   C     0.24292   0.67570   0.70232   0.00000  Uiso   1.00
C240   C     0.22539   0.67892   0.88165   0.00000  Uiso   1.00
C241   C     0.18271   0.65590   0.90326   0.00000  Uiso   1.00
H242   H     0.15776   0.60906   0.43996   0.00000  Uiso   1.00
H243   H     0.24521   0.69871   1.00207   0.00000  Uiso   1.00
H244   H     0.16765   0.65709   1.04211   0.00000  Uiso   1.00
H245   H     0.35015   0.58407   0.40215   0.00000  Uiso   1.00
H246   H     0.40409   0.63962  -0.09346   0.00000  Uiso   1.00
O247   O     0.41441   0.71370   0.68545   0.00000  Uiso   1.00
O248   O     0.41361   0.69535   0.19553   0.00000  Uiso   1.00
C249   C     0.30693   0.62764   0.18850   0.00000  Uiso   1.00
N250   N     0.29139   0.65288   0.18773   0.00000  Uiso   1.00
C251   C     0.31784   0.62715   0.68124   0.00000  Uiso   1.00
N252   N     0.29092   0.64103   0.68101   0.00000  Uiso   1.00
loop_
_geom_bond_atom_site_label_1
_geom_bond_atom_site_label_2
_geom_bond_distance
_geom_bond_site_symmetry_2
_ccdc_geom_bond_type
C1     C2      1.391   .     D
C1     C6      1.394   .     S
C1     O23     1.412   .     S
C2     C3      1.392   .     S
C2     H29     1.090   .     S
C3     C4      1.409   .     D
C3     H30     1.091   .     S
C4     C5      1.406   .     S
C4     N25     1.397   .     S
C5     C6      1.390   .     D
C5     H31     1.090   .     S
C6     H32     1.090   .     S
C7     C8      1.457   .     S
C7     N25     1.288   .     D
C7     H33     1.106   .     S
C8     C9      1.408   .     D
C8     C211    1.408   .     S
C9     C10     1.387   1_655 S
C9     H34     1.093   .     S
C10    C9      1.387   1_455 S
C10    H125    1.090   .     S
C10    C212    1.408   .     D
C11    O23     1.345   .     S
C11    N26     1.343   .     S
C11    N110    1.331   .     D
C12    C13     1.391   .     D
C12    C17     1.390   .     S
C12    O24     1.413   .     S
C13    C14     1.393   .     S
C13    H35     1.091   .     S
C14    C15     1.409   .     D
C14    H36     1.092   .     S
C15    C16     1.404   .     S
C15    N27     1.396   .     S
C16    C17     1.387   .     D
C16    H37     1.090   .     S
C17    H38     1.088   .     S
C18    C19     1.453   .     S
C18    N27     1.287   .     D
C18    H39     1.106   .     S
C19    C20     1.407   .     S
C19    C144    1.407   .     D
C20    C21     1.385   1_655 D
C20    H40     1.093   .     S
C21    C20     1.385   1_455 D
C21    H126    1.090   .     S
C21    C230    1.408   .     S
C22    N28     1.340   .     S
C22    O192    1.345   .     S
C22    N196    1.331   .     D
O24    C106    1.345   .     S
N26    C179    1.331   .     D
N28    C106    1.331   .     D
H41    C178    1.090   .     S
H42    C189    1.090   .     S
C43    C45     1.386   .     S
C43    H46     1.090   .     S
C43    C92     1.408   .     D
C44    C45     1.410   .     D
C44    C48     1.455   .     S
C44    C94     1.408   .     S
C45    H47     1.093   .     S
C48    N49     1.289   .     D
C48    H59     1.106   .     S
N49    C50     1.400   .     S
C50    C51     1.409   .     D
C50    C55     1.407   .     S
C51    C52     1.389   .     S
C51    H58     1.090   .     S
C52    C53     1.394   .     D
C52    H56     1.089   .     S
C53    C54     1.393   .     S
C53    O248    1.408   .     S
C54    C55     1.391   .     D
C54    H246    1.091   .     S
C55    H57     1.090   .     S
C60    C61     1.387   1_545 S
C60    H147    1.090   .     S
C60    C187    1.407   .     D
C61    C60     1.387   1_565 S
C61    C146    1.407   .     D
C61    H148    1.092   .     S
C62    C65     1.454   .     S
C62    C105    1.408   .     D
C62    C229    1.407   .     S
H63    C228    1.090   .     S
H64    C229    1.092   .     S
C65    N66     1.288   .     D
C65    H67     1.106   .     S
N66    C68     1.397   .     S
C68    C69     1.411   .     D
C68    C73     1.406   .     S
C69    C70     1.390   .     S
C69    H74     1.090   .     S
C70    C71     1.394   .     D
C70    H245    1.092   .     S
C71    C72     1.390   .     S
C71    O163    1.411   .     S
C72    C73     1.388   .     D
C72    H75     1.088   .     S
C73    H76     1.090   .     S
H77    C154    1.092   .     S
H78    C138    1.091   .     S
O79    C167    1.346   .     S
O79    C239    1.411   .     S
O80    C137    1.408   .     S
O80    C165    1.344   .     S
C81    N82     1.330   .     S
C81    N166    1.343   .     D
C81    O248    1.344   .     S
N82    C249    1.343   .     D
C83    N84     1.340   .     S
C83    N168    1.331   .     D
C83    O247    1.346   .     S
N84    C251    1.331   .     D
C85    C86     1.391   .     D
C85    C90     1.394   .     S
C85    O107    1.412   .     S
C86    C87     1.392   .     S
C86    H113    1.090   .     S
C87    C88     1.409   .     D
C87    H114    1.091   .     S
C88    C89     1.406   .     S
C88    N109    1.397   .     S
C89    C90     1.390   .     D
C89    H115    1.090   .     S
C90    H116    1.090   .     S
C91    C92     1.457   .     S
C91    N109    1.288   .     D
C91    H117    1.106   .     S
C92    C93     1.408   .     S
C93    C94     1.387   .     D
C93    H118    1.093   .     S
C94    H209    1.090   .     S
C95    O107    1.345   .     S
C95    N110    1.343   .     S
C95    N194    1.331   .     D
C96    C97     1.391   .     D
C96    C101    1.390   .     S
C96    O108    1.413   .     S
C97    C98     1.393   .     S
C97    H119    1.091   .     S
C98    C99     1.409   .     D
C98    H120    1.092   .     S
C99    C100    1.404   .     S
C99    N111    1.396   .     S
C100   C101    1.387   .     D
C100   H121    1.090   .     S
C101   H122    1.088   .     S
C102   C103    1.453   .     S
C102   N111    1.287   .     D
C102   H123    1.106   .     S
C103   C104    1.407   .     D
C103   C228    1.407   .     S
C104   C105    1.385   .     S
C104   H124    1.093   .     S
C105   H210    1.090   .     S
C106   N112    1.340   .     S
O108   C190    1.345   .     S
N112   C190    1.331   .     D
C127   C129    1.386   1_545 S
C127   H130    1.090   .     S
C127   C176    1.408   .     D
C128   C129    1.410   .     D
C128   C132    1.455   .     S
C128   C178    1.408   .     S
C129   C127    1.386   1_565 S
C129   H131    1.093   .     S
C132   N133    1.289   .     D
C132   H143    1.106   .     S
N133   C134    1.400   .     S
C134   C135    1.409   .     D
C134   C139    1.407   .     S
C135   C136    1.389   .     S
C135   H142    1.090   .     S
C136   C137    1.394   .     D
C136   H140    1.089   .     S
C137   C138    1.393   .     S
C138   C139    1.391   .     D
C139   H141    1.090   .     S
C144   C145    1.387   1_655 S
C144   H231    1.090   .     S
C145   C144    1.387   1_455 S
C145   C230    1.407   .     D
C145   H232    1.092   .     S
C146   C149    1.454   .     S
C146   C189    1.408   .     S
C149   N150    1.288   .     D
C149   H151    1.106   .     S
N150   C152    1.397   .     S
C152   C153    1.411   .     D
C152   C157    1.406   .     S
C153   C154    1.390   .     S
C153   H158    1.090   .     S
C154   C155    1.394   .     D
C155   C156    1.390   .     S
C155   O247    1.411   .     S
C156   C157    1.388   .     D
C156   H159    1.088   .     S
C157   H160    1.090   .     S
H161   C238    1.092   .     S
H162   C222    1.091   .     S
O163   C251    1.346   .     S
O164   C221    1.408   .     S
O164   C249    1.344   .     S
C165   N166    1.330   .     S
C165   N250    1.343   .     D
C167   N168    1.340   .     S
C167   N252    1.331   .     D
C169   C170    1.391   .     D
C169   C174    1.394   .     S
C169   O191    1.412   .     S
C170   C171    1.392   .     S
C170   H197    1.090   .     S
C171   C172    1.409   .     D
C171   H198    1.091   .     S
C172   C173    1.406   .     S
C172   N193    1.397   .     S
C173   C174    1.390   .     D
C173   H199    1.090   .     S
C174   H200    1.090   .     S
C175   C176    1.457   .     S
C175   N193    1.288   .     D
C175   H201    1.106   .     S
C176   C177    1.408   .     S
C177   C178    1.387   1_545 D
C177   H202    1.093   .     S
C178   C177    1.387   1_565 D
C179   O191    1.345   .     S
C179   N194    1.343   .     S
C180   C181    1.391   .     D
C180   C185    1.390   .     S
C180   O192    1.413   .     S
C181   C182    1.393   .     S
C181   H203    1.091   .     S
C182   C183    1.409   .     D
C182   H204    1.092   .     S
C183   C184    1.404   .     S
C183   N195    1.396   .     S
C184   C185    1.387   .     D
C184   H205    1.090   .     S
C185   H206    1.088   .     S
C186   C187    1.453   .     S
C186   N195    1.287   .     D
C186   H207    1.106   .     S
C187   C188    1.407   .     S
C188   C189    1.385   1_545 D
C188   H208    1.093   .     S
C189   C188    1.385   1_565 D
C190   N196    1.340   .     S
C211   C213    1.386   1_655 D
C211   H214    1.090   .     S
C212   C213    1.410   .     S
C212   C216    1.455   .     S
C213   C211    1.386   1_455 D
C213   H215    1.093   .     S
C216   N217    1.289   .     D
C216   H227    1.106   .     S
N217   C218    1.400   .     S
C218   C219    1.409   .     D
C218   C223    1.407   .     S
C219   C220    1.389   .     S
C219   H226    1.090   .     S
C220   C221    1.394   .     D
C220   H224    1.089   .     S
C221   C222    1.393   .     S
C222   C223    1.391   .     D
C223   H225    1.090   .     S
C228   C229    1.387   .     D
C230   C233    1.454   .     S
C233   N234    1.288   .     D
C233   H235    1.106   .     S
N234   C236    1.397   .     S
C236   C237    1.411   .     D
C236   C241    1.406   .     S
C237   C238    1.390   .     S
C237   H242    1.090   .     S
C238   C239    1.394   .     D
C239   C240    1.390   .     S
C240   C241    1.388   .     D
C240   H243    1.088   .     S
C241   H244    1.090   .     S
C249   N250    1.330   .     S
C251   N252    1.340   .     S
