data_577
_audit_creation_date              2023-09-08
_audit_creation_method            'Materials Studio'
_symmetry_space_group_name_H-M    'P1'
_symmetry_Int_Tables_number       1
_symmetry_cell_setting            triclinic
loop_
_symmetry_equiv_pos_as_xyz
  x,y,z
_cell_length_a                    22.9563
_cell_length_b                    22.9563
_cell_length_c                    3.9577
_cell_angle_alpha                 90.0000
_cell_angle_beta                  90.0000
_cell_angle_gamma                 120.0000
loop_
_atom_site_label
_atom_site_type_symbol
_atom_site_fract_x
_atom_site_fract_y
_atom_site_fract_z
_atom_site_U_iso_or_equiv
_atom_site_adp_type
_atom_site_occupancy
N1     N     0.16968   0.82226  -0.05888   0.00000  Uiso   1.00
N2     N     0.96711   0.93380  -0.12705   0.00000  Uiso   1.00
C3     C     0.06995   0.93081  -0.11732   0.00000  Uiso   1.00
C4     C     0.04030   0.86538  -0.22406   0.00000  Uiso   1.00
C5     C     0.07433   0.83098  -0.20635   0.00000  Uiso   1.00
C6     C     0.13776   0.86053  -0.07680   0.00000  Uiso   1.00
C7     C     0.16811   0.92642   0.02458   0.00000  Uiso   1.00
C8     C     0.13446   0.96119   0.00386   0.00000  Uiso   1.00
C9     C     0.22139   0.83589   0.11492   0.00000  Uiso   1.00
C10    C     0.24956   0.79231   0.10869   0.00000  Uiso   1.00
C11    C     0.21762   0.73154  -0.05210   0.00000  Uiso   1.00
C12    C     0.24490   0.69076  -0.05213   0.00000  Uiso   1.00
C13    C     0.30492   0.70941   0.10553   0.00000  Uiso   1.00
C14    C     0.33647   0.77075   0.26428   0.00000  Uiso   1.00
C15    C     0.30923   0.81156   0.26727   0.00000  Uiso   1.00
C16    C     0.93341   0.96650  -0.12742   0.00000  Uiso   1.00
H17    H     0.99100   0.84122  -0.32332   0.00000  Uiso   1.00
H18    H     0.05129   0.78075  -0.29091   0.00000  Uiso   1.00
H19    H     0.21767   0.95150   0.11716   0.00000  Uiso   1.00
H20    H     0.15832   0.01157   0.08778   0.00000  Uiso   1.00
H21    H     0.24416   0.87860   0.27278   0.00000  Uiso   1.00
H22    H     0.17146   0.71565  -0.17733   0.00000  Uiso   1.00
H23    H     0.21834   0.64414  -0.17153   0.00000  Uiso   1.00
H24    H     0.38277   0.78775   0.38295   0.00000  Uiso   1.00
H25    H     0.33482   0.85821   0.39417   0.00000  Uiso   1.00
N26    N     0.17774   0.34742  -0.05888   0.00000  Uiso   1.00
N27    N     0.06620   0.03331  -0.12705   0.00000  Uiso   1.00
C28    C     0.06919   0.13914  -0.11732   0.00000  Uiso   1.00
C29    C     0.13462   0.17492  -0.22406   0.00000  Uiso   1.00
C30    C     0.16902   0.24335  -0.20635   0.00000  Uiso   1.00
C31    C     0.13947   0.27723  -0.07680   0.00000  Uiso   1.00
C32    C     0.07358   0.24169   0.02458   0.00000  Uiso   1.00
C33    C     0.03881   0.17327   0.00386   0.00000  Uiso   1.00
C34    C     0.16411   0.38550   0.11492   0.00000  Uiso   1.00
C35    C     0.20769   0.45725   0.10869   0.00000  Uiso   1.00
C36    C     0.26846   0.48608  -0.05210   0.00000  Uiso   1.00
C37    C     0.30924   0.55414  -0.05213   0.00000  Uiso   1.00
C38    C     0.29059   0.59551   0.10553   0.00000  Uiso   1.00
C39    C     0.22925   0.56572   0.26428   0.00000  Uiso   1.00
C40    C     0.18844   0.49767   0.26727   0.00000  Uiso   1.00
C41    C     0.03350   0.96691  -0.12742   0.00000  Uiso   1.00
H42    H     0.15878   0.14978  -0.32332   0.00000  Uiso   1.00
H43    H     0.21925   0.27054  -0.29091   0.00000  Uiso   1.00
H44    H     0.04850   0.26617   0.11716   0.00000  Uiso   1.00
H45    H     0.98843   0.14675   0.08778   0.00000  Uiso   1.00
H46    H     0.12140   0.36556   0.27278   0.00000  Uiso   1.00
H47    H     0.28435   0.45581  -0.17733   0.00000  Uiso   1.00
H48    H     0.35586   0.57420  -0.17153   0.00000  Uiso   1.00
H49    H     0.21225   0.59502   0.38295   0.00000  Uiso   1.00
H50    H     0.14179   0.47661   0.39417   0.00000  Uiso   1.00
N51    N     0.65258   0.83032  -0.05888   0.00000  Uiso   1.00
N52    N     0.96669   0.03289  -0.12705   0.00000  Uiso   1.00
C53    C     0.86086   0.93005  -0.11732   0.00000  Uiso   1.00
C54    C     0.82508   0.95970  -0.22406   0.00000  Uiso   1.00
C55    C     0.75665   0.92567  -0.20635   0.00000  Uiso   1.00
C56    C     0.72277   0.86224  -0.07680   0.00000  Uiso   1.00
C57    C     0.75831   0.83189   0.02458   0.00000  Uiso   1.00
C58    C     0.82673   0.86554   0.00386   0.00000  Uiso   1.00
C59    C     0.61450   0.77861   0.11492   0.00000  Uiso   1.00
C60    C     0.54275   0.75044   0.10869   0.00000  Uiso   1.00
C61    C     0.51392   0.78238  -0.05210   0.00000  Uiso   1.00
C62    C     0.44586   0.75510  -0.05213   0.00000  Uiso   1.00
C63    C     0.40449   0.69508   0.10553   0.00000  Uiso   1.00
C64    C     0.43428   0.66353   0.26428   0.00000  Uiso   1.00
C65    C     0.50233   0.69077   0.26727   0.00000  Uiso   1.00
C66    C     0.03309   0.06659  -0.12742   0.00000  Uiso   1.00
H67    H     0.85022   0.00900  -0.32332   0.00000  Uiso   1.00
H68    H     0.72946   0.94871  -0.29091   0.00000  Uiso   1.00
H69    H     0.73383   0.78233   0.11716   0.00000  Uiso   1.00
H70    H     0.85325   0.84168   0.08778   0.00000  Uiso   1.00
H71    H     0.63444   0.75584   0.27278   0.00000  Uiso   1.00
H72    H     0.54419   0.82854  -0.17733   0.00000  Uiso   1.00
H73    H     0.42580   0.78166  -0.17153   0.00000  Uiso   1.00
H74    H     0.40498   0.61723   0.38295   0.00000  Uiso   1.00
H75    H     0.52339   0.66518   0.39417   0.00000  Uiso   1.00
N76    N     0.33333   0.66667   0.10499   0.00000  Uiso   1.00
loop_
_geom_bond_atom_site_label_1
_geom_bond_atom_site_label_2
_geom_bond_distance
_geom_bond_site_symmetry_2
_ccdc_geom_bond_type
N1     C6      1.399   .     S
N1     C9      1.268   .     D
N2     C16     1.320   .     D
N2     C41     1.320   1_655 S
C3     C4      1.369   .     D
C3     C8      1.370   .     S
C3     C41     1.443   .     S
C4     C5      1.362   .     S
C4     H17     1.056   1_455 S
C5     C6      1.362   .     D
C5     H18     1.054   .     S
C6     C7      1.371   .     S
C7     C8      1.363   .     D
C7     H19     1.051   .     S
C8     H20     1.056   1_565 S
C9     C10     1.438   .     S
C9     H21     1.055   .     S
C10    C11     1.366   .     D
C10    C15     1.364   .     S
C11    C12     1.362   .     S
C11    H22     1.056   .     S
C12    C13     1.372   .     D
C12    H23     1.043   .     S
C13    C14     1.372   .     S
C13    N76     1.424   .     S
C14    C15     1.362   .     D
C14    H24     1.043   .     S
C15    H25     1.056   .     S
C16    N52     1.320   1_565 S
C16    C53     1.443   .     S
H17    C4      1.056   1_655 S
H20    C8      1.056   1_545 S
N26    C31     1.399   .     S
N26    C34     1.268   .     D
N27    C41     1.320   1_545 D
N27    C66     1.320   .     S
C28    C29     1.369   .     D
C28    C33     1.370   .     S
C28    C66     1.443   .     S
C29    C30     1.362   .     S
C29    H42     1.056   .     S
C30    C31     1.362   .     D
C30    H43     1.054   .     S
C31    C32     1.371   .     S
C32    C33     1.363   .     D
C32    H44     1.051   .     S
C33    H45     1.056   1_455 S
C34    C35     1.438   .     S
C34    H46     1.055   .     S
C35    C36     1.366   .     D
C35    C40     1.364   .     S
C36    C37     1.362   .     S
C36    H47     1.056   .     S
C37    C38     1.372   .     D
C37    H48     1.043   .     S
C38    C39     1.372   .     S
C38    N76     1.424   .     S
C39    C40     1.362   .     D
C39    H49     1.043   .     S
C40    H50     1.056   .     S
C41    N27     1.320   1_565 D
C41    N2      1.320   1_455 S
H45    C33     1.056   1_655 S
N51    C56     1.399   .     S
N51    C59     1.268   .     D
N52    C16     1.320   1_545 S
N52    C66     1.320   1_655 D
C53    C54     1.369   .     D
C53    C58     1.370   .     S
C54    C55     1.362   .     S
C54    H67     1.056   1_565 S
C55    C56     1.362   .     D
C55    H68     1.054   .     S
C56    C57     1.371   .     S
C57    C58     1.363   .     D
C57    H69     1.051   .     S
C58    H70     1.056   .     S
C59    C60     1.438   .     S
C59    H71     1.055   .     S
C60    C61     1.366   .     D
C60    C65     1.364   .     S
C61    C62     1.362   .     S
C61    H72     1.056   .     S
C62    C63     1.372   .     D
C62    H73     1.043   .     S
C63    C64     1.372   .     S
C63    N76     1.424   .     S
C64    C65     1.362   .     D
C64    H74     1.043   .     S
C65    H75     1.056   .     S
C66    N52     1.320   1_455 D
H67    C54     1.056   1_545 S
