data_578
_audit_creation_date              2023-09-08
_audit_creation_method            'Materials Studio'
_symmetry_space_group_name_H-M    'P1'
_symmetry_Int_Tables_number       1
_symmetry_cell_setting            triclinic
loop_
_symmetry_equiv_pos_as_xyz
  x,y,z
_cell_length_a                    24.7594
_cell_length_b                    26.1023
_cell_length_c                    3.5331
_cell_angle_alpha                 90.0000
_cell_angle_beta                  90.0000
_cell_angle_gamma                 120.0000
loop_
_atom_site_label
_atom_site_type_symbol
_atom_site_fract_x
_atom_site_fract_y
_atom_site_fract_z
_atom_site_U_iso_or_equiv
_atom_site_adp_type
_atom_site_occupancy
N1     N     0.18730   0.80969   0.52416   0.00000  Uiso   1.00
N2     N     0.39348   0.68721   0.49932   0.00000  Uiso   1.00
N3     N     0.18847   0.28049   0.51825   0.00000  Uiso   1.00
N4     N     0.71339   0.81577   0.32136   0.00000  Uiso   1.00
N5     N    -0.99725   1.91119   1.41242   0.00000  Uiso   1.00
N6     N    -0.90675   1.99979   1.47631   0.00000  Uiso   1.00
N7     N    -0.99793   1.99927   1.41788   0.00000  Uiso   1.00
C8     C     0.09660   0.90782   0.47491   0.00000  Uiso   1.00
C9     C     0.06585   0.84681   0.42464   0.00000  Uiso   1.00
C10    C     0.09671   0.81577   0.44331   0.00000  Uiso   1.00
C11    C     0.15855   0.84445   0.51483   0.00000  Uiso   1.00
C12    C     0.18982   0.90554   0.56387   0.00000  Uiso   1.00
C13    C     0.15902   0.93686   0.54441   0.00000  Uiso   1.00
C14    C     0.24205   0.82588   0.62922   0.00000  Uiso   1.00
C15    C     0.26443   0.78405   0.61363   0.00000  Uiso   1.00
C16    C     0.22685   0.72616   0.49400   0.00000  Uiso   1.00
C17    C     0.24855   0.68715   0.47283   0.00000  Uiso   1.00
C18    C     0.30841   0.70491   0.57476   0.00000  Uiso   1.00
C19    C     0.34593   0.76298   0.69436   0.00000  Uiso   1.00
C20    C     0.32415   0.80211   0.71416   0.00000  Uiso   1.00
C21    C     0.33299   0.66457   0.53965   0.00000  Uiso   1.00
C22    C     0.06250   0.12427   0.46888   0.00000  Uiso   1.00
C23    C     0.09493   0.09425   0.48052   0.00000  Uiso   1.00
C24    C     0.15802   0.12682   0.51228   0.00000  Uiso   1.00
C25    C     0.18782   0.18797   0.52629   0.00000  Uiso   1.00
C26    C     0.81059   0.81581   0.29792   0.00000  Uiso   1.00
C27    C     0.87348   0.84659   0.31687   0.00000  Uiso   1.00
C28    C     0.90515   0.90777   0.35700   0.00000  Uiso   1.00
C29    C     0.87244   0.93753   0.36693   0.00000  Uiso   1.00
C30    C     0.80952   0.90659   0.34812   0.00000  Uiso   1.00
C31    C    -1.02826   0.94024   0.39409   0.00000  Uiso   1.00
C32    C    -0.93654   1.94055   1.45378   0.00000  Uiso   1.00
C33    C    -0.93728   2.02943   1.45837   0.00000  Uiso   1.00
H34    H     0.01793   0.82315   0.36796   0.00000  Uiso   1.00
H35    H     0.07254   0.76892   0.40102   0.00000  Uiso   1.00
H36    H     0.23775   0.92943   0.61339   0.00000  Uiso   1.00
H37    H     0.18390   0.98380   0.58419   0.00000  Uiso   1.00
H38    H     0.27189   0.86962   0.73201   0.00000  Uiso   1.00
H39    H     0.18087   0.71147   0.40926   0.00000  Uiso   1.00
H40    H     0.21876   0.64382   0.36351   0.00000  Uiso   1.00
H41    H     0.39214   0.77789   0.77493   0.00000  Uiso   1.00
H42    H     0.35392   0.84648   0.80849   0.00000  Uiso   1.00
C43    C     0.29528   0.60350   0.54545   0.00000  Uiso   1.00
C44    C     0.31930   0.56678   0.48082   0.00000  Uiso   1.00
C45    C     0.38149   0.59237   0.42287   0.00000  Uiso   1.00
C46    C     0.41893   0.65313   0.44933   0.00000  Uiso   1.00
C47    C     0.48557   0.68064   0.42870   0.00000  Uiso   1.00
C48    C     0.27995   0.50195   0.47365   0.00000  Uiso   1.00
C49    C     0.22030   0.47586   0.34032   0.00000  Uiso   1.00
C50    C     0.18399   0.41502   0.32748   0.00000  Uiso   1.00
C51    C     0.20662   0.37893   0.44382   0.00000  Uiso   1.00
C52    C     0.26588   0.40466   0.57966   0.00000  Uiso   1.00
C53    C     0.30199   0.46543   0.59677   0.00000  Uiso   1.00
C54    C     0.51458   0.64947   0.53568   0.00000  Uiso   1.00
C55    C     0.57718   0.67598   0.52512   0.00000  Uiso   1.00
C56    C     0.61246   0.73440   0.41272   0.00000  Uiso   1.00
C57    C     0.58400   0.76597   0.30767   0.00000  Uiso   1.00
C58    C     0.52110   0.73933   0.31649   0.00000  Uiso   1.00
C59    C     0.67860   0.76137   0.41566   0.00000  Uiso   1.00
C60    C     0.16817   0.31483   0.41768   0.00000  Uiso   1.00
C61    C     0.15556   0.21771   0.50612   0.00000  Uiso   1.00
C62    C     0.77805   0.84564   0.32235   0.00000  Uiso   1.00
C63    C     0.09238   0.18528   0.48311   0.00000  Uiso   1.00
H64    H     0.24793   0.58458   0.60769   0.00000  Uiso   1.00
H65    H     0.40042   0.56514   0.35112   0.00000  Uiso   1.00
H66    H     0.20217   0.50234   0.23460   0.00000  Uiso   1.00
H67    H     0.13855   0.39608   0.21870   0.00000  Uiso   1.00
H68    H     0.28393   0.37762   0.67664   0.00000  Uiso   1.00
H69    H     0.34682   0.48369   0.71362   0.00000  Uiso   1.00
H70    H     0.48932   0.60514   0.64037   0.00000  Uiso   1.00
H71    H     0.59821   0.65110   0.61286   0.00000  Uiso   1.00
H72    H     0.61052   0.81112   0.21860   0.00000  Uiso   1.00
H73    H     0.49997   0.76430   0.23280   0.00000  Uiso   1.00
H74    H     0.69751   0.73522   0.51509   0.00000  Uiso   1.00
H75    H     0.12345   0.29735   0.30080   0.00000  Uiso   1.00
H76    H     0.06572   0.20650   0.48116   0.00000  Uiso   1.00
H77    H     0.01383   0.10044   0.44907   0.00000  Uiso   1.00
H78    H     0.18419   0.10496   0.52489   0.00000  Uiso   1.00
H79    H     0.23638   0.21264   0.54954   0.00000  Uiso   1.00
H80    H     0.78784   0.76898   0.26078   0.00000  Uiso   1.00
H81    H     0.89746   0.82259   0.30120   0.00000  Uiso   1.00
H82    H     0.89553   0.98466   0.39494   0.00000  Uiso   1.00
H83    H     0.78480   0.92983   0.36221   0.00000  Uiso   1.00
loop_
_geom_bond_atom_site_label_1
_geom_bond_atom_site_label_2
_geom_bond_distance
_geom_bond_site_symmetry_2
_ccdc_geom_bond_type
N1     C11     1.406   .     S
N1     C14     1.257   .     D
N2     C21     1.314   .     S
N2     C46     1.334   .     D
N3     C60     1.278   .     D
N3     C61     1.420   .     S
N4     C59     1.283   .     D
N4     C62     1.387   .     S
N5     C31     1.323   1_566 S
N5     C32     1.310   .     D
N6     C32     1.342   .     S
N6     C33     1.326   .     D
N7     C31     1.337   1_566 D
N7     C33     1.309   .     S
C8     C9      1.391   .     D
C8     C13     1.361   .     S
C8     C32     1.452   1_644 S
C9     C10     1.365   .     S
C9     H34     1.047   .     S
C10    C11     1.350   .     D
C10    H35     1.070   .     S
C11    C12     1.392   .     S
C12    C13     1.370   .     D
C12    H36     1.043   .     S
C13    H37     1.070   .     S
C14    C15     1.452   .     S
C14    H38     1.067   .     S
C15    C16     1.386   .     D
C15    C20     1.356   .     S
C16    C17     1.370   .     S
C16    H39     1.047   .     S
C17    C18     1.362   .     D
C17    H40     1.067   .     S
C18    C19     1.390   .     S
C18    C21     1.461   .     S
C19    C20     1.375   .     D
C19    H41     1.047   .     S
C20    H42     1.069   .     S
C21    C43     1.387   .     D
C22    C23     1.375   .     D
C22    C63     1.381   .     S
C22    H77     1.046   .     S
C23    C24     1.359   .     S
C23    C33     1.468   1_634 S
C24    C25     1.385   .     D
C24    H78     1.057   .     S
C25    C61     1.366   .     S
C25    H79     1.045   .     S
C26    C27     1.350   .     D
C26    C62     1.375   .     S
C26    H80     1.068   .     S
C27    C28     1.390   .     S
C27    H81     1.058   .     S
C28    C29     1.375   .     D
C28    C31     1.434   1_755 S
C29    C30     1.351   .     S
C29    H82     1.071   .     S
C30    C62     1.381   .     D
C30    H83     1.057   .     S
C31    C28     1.434   1_355 S
C31    N7      1.337   1_544 D
C31    N5      1.323   1_544 S
C32    C8      1.452   1_466 S
C33    C23     1.468   1_476 S
C43    C44     1.376   .     S
C43    H64     1.043   .     S
C44    C45     1.353   .     D
C44    C48     1.471   .     S
C45    C46     1.383   .     S
C45    H65     1.059   .     S
C46    C47     1.435   .     S
C47    C54     1.380   .     S
C47    C58     1.389   .     D
C48    C49     1.364   .     D
C48    C53     1.384   .     S
C49    C50     1.380   .     S
C49    H66     1.063   .     S
C50    C51     1.378   .     D
C50    H67     1.050   .     S
C51    C52     1.360   .     S
C51    C60     1.457   .     S
C52    C53     1.379   .     D
C52    H68     1.063   .     S
C53    H69     1.049   .     S
C54    C55     1.345   .     D
C54    H70     1.069   .     S
C55    C56     1.383   .     S
C55    H71     1.062   .     S
C56    C57     1.376   .     D
C56    C59     1.423   .     S
C57    C58     1.352   .     S
C57    H72     1.070   .     S
C58    H73     1.062   .     S
C59    H74     1.062   .     S
C60    H75     1.049   .     S
C61    C63     1.359   .     D
C63    H76     1.053   .     S
