data_579
_audit_creation_date              2023-09-08
_audit_creation_method            'Materials Studio'
_symmetry_space_group_name_H-M    'P1'
_symmetry_Int_Tables_number       1
_symmetry_cell_setting            triclinic
loop_
_symmetry_equiv_pos_as_xyz
  x,y,z
_cell_length_a                    25.4016
_cell_length_b                    25.4016
_cell_length_c                    3.5076
_cell_angle_alpha                 90.0000
_cell_angle_beta                  90.0000
_cell_angle_gamma                 120.0000
loop_
_atom_site_label
_atom_site_type_symbol
_atom_site_fract_x
_atom_site_fract_y
_atom_site_fract_z
_atom_site_U_iso_or_equiv
_atom_site_adp_type
_atom_site_occupancy
N1     N     0.15567   0.83995   0.50893   0.00000  Uiso   1.00
N2     N     0.27385   0.64359   0.46693   0.00000  Uiso   1.00
N3     N     0.97007   0.94002   0.52920   0.00000  Uiso   1.00
C4     C     0.06332   0.93693   0.52705   0.00000  Uiso   1.00
C5     C     0.03291   0.87462   0.49761   0.00000  Uiso   1.00
C6     C     0.06422   0.84381   0.49265   0.00000  Uiso   1.00
C7     C     0.12619   0.87422   0.51492   0.00000  Uiso   1.00
C8     C     0.15685   0.93650   0.55035   0.00000  Uiso   1.00
C9     C     0.12567   0.96747   0.55463   0.00000  Uiso   1.00
C10    C     0.21218   0.86018   0.45980   0.00000  Uiso   1.00
C11    C     0.23651   0.81961   0.46320   0.00000  Uiso   1.00
C12    C     0.19937   0.75803   0.50679   0.00000  Uiso   1.00
C13    C     0.22319   0.72027   0.50747   0.00000  Uiso   1.00
C14    C     0.28472   0.74337   0.46627   0.00000  Uiso   1.00
C15    C     0.32178   0.80510   0.42394   0.00000  Uiso   1.00
C16    C     0.29787   0.84278   0.42168   0.00000  Uiso   1.00
C17    C     0.31009   0.70334   0.46695   0.00000  Uiso   1.00
C18    C     0.93958   0.96973   0.52929   0.00000  Uiso   1.00
H19    H     0.98493   0.84982   0.47642   0.00000  Uiso   1.00
H20    H     0.04037   0.79592   0.46843   0.00000  Uiso   1.00
H21    H     0.20450   0.96149   0.58097   0.00000  Uiso   1.00
H22    H     0.15025   0.01538   0.58248   0.00000  Uiso   1.00
H23    H     0.24243   0.90682   0.40816   0.00000  Uiso   1.00
H24    H     0.15191   0.73930   0.54043   0.00000  Uiso   1.00
H25    H     0.19359   0.67298   0.54246   0.00000  Uiso   1.00
H26    H     0.36928   0.82413   0.38993   0.00000  Uiso   1.00
H27    H     0.32730   0.89011   0.38686   0.00000  Uiso   1.00
N28    N     0.16005   0.31572   0.50893   0.00000  Uiso   1.00
N29    N     0.35641   0.63026   0.46693   0.00000  Uiso   1.00
N30    N     0.05998   0.03005   0.52920   0.00000  Uiso   1.00
C31    C     0.06307   0.12639   0.52705   0.00000  Uiso   1.00
C32    C     0.12538   0.15829   0.49761   0.00000  Uiso   1.00
C33    C     0.15619   0.22041   0.49265   0.00000  Uiso   1.00
C34    C     0.12578   0.25197   0.51492   0.00000  Uiso   1.00
C35    C     0.06350   0.22035   0.55035   0.00000  Uiso   1.00
C36    C     0.03253   0.15820   0.55463   0.00000  Uiso   1.00
C37    C     0.13982   0.35200   0.45980   0.00000  Uiso   1.00
C38    C     0.18039   0.41690   0.46320   0.00000  Uiso   1.00
C39    C     0.24197   0.44134   0.50679   0.00000  Uiso   1.00
C40    C     0.27973   0.50292   0.50747   0.00000  Uiso   1.00
C41    C     0.25663   0.54135   0.46627   0.00000  Uiso   1.00
C42    C     0.19490   0.51668   0.42394   0.00000  Uiso   1.00
C43    C     0.15722   0.45509   0.42168   0.00000  Uiso   1.00
C44    C     0.29666   0.60675   0.46695   0.00000  Uiso   1.00
C45    C     0.03027   0.96985   0.52929   0.00000  Uiso   1.00
H46    H     0.15018   0.13511   0.47642   0.00000  Uiso   1.00
H47    H     0.20408   0.24445   0.46843   0.00000  Uiso   1.00
H48    H     0.03851   0.24301   0.58097   0.00000  Uiso   1.00
H49    H     0.98462   0.13487   0.58248   0.00000  Uiso   1.00
H50    H     0.09318   0.33561   0.40816   0.00000  Uiso   1.00
H51    H     0.26070   0.41261   0.54043   0.00000  Uiso   1.00
H52    H     0.32702   0.52061   0.54246   0.00000  Uiso   1.00
H53    H     0.17587   0.54515   0.38993   0.00000  Uiso   1.00
H54    H     0.10989   0.43719   0.38686   0.00000  Uiso   1.00
N55    N     0.68428   0.84433   0.50893   0.00000  Uiso   1.00
N56    N     0.36974   0.72615   0.46693   0.00000  Uiso   1.00
N57    N     0.96995   0.02993   0.52920   0.00000  Uiso   1.00
C58    C     0.87361   0.93668   0.52705   0.00000  Uiso   1.00
C59    C     0.84171   0.96709   0.49761   0.00000  Uiso   1.00
C60    C     0.77959   0.93578   0.49265   0.00000  Uiso   1.00
C61    C     0.74803   0.87381   0.51492   0.00000  Uiso   1.00
C62    C     0.77965   0.84315   0.55035   0.00000  Uiso   1.00
C63    C     0.84180   0.87433   0.55463   0.00000  Uiso   1.00
C64    C     0.64800   0.78782   0.45980   0.00000  Uiso   1.00
C65    C     0.58310   0.76349   0.46320   0.00000  Uiso   1.00
C66    C     0.55866   0.80063   0.50679   0.00000  Uiso   1.00
C67    C     0.49708   0.77681   0.50747   0.00000  Uiso   1.00
C68    C     0.45865   0.71528   0.46627   0.00000  Uiso   1.00
C69    C     0.48332   0.67822   0.42394   0.00000  Uiso   1.00
C70    C     0.54491   0.70213   0.42168   0.00000  Uiso   1.00
C71    C     0.39325   0.68991   0.46695   0.00000  Uiso   1.00
C72    C     0.03015   0.06042   0.52929   0.00000  Uiso   1.00
H73    H     0.86489   0.01507   0.47642   0.00000  Uiso   1.00
H74    H     0.75555   0.95963   0.46843   0.00000  Uiso   1.00
H75    H     0.75699   0.79550   0.58097   0.00000  Uiso   1.00
H76    H     0.86513   0.84975   0.58248   0.00000  Uiso   1.00
H77    H     0.66439   0.75757   0.40816   0.00000  Uiso   1.00
H78    H     0.58739   0.84809   0.54043   0.00000  Uiso   1.00
H79    H     0.47939   0.80641   0.54246   0.00000  Uiso   1.00
H80    H     0.45485   0.63072   0.38993   0.00000  Uiso   1.00
H81    H     0.56281   0.67270   0.38686   0.00000  Uiso   1.00
loop_
_geom_bond_atom_site_label_1
_geom_bond_atom_site_label_2
_geom_bond_distance
_geom_bond_site_symmetry_2
_ccdc_geom_bond_type
N1     C7      1.404   .     S
N1     C10     1.271   .     D
N2     C17     1.324   .     D
N2     C44     1.324   .     S
N3     C18     1.324   .     S
N3     C45     1.324   1_655 D
C4     C5      1.375   .     D
C4     C9      1.375   .     S
C4     C45     1.451   .     S
C5     C6      1.367   .     S
C5     H19     1.058   1_455 S
C6     C7      1.366   .     D
C6     H20     1.057   .     S
C7     C8      1.376   .     S
C8     C9      1.367   .     D
C8     H21     1.054   .     S
C9     H22     1.059   1_565 S
C10    C11     1.443   .     S
C10    H23     1.057   .     S
C11    C12     1.373   .     D
C11    C16     1.371   .     S
C12    C13     1.366   .     S
C12    H24     1.058   .     S
C13    C14     1.375   .     D
C13    H25     1.058   .     S
C14    C15     1.375   .     S
C14    C17     1.451   .     S
C15    C16     1.366   .     D
C15    H26     1.059   .     S
C16    H27     1.059   .     S
C17    N56     1.324   .     S
C18    N57     1.324   1_565 D
C18    C58     1.451   .     S
H19    C5      1.058   1_655 S
H22    C9      1.059   1_545 S
N28    C34     1.404   .     S
N28    C37     1.271   .     D
N29    C44     1.324   .     D
N29    C71     1.324   .     S
N30    C45     1.324   1_545 S
N30    C72     1.324   .     D
C31    C32     1.375   .     D
C31    C36     1.375   .     S
C31    C72     1.451   .     S
C32    C33     1.367   .     S
C32    H46     1.058   .     S
C33    C34     1.366   .     D
C33    H47     1.057   .     S
C34    C35     1.376   .     S
C35    C36     1.367   .     D
C35    H48     1.054   .     S
C36    H49     1.059   1_455 S
C37    C38     1.443   .     S
C37    H50     1.057   .     S
C38    C39     1.373   .     D
C38    C43     1.371   .     S
C39    C40     1.366   .     S
C39    H51     1.058   .     S
C40    C41     1.375   .     D
C40    H52     1.058   .     S
C41    C42     1.375   .     S
C41    C44     1.451   .     S
C42    C43     1.366   .     D
C42    H53     1.059   .     S
C43    H54     1.059   .     S
C45    N3      1.324   1_455 D
C45    N30     1.324   1_565 S
H49    C36     1.059   1_655 S
N55    C61     1.404   .     S
N55    C64     1.271   .     D
N56    C71     1.324   .     D
N57    C18     1.324   1_545 D
N57    C72     1.324   1_655 S
C58    C59     1.375   .     D
C58    C63     1.375   .     S
C59    C60     1.367   .     S
C59    H73     1.058   1_565 S
C60    C61     1.366   .     D
C60    H74     1.057   .     S
C61    C62     1.376   .     S
C62    C63     1.367   .     D
C62    H75     1.054   .     S
C63    H76     1.059   .     S
C64    C65     1.443   .     S
C64    H77     1.057   .     S
C65    C66     1.373   .     D
C65    C70     1.371   .     S
C66    C67     1.366   .     S
C66    H78     1.058   .     S
C67    C68     1.375   .     D
C67    H79     1.058   .     S
C68    C69     1.375   .     S
C68    C71     1.451   .     S
C69    C70     1.366   .     D
C69    H80     1.059   .     S
C70    H81     1.059   .     S
C72    N57     1.324   1_455 S
H73    C59     1.058   1_545 S
