data_58
_audit_creation_date              2023-09-08
_audit_creation_method            'Materials Studio'
_symmetry_space_group_name_H-M    'P1'
_symmetry_Int_Tables_number       1
_symmetry_cell_setting            triclinic
loop_
_symmetry_equiv_pos_as_xyz
  x,y,z
_cell_length_a                    44.3906
_cell_length_b                    44.3906
_cell_length_c                    3.4195
_cell_angle_alpha                 90.0000
_cell_angle_beta                  90.0000
_cell_angle_gamma                 120.0000
loop_
_atom_site_label
_atom_site_type_symbol
_atom_site_fract_x
_atom_site_fract_y
_atom_site_fract_z
_atom_site_U_iso_or_equiv
_atom_site_adp_type
_atom_site_occupancy
H1     H     0.57960   0.56590   0.74810   0.00000  Uiso   1.00
H2     H     0.43410   0.01370   0.74810   0.00000  Uiso   1.00
H3     H     0.98630   0.42040   0.74810   0.00000  Uiso   1.00
H4     H     0.42040   0.43410   0.74810   0.00000  Uiso   1.00
H5     H     0.56590   0.98630   0.74810   0.00000  Uiso   1.00
H6     H     0.01370   0.57960   0.74810   0.00000  Uiso   1.00
H7     H     0.42040   0.43410   0.25190   0.00000  Uiso   1.00
H8     H     0.56590   0.98630   0.25190   0.00000  Uiso   1.00
H9     H     0.01370   0.57960   0.25190   0.00000  Uiso   1.00
H10    H     0.57960   0.56590   0.25190   0.00000  Uiso   1.00
H11    H     0.43410   0.01370   0.25190   0.00000  Uiso   1.00
H12    H     0.98630   0.42040   0.25190   0.00000  Uiso   1.00
H13    H     0.55370   0.60300   0.74830   0.00000  Uiso   1.00
H14    H     0.39700   0.95070   0.74830   0.00000  Uiso   1.00
H15    H     0.04930   0.44630   0.74830   0.00000  Uiso   1.00
H16    H     0.44630   0.39700   0.74830   0.00000  Uiso   1.00
H17    H     0.60300   0.04930   0.74830   0.00000  Uiso   1.00
H18    H     0.95070   0.55370   0.74830   0.00000  Uiso   1.00
H19    H     0.44630   0.39700   0.25170   0.00000  Uiso   1.00
H20    H     0.60300   0.04930   0.25170   0.00000  Uiso   1.00
H21    H     0.95070   0.55370   0.25170   0.00000  Uiso   1.00
H22    H     0.55370   0.60300   0.25170   0.00000  Uiso   1.00
H23    H     0.39700   0.95070   0.25170   0.00000  Uiso   1.00
H24    H     0.04930   0.44630   0.25170   0.00000  Uiso   1.00
O25    O     0.41030   0.53810   0.50000   0.00000  Uiso   1.00
O26    O     0.46190   0.87220   0.50000   0.00000  Uiso   1.00
O27    O     0.12780   0.58970   0.50000   0.00000  Uiso   1.00
O28    O     0.58970   0.46190   0.50000   0.00000  Uiso   1.00
O29    O     0.53810   0.12780   0.50000   0.00000  Uiso   1.00
O30    O     0.87220   0.41030   0.50000   0.00000  Uiso   1.00
C31    C     0.43710   0.53100   0.50000   0.00000  Uiso   1.00
C32    C     0.46900   0.90610   0.50000   0.00000  Uiso   1.00
C33    C     0.09390   0.56290   0.50000   0.00000  Uiso   1.00
C34    C     0.56290   0.46900   0.50000   0.00000  Uiso   1.00
C35    C     0.53100   0.09390   0.50000   0.00000  Uiso   1.00
C36    C     0.90610   0.43710   0.50000   0.00000  Uiso   1.00
C37    C     0.46750   0.49980   0.50000   0.00000  Uiso   1.00
C38    C     0.50020   0.96770   0.50000   0.00000  Uiso   1.00
C39    C     0.03230   0.53250   0.50000   0.00000  Uiso   1.00
C40    C     0.53250   0.50020   0.50000   0.00000  Uiso   1.00
C41    C     0.49980   0.03230   0.50000   0.00000  Uiso   1.00
C42    C     0.96770   0.46750   0.50000   0.00000  Uiso   1.00
C43    C     0.43550   0.49990   0.50000   0.00000  Uiso   1.00
C44    C     0.50010   0.93560   0.50000   0.00000  Uiso   1.00
C45    C     0.06440   0.56450   0.50000   0.00000  Uiso   1.00
C46    C     0.56450   0.50010   0.50000   0.00000  Uiso   1.00
C47    C     0.49990   0.06440   0.50000   0.00000  Uiso   1.00
C48    C     0.93560   0.43550   0.50000   0.00000  Uiso   1.00
C49    C     0.35140   0.59440   0.50000   0.00000  Uiso   1.00
C50    C     0.40560   0.75700   0.50000   0.00000  Uiso   1.00
C51    C     0.24300   0.64860   0.50000   0.00000  Uiso   1.00
C52    C     0.64860   0.40560   0.50000   0.00000  Uiso   1.00
C53    C     0.59440   0.24300   0.50000   0.00000  Uiso   1.00
C54    C     0.75700   0.35140   0.50000   0.00000  Uiso   1.00
C55    C     0.36920   0.57580   0.50000   0.00000  Uiso   1.00
C56    C     0.42420   0.79340   0.50000   0.00000  Uiso   1.00
C57    C     0.20660   0.63080   0.50000   0.00000  Uiso   1.00
C58    C     0.63080   0.42420   0.50000   0.00000  Uiso   1.00
C59    C     0.57580   0.20660   0.50000   0.00000  Uiso   1.00
C60    C     0.79340   0.36920   0.50000   0.00000  Uiso   1.00
H61    H     0.32310   0.58110   0.50000   0.00000  Uiso   1.00
H62    H     0.41890   0.74200   0.50000   0.00000  Uiso   1.00
H63    H     0.25800   0.67690   0.50000   0.00000  Uiso   1.00
H64    H     0.67690   0.41890   0.50000   0.00000  Uiso   1.00
H65    H     0.58110   0.25800   0.50000   0.00000  Uiso   1.00
H66    H     0.74200   0.32310   0.50000   0.00000  Uiso   1.00
H67    H     0.35540   0.54730   0.50000   0.00000  Uiso   1.00
H68    H     0.45270   0.80810   0.50000   0.00000  Uiso   1.00
H69    H     0.19190   0.64460   0.50000   0.00000  Uiso   1.00
H70    H     0.64460   0.45270   0.50000   0.00000  Uiso   1.00
H71    H     0.54730   0.19190   0.50000   0.00000  Uiso   1.00
H72    H     0.80810   0.35540   0.50000   0.00000  Uiso   1.00
H73    H     0.41100   0.47550   0.50000   0.00000  Uiso   1.00
H74    H     0.52450   0.93550   0.50000   0.00000  Uiso   1.00
H75    H     0.06450   0.58900   0.50000   0.00000  Uiso   1.00
H76    H     0.58900   0.52450   0.50000   0.00000  Uiso   1.00
H77    H     0.47550   0.06450   0.50000   0.00000  Uiso   1.00
H78    H     0.93550   0.41100   0.50000   0.00000  Uiso   1.00
O79    O     0.53810   0.41030   0.50000   0.00000  Uiso   1.00
O80    O     0.58970   0.12780   0.50000   0.00000  Uiso   1.00
O81    O     0.87220   0.46190   0.50000   0.00000  Uiso   1.00
O82    O     0.46190   0.58970   0.50000   0.00000  Uiso   1.00
O83    O     0.41030   0.87220   0.50000   0.00000  Uiso   1.00
O84    O     0.12780   0.53810   0.50000   0.00000  Uiso   1.00
C85    C     0.53100   0.43710   0.50000   0.00000  Uiso   1.00
C86    C     0.56290   0.09390   0.50000   0.00000  Uiso   1.00
C87    C     0.90610   0.46900   0.50000   0.00000  Uiso   1.00
C88    C     0.46900   0.56290   0.50000   0.00000  Uiso   1.00
C89    C     0.43710   0.90610   0.50000   0.00000  Uiso   1.00
C90    C     0.09390   0.53100   0.50000   0.00000  Uiso   1.00
C91    C     0.49980   0.46750   0.50000   0.00000  Uiso   1.00
C92    C     0.53250   0.03230   0.50000   0.00000  Uiso   1.00
C93    C     0.96770   0.50020   0.50000   0.00000  Uiso   1.00
C94    C     0.50020   0.53250   0.50000   0.00000  Uiso   1.00
C95    C     0.46750   0.96770   0.50000   0.00000  Uiso   1.00
C96    C     0.03230   0.49980   0.50000   0.00000  Uiso   1.00
C97    C     0.49990   0.43550   0.50000   0.00000  Uiso   1.00
C98    C     0.56450   0.06440   0.50000   0.00000  Uiso   1.00
C99    C     0.93560   0.50010   0.50000   0.00000  Uiso   1.00
C100   C     0.50010   0.56450   0.50000   0.00000  Uiso   1.00
C101   C     0.43550   0.93560   0.50000   0.00000  Uiso   1.00
C102   C     0.06440   0.49990   0.50000   0.00000  Uiso   1.00
C103   C     0.59440   0.35140   0.50000   0.00000  Uiso   1.00
C104   C     0.64860   0.24300   0.50000   0.00000  Uiso   1.00
C105   C     0.75700   0.40560   0.50000   0.00000  Uiso   1.00
C106   C     0.40560   0.64860   0.50000   0.00000  Uiso   1.00
C107   C     0.35140   0.75700   0.50000   0.00000  Uiso   1.00
C108   C     0.24300   0.59440   0.50000   0.00000  Uiso   1.00
C109   C     0.57580   0.36920   0.50000   0.00000  Uiso   1.00
C110   C     0.63080   0.20660   0.50000   0.00000  Uiso   1.00
C111   C     0.79340   0.42420   0.50000   0.00000  Uiso   1.00
C112   C     0.42420   0.63080   0.50000   0.00000  Uiso   1.00
C113   C     0.36920   0.79340   0.50000   0.00000  Uiso   1.00
C114   C     0.20660   0.57580   0.50000   0.00000  Uiso   1.00
H115   H     0.58110   0.32310   0.50000   0.00000  Uiso   1.00
H116   H     0.67690   0.25800   0.50000   0.00000  Uiso   1.00
H117   H     0.74200   0.41890   0.50000   0.00000  Uiso   1.00
H118   H     0.41890   0.67690   0.50000   0.00000  Uiso   1.00
H119   H     0.32310   0.74200   0.50000   0.00000  Uiso   1.00
H120   H     0.25800   0.58110   0.50000   0.00000  Uiso   1.00
H121   H     0.54730   0.35540   0.50000   0.00000  Uiso   1.00
H122   H     0.64460   0.19190   0.50000   0.00000  Uiso   1.00
H123   H     0.80810   0.45270   0.50000   0.00000  Uiso   1.00
H124   H     0.45270   0.64460   0.50000   0.00000  Uiso   1.00
H125   H     0.35540   0.80810   0.50000   0.00000  Uiso   1.00
H126   H     0.19190   0.54730   0.50000   0.00000  Uiso   1.00
H127   H     0.47550   0.41100   0.50000   0.00000  Uiso   1.00
H128   H     0.58900   0.06450   0.50000   0.00000  Uiso   1.00
H129   H     0.93550   0.52450   0.50000   0.00000  Uiso   1.00
H130   H     0.52450   0.58900   0.50000   0.00000  Uiso   1.00
H131   H     0.41100   0.93550   0.50000   0.00000  Uiso   1.00
H132   H     0.06450   0.47550   0.50000   0.00000  Uiso   1.00
N133   N     0.31570   0.63140   0.50000   0.00000  Uiso   1.00
N134   N     0.36860   0.68430   0.50000   0.00000  Uiso   1.00
N135   N     0.31570   0.68430   0.50000   0.00000  Uiso   1.00
N136   N     0.68430   0.36860   0.50000   0.00000  Uiso   1.00
N137   N     0.63140   0.31570   0.50000   0.00000  Uiso   1.00
N138   N     0.68430   0.31570   0.50000   0.00000  Uiso   1.00
C139   C     0.53135   0.53135   0.50000   0.00000  Uiso   1.00
C140   C     0.46865   0.00000   0.50000   0.00000  Uiso   1.00
C141   C     0.00000   0.46865   0.50000   0.00000  Uiso   1.00
C142   C     0.46865   0.46865   0.50000   0.00000  Uiso   1.00
C143   C     0.53135   0.00000   0.50000   0.00000  Uiso   1.00
C144   C     0.00000   0.53135   0.50000   0.00000  Uiso   1.00
C145   C     0.40580   0.59420   0.50000   0.00000  Uiso   1.00
C146   C     0.40580   0.81160   0.50000   0.00000  Uiso   1.00
C147   C     0.18840   0.59420   0.50000   0.00000  Uiso   1.00
C148   C     0.59420   0.40580   0.50000   0.00000  Uiso   1.00
C149   C     0.59420   0.18840   0.50000   0.00000  Uiso   1.00
C150   C     0.81160   0.40580   0.50000   0.00000  Uiso   1.00
C151   C     0.35035   0.64965   0.50000   0.00000  Uiso   1.00
C152   C     0.35035   0.70070   0.50000   0.00000  Uiso   1.00
C153   C     0.29930   0.64965   0.50000   0.00000  Uiso   1.00
C154   C     0.64965   0.35035   0.50000   0.00000  Uiso   1.00
C155   C     0.64965   0.29930   0.50000   0.00000  Uiso   1.00
C156   C     0.70070   0.35035   0.50000   0.00000  Uiso   1.00
C157   C     0.36945   0.63055   0.50000   0.00000  Uiso   1.00
C158   C     0.36945   0.73890   0.50000   0.00000  Uiso   1.00
C159   C     0.26110   0.63055   0.50000   0.00000  Uiso   1.00
C160   C     0.63055   0.36945   0.50000   0.00000  Uiso   1.00
C161   C     0.63055   0.26110   0.50000   0.00000  Uiso   1.00
C162   C     0.73890   0.36945   0.50000   0.00000  Uiso   1.00
B163   B     0.42570   0.57430   0.50000   0.00000  Uiso   1.00
B164   B     0.42570   0.85140   0.50000   0.00000  Uiso   1.00
B165   B     0.14860   0.57430   0.50000   0.00000  Uiso   1.00
B166   B     0.57430   0.42570   0.50000   0.00000  Uiso   1.00
B167   B     0.57430   0.14860   0.50000   0.00000  Uiso   1.00
B168   B     0.85140   0.42570   0.50000   0.00000  Uiso   1.00
H169   H     0.59360   0.62130   0.50000   0.00000  Uiso   1.00
H170   H     0.37870   0.97230   0.50000   0.00000  Uiso   1.00
H171   H     0.02770   0.40640   0.50000   0.00000  Uiso   1.00
H172   H     0.40640   0.37870   0.50000   0.00000  Uiso   1.00
H173   H     0.62130   0.02770   0.50000   0.00000  Uiso   1.00
H174   H     0.97230   0.59360   0.50000   0.00000  Uiso   1.00
C175   C     0.56650   0.60070   0.50000   0.00000  Uiso   1.00
C176   C     0.39930   0.96580   0.50000   0.00000  Uiso   1.00
C177   C     0.03420   0.43350   0.50000   0.00000  Uiso   1.00
C178   C     0.43350   0.39930   0.50000   0.00000  Uiso   1.00
C179   C     0.60070   0.03420   0.50000   0.00000  Uiso   1.00
C180   C     0.96580   0.56650   0.50000   0.00000  Uiso   1.00
C181   C     0.56450   0.56450   0.50000   0.00000  Uiso   1.00
C182   C     0.43550  -0.00000   0.50000   0.00000  Uiso   1.00
C183   C     0.00000   0.43550   0.50000   0.00000  Uiso   1.00
C184   C     0.43550   0.43550   0.50000   0.00000  Uiso   1.00
C185   C     0.56450   0.00000   0.50000   0.00000  Uiso   1.00
C186   C     0.00000   0.56450   0.50000   0.00000  Uiso   1.00
loop_
_geom_bond_atom_site_label_1
_geom_bond_atom_site_label_2
_geom_bond_distance
_geom_bond_site_symmetry_2
_ccdc_geom_bond_type
H1     C181    1.064   .     S
H2     C182    1.064   .     S
H3     C183    1.064   1_655 S
H4     C184    1.064   .     S
H5     C185    1.064   1_565 S
H6     C186    1.064   .     S
H7     C184    1.064   .     S
H8     C185    1.064   1_565 S
H9     C186    1.064   .     S
H10    C181    1.064   .     S
H11    C182    1.064   .     S
H12    C183    1.064   1_655 S
H13    C175    1.055   .     S
H14    C176    1.055   .     S
H15    C177    1.055   .     S
H16    C178    1.055   .     S
H17    C179    1.055   .     S
H18    C180    1.055   .     S
H19    C178    1.055   .     S
H20    C179    1.055   .     S
H21    C180    1.055   .     S
H22    C175    1.055   .     S
H23    C176    1.055   .     S
H24    C177    1.055   .     S
O25    C31     1.375   .     S
O25    B163    1.397   .     S
O26    C32     1.375   .     S
O26    B164    1.397   .     S
O27    C33     1.375   .     S
O27    B165    1.397   .     S
O28    C34     1.375   .     S
O28    B166    1.397   .     S
O29    C35     1.375   .     S
O29    B167    1.397   .     S
O30    C36     1.375   .     S
O30    B168    1.397   .     S
C31    C43     1.346   .     S
C31    C88     1.416   .     D
C32    C44     1.346   .     D
C32    C89     1.416   .     S
C33    C45     1.346   .     D
C33    C90     1.416   .     S
C34    C46     1.346   .     D
C34    C85     1.416   .     S
C35    C47     1.346   .     S
C35    C86     1.416   .     D
C36    C48     1.346   .     D
C36    C87     1.416   .     S
C37    C43     1.423   .     D
C37    C94     1.452   .     S
C37    C142    1.409   .     S
C38    C44     1.423   .     S
C38    C95     1.452   .     S
C38    C143    1.409   1_565 D
C39    C45     1.423   .     S
C39    C96     1.452   .     D
C39    C144    1.409   .     S
C40    C46     1.423   .     S
C40    C91     1.452   .     S
C40    C139    1.409   .     D
C41    C47     1.423   .     D
C41    C92     1.452   .     S
C41    C140    1.409   .     S
C42    C48     1.423   .     S
C42    C93     1.452   .     S
C42    C141    1.409   1_655 D
C43    H73     1.085   .     S
C44    H74     1.085   .     S
C45    H75     1.085   .     S
C46    H76     1.085   .     S
C47    H77     1.085   .     S
C48    H78     1.085   .     S
C49    C55     1.399   .     D
C49    H61     1.089   .     S
C49    C157    1.390   .     S
C50    C56     1.399   .     S
C50    H62     1.089   .     S
C50    C158    1.390   .     D
C51    C57     1.399   .     D
C51    H63     1.089   .     S
C51    C159    1.390   .     S
C52    C58     1.399   .     D
C52    H64     1.089   .     S
C52    C160    1.390   .     S
C53    C59     1.399   .     S
C53    H65     1.089   .     S
C53    C161    1.390   .     D
C54    C60     1.399   .     D
C54    H66     1.089   .     S
C54    C162    1.390   .     S
C55    H67     1.096   .     S
C55    C145    1.407   .     S
C56    H68     1.096   .     S
C56    C146    1.407   .     D
C57    H69     1.096   .     S
C57    C147    1.407   .     S
C58    H70     1.096   .     S
C58    C148    1.407   .     S
C59    H71     1.096   .     S
C59    C149    1.407   .     D
C60    H72     1.096   .     S
C60    C150    1.407   .     S
O79    C85     1.375   .     S
O79    B166    1.397   .     S
O80    C86     1.375   .     S
O80    B167    1.397   .     S
O81    C87     1.375   .     S
O81    B168    1.397   .     S
O82    C88     1.375   .     S
O82    B163    1.397   .     S
O83    C89     1.375   .     S
O83    B164    1.397   .     S
O84    C90     1.375   .     S
O84    B165    1.397   .     S
C85    C97     1.346   .     D
C86    C98     1.346   .     S
C87    C99     1.346   .     D
C88    C100    1.346   .     S
C89    C101    1.346   .     D
C90    C102    1.346   .     D
C91    C97     1.423   .     S
C91    C142    1.409   .     D
C92    C98     1.423   .     D
C92    C143    1.409   .     S
C93    C99     1.423   .     S
C93    C144    1.409   1_655 D
C94    C100    1.423   .     D
C94    C139    1.409   .     S
C95    C101    1.423   .     S
C95    C140    1.409   1_565 D
C96    C102    1.423   .     S
C96    C141    1.409   .     S
C97    H127    1.085   .     S
C98    H128    1.085   .     S
C99    H129    1.085   .     S
C100   H130    1.085   .     S
C101   H131    1.085   .     S
C102   H132    1.085   .     S
C103   C109    1.399   .     S
C103   H115    1.089   .     S
C103   C160    1.390   .     D
C104   C110    1.399   .     D
C104   H116    1.089   .     S
C104   C161    1.390   .     S
C105   C111    1.399   .     S
C105   H117    1.089   .     S
C105   C162    1.390   .     D
C106   C112    1.399   .     S
C106   H118    1.089   .     S
C106   C157    1.390   .     D
C107   C113    1.399   .     D
C107   H119    1.089   .     S
C107   C158    1.390   .     S
C108   C114    1.399   .     S
C108   H120    1.089   .     S
C108   C159    1.390   .     D
C109   H121    1.096   .     S
C109   C148    1.407   .     D
C110   H122    1.096   .     S
C110   C149    1.407   .     S
C111   H123    1.096   .     S
C111   C150    1.407   .     D
C112   H124    1.096   .     S
C112   C145    1.407   .     D
C113   H125    1.096   .     S
C113   C146    1.407   .     S
C114   H126    1.096   .     S
C114   C147    1.407   .     D
N133   C151    1.333   .     S
N133   C153    1.333   .     D
N134   C151    1.333   .     D
N134   C152    1.333   .     S
N135   C152    1.333   .     D
N135   C153    1.333   .     S
N136   C154    1.333   .     S
N136   C156    1.333   .     D
N137   C154    1.333   .     D
N137   C155    1.333   .     S
N138   C155    1.333   .     D
N138   C156    1.333   .     S
C139   C181    1.472   .     S
C140   C95     1.409   1_545 D
C140   C182    1.472   .     S
C141   C42     1.409   1_455 D
C141   C183    1.472   .     S
C142   C184    1.472   .     S
C143   C38     1.409   1_545 D
C143   C185    1.472   .     S
C144   C93     1.409   1_455 D
C144   C186    1.472   .     S
C145   B163    1.530   .     S
C146   B164    1.530   .     S
C147   B165    1.530   .     S
C148   B166    1.530   .     S
C149   B167    1.530   .     S
C150   B168    1.530   .     S
C151   C157    1.469   .     S
C152   C158    1.469   .     S
C153   C159    1.469   .     S
C154   C160    1.469   .     S
C155   C161    1.469   .     S
C156   C162    1.469   .     S
H169   C175    1.088   .     S
H170   C176    1.088   .     S
H171   C177    1.088   .     S
H172   C178    1.088   .     S
H173   C179    1.088   .     S
H174   C180    1.088   .     S
C175   C181    1.564   .     S
C176   C182    1.564   1_565 S
C177   C183    1.564   .     S
C178   C184    1.564   .     S
C179   C185    1.564   .     S
C180   C186    1.564   1_655 S
C182   C176    1.564   1_545 S
C183   H12     1.064   1_455 S
C183   H3      1.064   1_455 S
C185   H8      1.064   1_545 S
C185   H5      1.064   1_545 S
C186   C180    1.564   1_455 S
