data_580
_audit_creation_date              2023-09-08
_audit_creation_method            'Materials Studio'
_symmetry_space_group_name_H-M    'P1'
_symmetry_Int_Tables_number       1
_symmetry_cell_setting            triclinic
loop_
_symmetry_equiv_pos_as_xyz
  x,y,z
_cell_length_a                    38.0453
_cell_length_b                    38.0453
_cell_length_c                    3.4986
_cell_angle_alpha                 90.0000
_cell_angle_beta                  90.0000
_cell_angle_gamma                 120.0000
loop_
_atom_site_label
_atom_site_type_symbol
_atom_site_fract_x
_atom_site_fract_y
_atom_site_fract_z
_atom_site_U_iso_or_equiv
_atom_site_adp_type
_atom_site_occupancy
C1     C     0.97709   0.45807   0.00000   0.00000  Uiso   1.00
C2     C     0.01977   0.47781   0.00000   0.00000  Uiso   1.00
C3     C     0.04486   0.52075   0.00000   0.00000  Uiso   1.00
C4     C     0.91148   0.45907   0.00000   0.00000  Uiso   1.00
C5     C     0.11034   0.51947   0.00000   0.00000  Uiso   1.00
C6     C     0.15298   0.53909   0.00000   0.00000  Uiso   1.00
C7     C     0.17673   0.58168   0.00000   0.00000  Uiso   1.00
C8     C     0.15619   0.60393   0.00000   0.00000  Uiso   1.00
C9     C     0.11351   0.58404   0.00000   0.00000  Uiso   1.00
N10    N     0.78235   0.40244   0.00000   0.00000  Uiso   1.00
C11    C     0.75241   0.36299   0.00000   0.00000  Uiso   1.00
C12    C     0.70990   0.34899   0.00000   0.00000  Uiso   1.00
C13    C     0.69354   0.37545   0.00000   0.00000  Uiso   1.00
H14    H     0.96278   0.42723   0.00000   0.00000  Uiso   1.00
H15    H     0.03167   0.45909   0.00000   0.00000  Uiso   1.00
H16    H     0.09604   0.48865   0.00000   0.00000  Uiso   1.00
H17    H     0.16667   0.52177   0.00000   0.00000  Uiso   1.00
H18    H     0.17181   0.63490   0.00000   0.00000  Uiso   1.00
H19    H     0.10160   0.60273   0.00000   0.00000  Uiso   1.00
H20    H     0.76137   0.34183   0.00000   0.00000  Uiso   1.00
O21    O     0.71718   0.41315   0.00000   0.00000  Uiso   1.00
H22    H     0.77342   0.42206   0.00000   0.00000  Uiso   1.00
C23    C     0.54193   0.51902   0.00000   0.00000  Uiso   1.00
C24    C     0.52219   0.54197   0.00000   0.00000  Uiso   1.00
C25    C     0.47925   0.52411   0.00000   0.00000  Uiso   1.00
C26    C     0.54093   0.45241   0.00000   0.00000  Uiso   1.00
C27    C     0.48053   0.59087   0.00000   0.00000  Uiso   1.00
C28    C     0.46091   0.61388   0.00000   0.00000  Uiso   1.00
C29    C     0.41832   0.59505   0.00000   0.00000  Uiso   1.00
C30    C     0.39607   0.55225   0.00000   0.00000  Uiso   1.00
C31    C     0.41596   0.52947   0.00000   0.00000  Uiso   1.00
N32    N     0.59756   0.37990   0.00000   0.00000  Uiso   1.00
C33    C     0.63701   0.38941   0.00000   0.00000  Uiso   1.00
C34    C     0.65101   0.36091   0.00000   0.00000  Uiso   1.00
C35    C     0.62455   0.31809   0.00000   0.00000  Uiso   1.00
H36    H     0.57277   0.53555   0.00000   0.00000  Uiso   1.00
H37    H     0.54091   0.57258   0.00000   0.00000  Uiso   1.00
H38    H     0.51135   0.60740   0.00000   0.00000  Uiso   1.00
H39    H     0.47823   0.64491   0.00000   0.00000  Uiso   1.00
H40    H     0.36510   0.53691   0.00000   0.00000  Uiso   1.00
H41    H     0.39727   0.49887   0.00000   0.00000  Uiso   1.00
H42    H     0.65817   0.41954   0.00000   0.00000  Uiso   1.00
O43    O     0.58685   0.30403   0.00000   0.00000  Uiso   1.00
H44    H     0.57794   0.35137   0.00000   0.00000  Uiso   1.00
C45    C     0.48098   0.02291   0.00000   0.00000  Uiso   1.00
C46    C     0.45803   0.98023   0.00000   0.00000  Uiso   1.00
C47    C     0.47588   0.95514   0.00000   0.00000  Uiso   1.00
C48    C     0.54759   0.08852   0.00000   0.00000  Uiso   1.00
C49    C     0.40913   0.88966   0.00000   0.00000  Uiso   1.00
C50    C     0.38611   0.84702   0.00000   0.00000  Uiso   1.00
C51    C     0.40495   0.82327   0.00000   0.00000  Uiso   1.00
C52    C     0.44775   0.84382   0.00000   0.00000  Uiso   1.00
C53    C     0.47053   0.88649   0.00000   0.00000  Uiso   1.00
N54    N     0.62010   0.21765   0.00000   0.00000  Uiso   1.00
C55    C     0.61059   0.24759   0.00000   0.00000  Uiso   1.00
C56    C     0.63909   0.29010   0.00000   0.00000  Uiso   1.00
C57    C     0.68191   0.30646   0.00000   0.00000  Uiso   1.00
H58    H     0.46445   0.03722   0.00000   0.00000  Uiso   1.00
H59    H     0.42742   0.96833   0.00000   0.00000  Uiso   1.00
H60    H     0.39260   0.90396   0.00000   0.00000  Uiso   1.00
H61    H     0.35509   0.83332   0.00000   0.00000  Uiso   1.00
H62    H     0.46309   0.82819   0.00000   0.00000  Uiso   1.00
H63    H     0.50113   0.89840   0.00000   0.00000  Uiso   1.00
H64    H     0.58046   0.23863   0.00000   0.00000  Uiso   1.00
O65    O     0.69597   0.28282   0.00000   0.00000  Uiso   1.00
H66    H     0.64863   0.22658   0.00000   0.00000  Uiso   1.00
C67    C     0.02291   0.54193   0.00000   0.00000  Uiso   1.00
C68    C     0.98023   0.52219   0.00000   0.00000  Uiso   1.00
C69    C     0.95514   0.47925   0.00000   0.00000  Uiso   1.00
C70    C     0.08852   0.54093   0.00000   0.00000  Uiso   1.00
C71    C     0.88966   0.48053   0.00000   0.00000  Uiso   1.00
C72    C     0.84702   0.46091   0.00000   0.00000  Uiso   1.00
C73    C     0.82327   0.41832   0.00000   0.00000  Uiso   1.00
C74    C     0.84382   0.39607   0.00000   0.00000  Uiso   1.00
C75    C     0.88649   0.41596   0.00000   0.00000  Uiso   1.00
N76    N     0.21765   0.59756   0.00000   0.00000  Uiso   1.00
C77    C     0.24759   0.63701   0.00000   0.00000  Uiso   1.00
C78    C     0.29010   0.65101   0.00000   0.00000  Uiso   1.00
C79    C     0.30646   0.62455   0.00000   0.00000  Uiso   1.00
H80    H     0.03722   0.57277   0.00000   0.00000  Uiso   1.00
H81    H     0.96833   0.54091   0.00000   0.00000  Uiso   1.00
H82    H     0.90396   0.51135   0.00000   0.00000  Uiso   1.00
H83    H     0.83333   0.47823   0.00000   0.00000  Uiso   1.00
H84    H     0.82819   0.36510   0.00000   0.00000  Uiso   1.00
H85    H     0.89841   0.39727   0.00000   0.00000  Uiso   1.00
H86    H     0.23863   0.65817   0.00000   0.00000  Uiso   1.00
O87    O     0.28282   0.58684   0.00000   0.00000  Uiso   1.00
H88    H     0.22658   0.57794   0.00000   0.00000  Uiso   1.00
C89    C     0.45807   0.48098   0.00000   0.00000  Uiso   1.00
C90    C     0.47781   0.45803   0.00000   0.00000  Uiso   1.00
C91    C     0.52075   0.47589   0.00000   0.00000  Uiso   1.00
C92    C     0.45907   0.54759   0.00000   0.00000  Uiso   1.00
C93    C     0.51947   0.40913   0.00000   0.00000  Uiso   1.00
C94    C     0.53909   0.38611   0.00000   0.00000  Uiso   1.00
C95    C     0.58168   0.40495   0.00000   0.00000  Uiso   1.00
C96    C     0.60393   0.44775   0.00000   0.00000  Uiso   1.00
C97    C     0.58404   0.47053   0.00000   0.00000  Uiso   1.00
N98    N     0.40244   0.62010   0.00000   0.00000  Uiso   1.00
C99    C     0.36299   0.61058   0.00000   0.00000  Uiso   1.00
C100   C     0.34899   0.63909   0.00000   0.00000  Uiso   1.00
C101   C     0.37545   0.68191   0.00000   0.00000  Uiso   1.00
H102   H     0.42723   0.46445   0.00000   0.00000  Uiso   1.00
H103   H     0.45909   0.42742   0.00000   0.00000  Uiso   1.00
H104   H     0.48865   0.39260   0.00000   0.00000  Uiso   1.00
H105   H     0.52177   0.35509   0.00000   0.00000  Uiso   1.00
H106   H     0.63490   0.46309   0.00000   0.00000  Uiso   1.00
H107   H     0.60273   0.50113   0.00000   0.00000  Uiso   1.00
H108   H     0.34183   0.58046   0.00000   0.00000  Uiso   1.00
O109   O     0.41315   0.69597   0.00000   0.00000  Uiso   1.00
H110   H     0.42206   0.64863   0.00000   0.00000  Uiso   1.00
C111   C     0.51902   0.97709   0.00000   0.00000  Uiso   1.00
C112   C     0.54197   0.01977   0.00000   0.00000  Uiso   1.00
C113   C     0.52412   0.04486   0.00000   0.00000  Uiso   1.00
C114   C     0.45241   0.91148   0.00000   0.00000  Uiso   1.00
C115   C     0.59087   0.11034   0.00000   0.00000  Uiso   1.00
C116   C     0.61388   0.15298   0.00000   0.00000  Uiso   1.00
C117   C     0.59505   0.17673   0.00000   0.00000  Uiso   1.00
C118   C     0.55225   0.15618   0.00000   0.00000  Uiso   1.00
C119   C     0.52947   0.11351   0.00000   0.00000  Uiso   1.00
N120   N     0.37990   0.78235   0.00000   0.00000  Uiso   1.00
C121   C     0.38941   0.75241   0.00000   0.00000  Uiso   1.00
C122   C     0.36091   0.70990   0.00000   0.00000  Uiso   1.00
C123   C     0.31809   0.69354   0.00000   0.00000  Uiso   1.00
H124   H     0.53555   0.96278   0.00000   0.00000  Uiso   1.00
H125   H     0.57258   0.03167   0.00000   0.00000  Uiso   1.00
H126   H     0.60740   0.09604   0.00000   0.00000  Uiso   1.00
H127   H     0.64491   0.16667   0.00000   0.00000  Uiso   1.00
H128   H     0.53691   0.17181   0.00000   0.00000  Uiso   1.00
H129   H     0.49887   0.10159   0.00000   0.00000  Uiso   1.00
H130   H     0.41954   0.76137   0.00000   0.00000  Uiso   1.00
O131   O     0.30403   0.71718   0.00000   0.00000  Uiso   1.00
H132   H     0.35137   0.77342   0.00000   0.00000  Uiso   1.00
loop_
_geom_bond_atom_site_label_1
_geom_bond_atom_site_label_2
_geom_bond_distance
_geom_bond_site_symmetry_2
_ccdc_geom_bond_type
C1     C2      1.408   1_655 S
C1     H14     1.017   .     S
C1     C69     1.421   .     D
C2     C1      1.408   1_455 S
C2     C3      1.421   .     D
C2     H15     1.017   .     S
C3     C67     1.421   .     S
C3     C70     1.440   .     S
C4     C69     1.440   .     S
C4     C71     1.426   .     D
C4     C75     1.426   .     S
C5     C6      1.406   .     S
C5     H16     1.017   .     S
C5     C70     1.426   .     D
C6     C7      1.406   .     D
C6     H17     1.025   .     S
C7     C8      1.411   .     S
C7     N76     1.360   .     S
C8     C9      1.407   .     D
C8     H18     1.020   .     S
C9     H19     1.017   .     S
C9     C70     1.426   .     S
N10    C11     1.357   .     S
N10    H22     0.962   .     S
N10    C73     1.360   .     S
C11    C12     1.427   .     D
C11    H20     1.019   .     S
C12    C13     1.424   .     S
C12    C57     1.425   .     S
C13    O21     1.255   .     D
C13    C34     1.425   .     S
C23    C24     1.408   .     S
C23    H36     1.017   .     S
C23    C91     1.421   .     D
C24    C25     1.421   .     D
C24    H37     1.017   .     S
C25    C89     1.421   .     S
C25    C92     1.440   .     S
C26    C91     1.440   .     S
C26    C93     1.426   .     D
C26    C97     1.426   .     S
C27    C28     1.406   .     S
C27    H38     1.016   .     S
C27    C92     1.426   .     D
C28    C29     1.406   .     D
C28    H39     1.025   .     S
C29    C30     1.411   .     S
C29    N98     1.360   .     S
C30    C31     1.407   .     D
C30    H40     1.020   .     S
C31    H41     1.017   .     S
C31    C92     1.426   .     S
N32    C33     1.357   .     S
N32    H44     0.962   .     S
N32    C95     1.360   .     S
C33    C34     1.427   .     D
C33    H42     1.019   .     S
C34    C35     1.424   .     S
C35    O43     1.255   .     D
C35    C56     1.425   .     S
C45    C46     1.408   1_545 S
C45    H58     1.017   .     S
C45    C113    1.421   .     D
C46    C45     1.408   1_565 S
C46    C47     1.421   .     D
C46    H59     1.017   .     S
C47    C111    1.421   .     S
C47    C114    1.440   .     S
C48    C113    1.440   .     S
C48    C115    1.426   .     D
C48    C119    1.426   .     S
C49    C50     1.406   .     S
C49    H60     1.016   .     S
C49    C114    1.426   .     D
C50    C51     1.406   .     D
C50    H61     1.025   .     S
C51    C52     1.411   .     S
C51    N120    1.360   .     S
C52    C53     1.407   .     D
C52    H62     1.020   .     S
C53    H63     1.017   .     S
C53    C114    1.426   .     S
N54    C55     1.357   .     S
N54    H66     0.962   .     S
N54    C117    1.360   .     S
C55    C56     1.427   .     D
C55    H64     1.019   .     S
C56    C57     1.424   .     S
C57    O65     1.255   .     D
C67    C68     1.408   1_455 D
C67    H80     1.017   .     S
C68    C67     1.408   1_655 D
C68    C69     1.421   .     S
C68    H81     1.017   .     S
C71    C72     1.406   .     S
C71    H82     1.016   .     S
C72    C73     1.406   .     D
C72    H83     1.025   .     S
C73    C74     1.411   .     S
C74    C75     1.407   .     D
C74    H84     1.020   .     S
C75    H85     1.017   .     S
N76    C77     1.357   .     S
N76    H88     0.962   .     S
C77    C78     1.427   .     D
C77    H86     1.019   .     S
C78    C79     1.424   .     S
C78    C123    1.425   .     S
C79    O87     1.255   .     D
C79    C100    1.425   .     S
C89    C90     1.408   .     D
C89    H102    1.017   .     S
C90    C91     1.421   .     S
C90    H103    1.017   .     S
C93    C94     1.406   .     S
C93    H104    1.017   .     S
C94    C95     1.406   .     D
C94    H105    1.025   .     S
C95    C96     1.411   .     S
C96    C97     1.407   .     D
C96    H106    1.020   .     S
C97    H107    1.017   .     S
N98    C99     1.357   .     S
N98    H110    0.962   .     S
C99    C100    1.427   .     D
C99    H108    1.019   .     S
C100   C101    1.424   .     S
C101   O109    1.255   .     D
C101   C122    1.425   .     S
C111   C112    1.408   1_565 D
C111   H124    1.017   .     S
C112   C111    1.408   1_545 D
C112   C113    1.421   .     S
C112   H125    1.017   .     S
C115   C116    1.406   .     S
C115   H126    1.016   .     S
C116   C117    1.406   .     D
C116   H127    1.025   .     S
C117   C118    1.411   .     S
C118   C119    1.407   .     D
C118   H128    1.020   .     S
C119   H129    1.017   .     S
N120   C121    1.357   .     S
N120   H132    0.962   .     S
C121   C122    1.427   .     D
C121   H130    1.019   .     S
C122   C123    1.424   .     S
C123   O131    1.255   .     D
