data_581
_audit_creation_date              2023-09-08
_audit_creation_method            'Materials Studio'
_symmetry_space_group_name_H-M    'P1'
_symmetry_Int_Tables_number       1
_symmetry_cell_setting            triclinic
loop_
_symmetry_equiv_pos_as_xyz
  x,y,z
_cell_length_a                    35.6565
_cell_length_b                    35.6565
_cell_length_c                    3.4791
_cell_angle_alpha                 90.0000
_cell_angle_beta                  90.0000
_cell_angle_gamma                 120.0000
loop_
_atom_site_label
_atom_site_type_symbol
_atom_site_fract_x
_atom_site_fract_y
_atom_site_fract_z
_atom_site_U_iso_or_equiv
_atom_site_adp_type
_atom_site_occupancy
O1     O     0.57020   0.07881   0.50000   0.00000  Uiso   1.00
N2     N     0.62294   0.31172   0.50000   0.00000  Uiso   1.00
N3     N     0.50585   0.07797   0.50000   0.00000  Uiso   1.00
C4     C     0.64439   0.28928   0.50000   0.00000  Uiso   1.00
C5     C     0.62112   0.37993   0.50000   0.00000  Uiso   1.00
C6     C     0.57451   0.21825   0.50000   0.00000  Uiso   1.00
C7     C     0.55161   0.17297   0.50000   0.00000  Uiso   1.00
C8     C     0.57379   0.14966   0.50000   0.00000  Uiso   1.00
C9     C     0.61924   0.17245   0.50000   0.00000  Uiso   1.00
C10    C     0.64216   0.21772   0.50000   0.00000  Uiso   1.00
C11    C     0.55183   0.45010   0.50000   0.00000  Uiso   1.00
C12    C     0.49904   0.03772   0.50000   0.00000  Uiso   1.00
C13    C     0.53806   0.03882   0.50000   0.00000  Uiso   1.00
C14    C     0.45926   0.99899   0.50000   0.00000  Uiso   1.00
H15    H     0.55661   0.23542   0.50000   0.00000  Uiso   1.00
H16    H     0.51653   0.15605   0.50000   0.00000  Uiso   1.00
H17    H     0.63684   0.15493   0.50000   0.00000  Uiso   1.00
H18    H     0.67722   0.23447   0.50000   0.00000  Uiso   1.00
H19    H     0.42858   0.99815   0.50000   0.00000  Uiso   1.00
O20    O     0.92119   0.49139   0.50000   0.00000  Uiso   1.00
N21    N     0.68828   0.31122   0.50000   0.00000  Uiso   1.00
N22    N     0.92203   0.42788   0.50000   0.00000  Uiso   1.00
C23    C     0.71072   0.35511   0.50000   0.00000  Uiso   1.00
C24    C     0.62007   0.24119   0.50000   0.00000  Uiso   1.00
C25    C     0.78175   0.35626   0.50000   0.00000  Uiso   1.00
C26    C     0.82703   0.37864   0.50000   0.00000  Uiso   1.00
C27    C     0.85034   0.42413   0.50000   0.00000  Uiso   1.00
C28    C     0.82755   0.44679   0.50000   0.00000  Uiso   1.00
C29    C     0.78228   0.42444   0.50000   0.00000  Uiso   1.00
C30    C     0.54990   0.10173   0.50000   0.00000  Uiso   1.00
C31    C     0.96228   0.46132   0.50000   0.00000  Uiso   1.00
C32    C     0.96118   0.49924   0.50000   0.00000  Uiso   1.00
C33    C     0.00101   0.46027   0.50000   0.00000  Uiso   1.00
H34    H     0.76458   0.32119   0.50000   0.00000  Uiso   1.00
H35    H     0.84395   0.36048   0.50000   0.00000  Uiso   1.00
H36    H     0.84507   0.48191   0.50000   0.00000  Uiso   1.00
H37    H     0.76553   0.44275   0.50000   0.00000  Uiso   1.00
H38    H     0.00185   0.43043   0.50000   0.00000  Uiso   1.00
O39    O     0.50861   0.42980   0.50000   0.00000  Uiso   1.00
N40    N     0.68878   0.37706   0.50000   0.00000  Uiso   1.00
N41    N     0.57212   0.49415   0.50000   0.00000  Uiso   1.00
C42    C     0.64489   0.35561   0.50000   0.00000  Uiso   1.00
C43    C     0.75881   0.37888   0.50000   0.00000  Uiso   1.00
C44    C     0.64374   0.42549   0.50000   0.00000  Uiso   1.00
C45    C     0.62136   0.44839   0.50000   0.00000  Uiso   1.00
C46    C     0.57587   0.42621   0.50000   0.00000  Uiso   1.00
C47    C     0.55321   0.38076   0.50000   0.00000  Uiso   1.00
C48    C     0.57556   0.35784   0.50000   0.00000  Uiso   1.00
C49    C     0.89827   0.44817   0.50000   0.00000  Uiso   1.00
C50    C     0.53868   0.50096   0.50000   0.00000  Uiso   1.00
C51    C     0.50076   0.46194   0.50000   0.00000  Uiso   1.00
C52    C     0.53973   0.54074   0.50000   0.00000  Uiso   1.00
H53    H     0.67881   0.44339   0.50000   0.00000  Uiso   1.00
H54    H     0.63952   0.48347   0.50000   0.00000  Uiso   1.00
H55    H     0.51809   0.36316   0.50000   0.00000  Uiso   1.00
H56    H     0.55725   0.32278   0.50000   0.00000  Uiso   1.00
H57    H     0.56957   0.57142   0.50000   0.00000  Uiso   1.00
O58    O     0.42980   0.92119   0.50000   0.00000  Uiso   1.00
N59    N     0.37706   0.68828   0.50000   0.00000  Uiso   1.00
N60    N     0.49415   0.92203   0.50000   0.00000  Uiso   1.00
C61    C     0.35561   0.71072   0.50000   0.00000  Uiso   1.00
C62    C     0.37888   0.62007   0.50000   0.00000  Uiso   1.00
C63    C     0.42549   0.78175   0.50000   0.00000  Uiso   1.00
C64    C     0.44839   0.82703   0.50000   0.00000  Uiso   1.00
C65    C     0.42621   0.85034   0.50000   0.00000  Uiso   1.00
C66    C     0.38076   0.82755   0.50000   0.00000  Uiso   1.00
C67    C     0.35784   0.78228   0.50000   0.00000  Uiso   1.00
C68    C     0.44817   0.54990   0.50000   0.00000  Uiso   1.00
C69    C     0.50096   0.96228   0.50000   0.00000  Uiso   1.00
C70    C     0.46194   0.96118   0.50000   0.00000  Uiso   1.00
C71    C     0.54074   0.00101   0.50000   0.00000  Uiso   1.00
H72    H     0.44339   0.76458   0.50000   0.00000  Uiso   1.00
H73    H     0.48347   0.84395   0.50000   0.00000  Uiso   1.00
H74    H     0.36316   0.84507   0.50000   0.00000  Uiso   1.00
H75    H     0.32278   0.76553   0.50000   0.00000  Uiso   1.00
H76    H     0.57142   0.00185   0.50000   0.00000  Uiso   1.00
O77    O     0.07881   0.50861   0.50000   0.00000  Uiso   1.00
N78    N     0.31172   0.68878   0.50000   0.00000  Uiso   1.00
N79    N     0.07797   0.57212   0.50000   0.00000  Uiso   1.00
C80    C     0.28928   0.64489   0.50000   0.00000  Uiso   1.00
C81    C     0.37993   0.75881   0.50000   0.00000  Uiso   1.00
C82    C     0.21825   0.64374   0.50000   0.00000  Uiso   1.00
C83    C     0.17297   0.62136   0.50000   0.00000  Uiso   1.00
C84    C     0.14966   0.57587   0.50000   0.00000  Uiso   1.00
C85    C     0.17245   0.55321   0.50000   0.00000  Uiso   1.00
C86    C     0.21772   0.57556   0.50000   0.00000  Uiso   1.00
C87    C     0.45010   0.89827   0.50000   0.00000  Uiso   1.00
C88    C     0.03772   0.53868   0.50000   0.00000  Uiso   1.00
C89    C     0.03882   0.50076   0.50000   0.00000  Uiso   1.00
C90    C     0.99899   0.53973   0.50000   0.00000  Uiso   1.00
H91    H     0.23542   0.67881   0.50000   0.00000  Uiso   1.00
H92    H     0.15605   0.63952   0.50000   0.00000  Uiso   1.00
H93    H     0.15493   0.51809   0.50000   0.00000  Uiso   1.00
H94    H     0.23447   0.55725   0.50000   0.00000  Uiso   1.00
H95    H     0.99815   0.56957   0.50000   0.00000  Uiso   1.00
O96    O     0.49139   0.57020   0.50000   0.00000  Uiso   1.00
N97    N     0.31122   0.62294   0.50000   0.00000  Uiso   1.00
N98    N     0.42788   0.50585   0.50000   0.00000  Uiso   1.00
C99    C     0.35511   0.64439   0.50000   0.00000  Uiso   1.00
C100   C     0.24119   0.62112   0.50000   0.00000  Uiso   1.00
C101   C     0.35626   0.57451   0.50000   0.00000  Uiso   1.00
C102   C     0.37864   0.55161   0.50000   0.00000  Uiso   1.00
C103   C     0.42413   0.57379   0.50000   0.00000  Uiso   1.00
C104   C     0.44679   0.61924   0.50000   0.00000  Uiso   1.00
C105   C     0.42444   0.64216   0.50000   0.00000  Uiso   1.00
C106   C     0.10173   0.55183   0.50000   0.00000  Uiso   1.00
C107   C     0.46132   0.49904   0.50000   0.00000  Uiso   1.00
C108   C     0.49924   0.53806   0.50000   0.00000  Uiso   1.00
C109   C     0.46027   0.45926   0.50000   0.00000  Uiso   1.00
H110   H     0.32119   0.55661   0.50000   0.00000  Uiso   1.00
H111   H     0.36048   0.51653   0.50000   0.00000  Uiso   1.00
H112   H     0.48191   0.63684   0.50000   0.00000  Uiso   1.00
H113   H     0.44275   0.67722   0.50000   0.00000  Uiso   1.00
H114   H     0.43043   0.42858   0.50000   0.00000  Uiso   1.00
loop_
_geom_bond_atom_site_label_1
_geom_bond_atom_site_label_2
_geom_bond_distance
_geom_bond_site_symmetry_2
_ccdc_geom_bond_type
O1     C13     1.309   .     S
O1     C30     1.335   .     S
N2     C4      1.355   .     D
N2     C42     1.355   .     S
N3     C12     1.330   .     S
N3     C30     1.362   .     D
C4     N21     1.355   .     S
C4     C24     1.485   .     S
C5     C42     1.485   .     S
C5     C44     1.407   .     S
C5     C48     1.407   .     D
C6     C7      1.398   .     S
C6     H15     1.083   .     S
C6     C24     1.407   .     D
C7     C8      1.405   .     D
C7     H16     1.083   .     S
C8     C9      1.403   .     S
C8     C30     1.480   .     S
C9     C10     1.398   .     D
C9     H17     1.085   .     S
C10    H18     1.083   .     S
C10    C24     1.407   .     S
C11    O39     1.335   .     S
C11    N41     1.362   .     D
C11    C46     1.480   .     S
C12    C13     1.372   .     D
C12    C14     1.400   1_545 S
C13    C71     1.398   .     S
C14    C12     1.400   1_565 S
C14    H19     1.079   .     S
C14    C70     1.398   .     D
O20    C32     1.309   .     S
O20    C49     1.335   .     S
N21    C23     1.355   .     D
N22    C31     1.330   .     S
N22    C49     1.362   .     D
C23    N40     1.355   .     S
C23    C43     1.485   .     S
C25    C26     1.398   .     S
C25    H34     1.083   .     S
C25    C43     1.407   .     D
C26    C27     1.405   .     D
C26    H35     1.083   .     S
C27    C28     1.403   .     S
C27    C49     1.480   .     S
C28    C29     1.398   .     D
C28    H36     1.084   .     S
C29    H37     1.083   .     S
C29    C43     1.407   .     S
C31    C32     1.372   .     D
C31    C33     1.400   1_655 S
C32    C90     1.398   .     S
C33    C31     1.400   1_455 S
C33    H38     1.079   .     S
C33    C89     1.398   .     D
O39    C51     1.309   .     S
N40    C42     1.355   .     D
N41    C50     1.330   .     S
C44    C45     1.398   .     D
C44    H53     1.083   .     S
C45    C46     1.405   .     S
C45    H54     1.083   .     S
C46    C47     1.403   .     D
C47    C48     1.398   .     S
C47    H55     1.084   .     S
C48    H56     1.083   .     S
C50    C51     1.372   .     S
C50    C52     1.400   .     D
C51    C109    1.398   .     D
C52    H57     1.079   .     S
C52    C108    1.398   .     S
O58    C70     1.309   .     S
O58    C87     1.335   .     S
N59    C61     1.355   .     S
N59    C99     1.355   .     D
N60    C69     1.330   .     S
N60    C87     1.362   .     D
C61    N78     1.355   .     D
C61    C81     1.485   .     S
C62    C99     1.485   .     S
C62    C101    1.407   .     S
C62    C105    1.407   .     D
C63    C64     1.398   .     S
C63    H72     1.083   .     S
C63    C81     1.407   .     D
C64    C65     1.405   .     D
C64    H73     1.083   .     S
C65    C66     1.403   .     S
C65    C87     1.480   .     S
C66    C67     1.398   .     D
C66    H74     1.084   .     S
C67    H75     1.083   .     S
C67    C81     1.407   .     S
C68    O96     1.335   .     S
C68    N98     1.362   .     D
C68    C103    1.480   .     S
C69    C70     1.372   .     S
C69    C71     1.400   1_565 D
C71    C69     1.400   1_545 D
C71    H76     1.079   .     S
O77    C89     1.309   .     S
O77    C106    1.335   .     S
N78    C80     1.355   .     S
N79    C88     1.330   .     S
N79    C106    1.362   .     D
C80    N97     1.355   .     D
C80    C100    1.485   .     S
C82    C83     1.398   .     S
C82    H91     1.083   .     S
C82    C100    1.407   .     D
C83    C84     1.405   .     D
C83    H92     1.084   .     S
C84    C85     1.403   .     S
C84    C106    1.480   .     S
C85    C86     1.398   .     D
C85    H93     1.084   .     S
C86    H94     1.083   .     S
C86    C100    1.407   .     S
C88    C89     1.372   .     S
C88    C90     1.400   1_455 D
C90    C88     1.400   1_655 D
C90    H95     1.079   .     S
O96    C108    1.309   .     S
N97    C99     1.355   .     S
N98    C107    1.330   .     S
C101   C102    1.398   .     D
C101   H110    1.083   .     S
C102   C103    1.405   .     S
C102   H111    1.083   .     S
C103   C104    1.404   .     D
C104   C105    1.398   .     S
C104   H112    1.084   .     S
C105   H113    1.083   .     S
C107   C108    1.372   .     D
C107   C109    1.400   .     S
C109   H114    1.079   .     S
