data_582
_audit_creation_date              2023-09-08
_audit_creation_method            'Materials Studio'
_symmetry_space_group_name_H-M    'P1'
_symmetry_Int_Tables_number       1
_symmetry_cell_setting            triclinic
loop_
_symmetry_equiv_pos_as_xyz
  x,y,z
_cell_length_a                    43.2600
_cell_length_b                    43.2600
_cell_length_c                    3.4400
_cell_angle_alpha                 90.0000
_cell_angle_beta                  90.0000
_cell_angle_gamma                 120.0000
loop_
_atom_site_label
_atom_site_type_symbol
_atom_site_fract_x
_atom_site_fract_y
_atom_site_fract_z
_atom_site_U_iso_or_equiv
_atom_site_adp_type
_atom_site_occupancy
N1     N     0.64530   0.29901   0.00000   0.00000  Uiso   1.00
C2     C     0.68046   0.31133   0.00000   0.00000  Uiso   1.00
O3     O     0.59470   0.30333   0.00000   0.00000  Uiso   1.00
C4     C     0.68080   0.25524   0.00000   0.00000  Uiso   1.00
C5     C     0.64360   0.23416   0.00000   0.00000  Uiso   1.00
C6     C     0.62680   0.19822   0.00000   0.00000  Uiso   1.00
C7     C     0.64566   0.17926   0.00000   0.00000  Uiso   1.00
C8     C     0.68336   0.19927   0.00000   0.00000  Uiso   1.00
C9     C     0.70069   0.23728   0.00000   0.00000  Uiso   1.00
C10    C     0.62187   0.14233   0.00000   0.00000  Uiso   1.00
N11    N     0.61977   0.11013   0.00000   0.00000  Uiso   1.00
C12    C     0.92060   0.50712   0.00000   0.00000  Uiso   1.00
C13    C     0.92111   0.47413   0.00000   0.00000  Uiso   1.00
C14    C     0.95156   0.47182   0.00000   0.00000  Uiso   1.00
C15    C     0.98503   0.50253   0.00000   0.00000  Uiso   1.00
C16    C     0.98544   0.53593   0.00000   0.00000  Uiso   1.00
C17    C     0.95428   0.53838   0.00000   0.00000  Uiso   1.00
O18    O     0.61333   0.04187   0.00000   0.00000  Uiso   1.00
H19    H     0.63708   0.06333   0.00000   0.00000  Uiso   1.00
H20    H     0.69786   0.18649   0.00000   0.00000  Uiso   1.00
H21    H     0.59928   0.18621   0.00000   0.00000  Uiso   1.00
H22    H     0.62588   0.24243   0.00000   0.00000  Uiso   1.00
H23    H     0.72788   0.25219   0.00000   0.00000  Uiso   1.00
H24    H     0.55190   0.99188   0.00000   0.00000  Uiso   1.00
H25    H     0.49888   0.05227   0.00000   0.00000  Uiso   1.00
H26    H     0.54931   0.10027   0.00000   0.00000  Uiso   1.00
H27    H     0.40201   0.86115   0.00000   0.00000  Uiso   1.00
N28    N     0.70099   0.34628   0.00000   0.00000  Uiso   1.00
C29    C     0.68867   0.36913   0.00000   0.00000  Uiso   1.00
O30    O     0.69667   0.29138   0.00000   0.00000  Uiso   1.00
C31    C     0.74476   0.42556   0.00000   0.00000  Uiso   1.00
C32    C     0.76584   0.40944   0.00000   0.00000  Uiso   1.00
C33    C     0.80178   0.42857   0.00000   0.00000  Uiso   1.00
C34    C     0.82075   0.46640   0.00000   0.00000  Uiso   1.00
C35    C     0.80073   0.48409   0.00000   0.00000  Uiso   1.00
C36    C     0.76272   0.46341   0.00000   0.00000  Uiso   1.00
C37    C     0.85767   0.47953   0.00000   0.00000  Uiso   1.00
N38    N     0.88987   0.50964   0.00000   0.00000  Uiso   1.00
C39    C     0.49288   0.41347   0.00000   0.00000  Uiso   1.00
C40    C     0.52587   0.44698   0.00000   0.00000  Uiso   1.00
C41    C     0.52818   0.47974   0.00000   0.00000  Uiso   1.00
C42    C     0.49747   0.48250   0.00000   0.00000  Uiso   1.00
C43    C     0.46407   0.44950   0.00000   0.00000  Uiso   1.00
C44    C     0.46162   0.41590   0.00000   0.00000  Uiso   1.00
O45    O     0.95813   0.57146   0.00000   0.00000  Uiso   1.00
H46    H     0.93667   0.57375   0.00000   0.00000  Uiso   1.00
H47    H     0.81351   0.51137   0.00000   0.00000  Uiso   1.00
H48    H     0.81379   0.41307   0.00000   0.00000  Uiso   1.00
H49    H     0.75757   0.38345   0.00000   0.00000  Uiso   1.00
H50    H     0.74781   0.47569   0.00000   0.00000  Uiso   1.00
H51    H     0.00812   0.56002   0.00000   0.00000  Uiso   1.00
H52    H     0.94773   0.44661   0.00000   0.00000  Uiso   1.00
H53    H     0.89973   0.44904   0.00000   0.00000  Uiso   1.00
H54    H     0.13885   0.54086   0.00000   0.00000  Uiso   1.00
N55    N     0.65372   0.35470   0.00000   0.00000  Uiso   1.00
C56    C     0.63087   0.31954   0.00000   0.00000  Uiso   1.00
O57    O     0.70863   0.40530   0.00000   0.00000  Uiso   1.00
C58    C     0.57444   0.31920   0.00000   0.00000  Uiso   1.00
C59    C     0.59056   0.35640   0.00000   0.00000  Uiso   1.00
C60    C     0.57143   0.37320   0.00000   0.00000  Uiso   1.00
C61    C     0.53360   0.35434   0.00000   0.00000  Uiso   1.00
C62    C     0.51591   0.31664   0.00000   0.00000  Uiso   1.00
C63    C     0.53659   0.29931   0.00000   0.00000  Uiso   1.00
C64    C     0.52047   0.37813   0.00000   0.00000  Uiso   1.00
N65    N     0.49036   0.38023   0.00000   0.00000  Uiso   1.00
C66    C     0.58653   0.07940   0.00000   0.00000  Uiso   1.00
C67    C     0.55302   0.07889   0.00000   0.00000  Uiso   1.00
C68    C     0.52026   0.04844   0.00000   0.00000  Uiso   1.00
C69    C     0.51750   0.01498   0.00000   0.00000  Uiso   1.00
C70    C     0.55050   0.01456   0.00000   0.00000  Uiso   1.00
C71    C     0.58411   0.04572   0.00000   0.00000  Uiso   1.00
O72    O     0.42854   0.38667   0.00000   0.00000  Uiso   1.00
H73    H     0.42625   0.36292   0.00000   0.00000  Uiso   1.00
H74    H     0.48863   0.30215   0.00000   0.00000  Uiso   1.00
H75    H     0.58694   0.40072   0.00000   0.00000  Uiso   1.00
H76    H     0.61655   0.37412   0.00000   0.00000  Uiso   1.00
H77    H     0.52431   0.27212   0.00000   0.00000  Uiso   1.00
H78    H     0.43998   0.44810   0.00000   0.00000  Uiso   1.00
H79    H     0.55339   0.50112   0.00000   0.00000  Uiso   1.00
H80    H     0.55096   0.45069   0.00000   0.00000  Uiso   1.00
H81    H     0.45915   0.59800   0.00000   0.00000  Uiso   1.00
N82    N     0.35470   0.70099   0.00000   0.00000  Uiso   1.00
C83    C     0.31954   0.68867   0.00000   0.00000  Uiso   1.00
O84    O     0.40530   0.69667   0.00000   0.00000  Uiso   1.00
C85    C     0.31920   0.74476   0.00000   0.00000  Uiso   1.00
C86    C     0.35640   0.76584   0.00000   0.00000  Uiso   1.00
C87    C     0.37320   0.80178   0.00000   0.00000  Uiso   1.00
C88    C     0.35434   0.82075   0.00000   0.00000  Uiso   1.00
C89    C     0.31664   0.80073   0.00000   0.00000  Uiso   1.00
C90    C     0.29931   0.76272   0.00000   0.00000  Uiso   1.00
C91    C     0.37813   0.85767   0.00000   0.00000  Uiso   1.00
N92    N     0.38023   0.88987   0.00000   0.00000  Uiso   1.00
C93    C     0.07940   0.49288   0.00000   0.00000  Uiso   1.00
C94    C     0.07889   0.52587   0.00000   0.00000  Uiso   1.00
C95    C     0.04844   0.52818   0.00000   0.00000  Uiso   1.00
C96    C     0.01498   0.49747   0.00000   0.00000  Uiso   1.00
C97    C     0.01456   0.46407   0.00000   0.00000  Uiso   1.00
C98    C     0.04572   0.46162   0.00000   0.00000  Uiso   1.00
O99    O     0.38667   0.95813   0.00000   0.00000  Uiso   1.00
H100   H     0.36292   0.93667   0.00000   0.00000  Uiso   1.00
H101   H     0.30215   0.81351   0.00000   0.00000  Uiso   1.00
H102   H     0.40072   0.81379   0.00000   0.00000  Uiso   1.00
H103   H     0.37412   0.75757   0.00000   0.00000  Uiso   1.00
H104   H     0.27212   0.74781   0.00000   0.00000  Uiso   1.00
H105   H     0.44810   0.00812   0.00000   0.00000  Uiso   1.00
H106   H     0.50112   0.94773   0.00000   0.00000  Uiso   1.00
H107   H     0.45069   0.89973   0.00000   0.00000  Uiso   1.00
H108   H     0.59800   0.13885   0.00000   0.00000  Uiso   1.00
N109   N     0.29902   0.65372   0.00000   0.00000  Uiso   1.00
C110   C     0.31133   0.63087   0.00000   0.00000  Uiso   1.00
O111   O     0.30333   0.70863   0.00000   0.00000  Uiso   1.00
C112   C     0.25524   0.57444   0.00000   0.00000  Uiso   1.00
C113   C     0.23416   0.59056   0.00000   0.00000  Uiso   1.00
C114   C     0.19822   0.57143   0.00000   0.00000  Uiso   1.00
C115   C     0.17926   0.53360   0.00000   0.00000  Uiso   1.00
C116   C     0.19927   0.51591   0.00000   0.00000  Uiso   1.00
C117   C     0.23728   0.53659   0.00000   0.00000  Uiso   1.00
C118   C     0.14233   0.52046   0.00000   0.00000  Uiso   1.00
N119   N     0.11013   0.49036   0.00000   0.00000  Uiso   1.00
C120   C     0.50712   0.58653   0.00000   0.00000  Uiso   1.00
C121   C     0.47413   0.55302   0.00000   0.00000  Uiso   1.00
C122   C     0.47183   0.52026   0.00000   0.00000  Uiso   1.00
C123   C     0.50253   0.51750   0.00000   0.00000  Uiso   1.00
C124   C     0.53593   0.55050   0.00000   0.00000  Uiso   1.00
C125   C     0.53838   0.58410   0.00000   0.00000  Uiso   1.00
O126   O     0.04187   0.42854   0.00000   0.00000  Uiso   1.00
H127   H     0.06333   0.42625   0.00000   0.00000  Uiso   1.00
H128   H     0.18649   0.48863   0.00000   0.00000  Uiso   1.00
H129   H     0.18621   0.58693   0.00000   0.00000  Uiso   1.00
H130   H     0.24243   0.61655   0.00000   0.00000  Uiso   1.00
H131   H     0.25219   0.52431   0.00000   0.00000  Uiso   1.00
H132   H     0.99188   0.43998   0.00000   0.00000  Uiso   1.00
H133   H     0.05227   0.55339   0.00000   0.00000  Uiso   1.00
H134   H     0.10027   0.55096   0.00000   0.00000  Uiso   1.00
H135   H     0.86115   0.45914   0.00000   0.00000  Uiso   1.00
N136   N     0.34628   0.64530   0.00000   0.00000  Uiso   1.00
C137   C     0.36913   0.68046   0.00000   0.00000  Uiso   1.00
O138   O     0.29138   0.59470   0.00000   0.00000  Uiso   1.00
C139   C     0.42557   0.68080   0.00000   0.00000  Uiso   1.00
C140   C     0.40944   0.64360   0.00000   0.00000  Uiso   1.00
C141   C     0.42858   0.62680   0.00000   0.00000  Uiso   1.00
C142   C     0.46640   0.64566   0.00000   0.00000  Uiso   1.00
C143   C     0.48409   0.68336   0.00000   0.00000  Uiso   1.00
C144   C     0.46341   0.70069   0.00000   0.00000  Uiso   1.00
C145   C     0.47954   0.62187   0.00000   0.00000  Uiso   1.00
N146   N     0.50964   0.61977   0.00000   0.00000  Uiso   1.00
C147   C     0.41347   0.92060   0.00000   0.00000  Uiso   1.00
C148   C     0.44698   0.92111   0.00000   0.00000  Uiso   1.00
C149   C     0.47974   0.95156   0.00000   0.00000  Uiso   1.00
C150   C     0.48250   0.98503   0.00000   0.00000  Uiso   1.00
C151   C     0.44951   0.98544   0.00000   0.00000  Uiso   1.00
C152   C     0.41590   0.95428   0.00000   0.00000  Uiso   1.00
O153   O     0.57146   0.61333   0.00000   0.00000  Uiso   1.00
H154   H     0.57375   0.63708   0.00000   0.00000  Uiso   1.00
H155   H     0.51137   0.69786   0.00000   0.00000  Uiso   1.00
H156   H     0.41307   0.59928   0.00000   0.00000  Uiso   1.00
H157   H     0.38345   0.62588   0.00000   0.00000  Uiso   1.00
H158   H     0.47569   0.72788   0.00000   0.00000  Uiso   1.00
H159   H     0.56002   0.55190   0.00000   0.00000  Uiso   1.00
H160   H     0.44661   0.49888   0.00000   0.00000  Uiso   1.00
H161   H     0.44904   0.54931   0.00000   0.00000  Uiso   1.00
H162   H     0.54086   0.40200   0.00000   0.00000  Uiso   1.00
loop_
_geom_bond_atom_site_label_1
_geom_bond_atom_site_label_2
_geom_bond_distance
_geom_bond_site_symmetry_2
_ccdc_geom_bond_type
N1     C2      1.337   .     D
N1     C56     1.316   .     S
C2     N28     1.316   .     S
C2     O30     1.357   .     S
O3     C56     1.357   .     S
O3     C58     1.357   .     S
C4     C5      1.398   .     D
C4     C9      1.418   .     S
C4     O30     1.357   .     S
C5     C6      1.347   .     S
C5     H22     0.995   .     S
C6     C7      1.417   .     D
C6     H21     1.034   .     S
C7     C8      1.413   .     S
C7     C10     1.402   .     S
C8     C9      1.426   .     D
C8     H20     1.023   .     S
C9     H23     1.020   .     S
C10    N11     1.350   .     D
C10    H108    0.966   .     S
N11    C66     1.387   .     S
C12    C13     1.439   .     D
C12    C17     1.408   .     S
C12    N38     1.387   .     S
C13    C14     1.370   .     S
C13    H53     1.015   .     S
C14    C15     1.392   .     D
C14    H52     1.018   .     S
C15    C16     1.436   .     S
C15    C96     1.418   1_655 S
C16    C17     1.404   .     D
C16    H51     1.013   1_655 S
C17    O45     1.355   .     S
O18    H19     0.982   .     S
O18    C71     1.355   .     S
H24    C70     1.013   1_565 S
H25    C68     1.018   .     S
H26    C67     1.015   .     S
H27    C91     0.966   .     S
N28    C29     1.337   .     D
C29    N55     1.316   .     S
C29    O57     1.357   .     S
C31    C32     1.398   .     D
C31    C36     1.418   .     S
C31    O57     1.357   .     S
C32    C33     1.347   .     S
C32    H49     0.995   .     S
C33    C34     1.417   .     D
C33    H48     1.034   .     S
C34    C35     1.413   .     S
C34    C37     1.402   .     S
C35    C36     1.426   .     D
C35    H47     1.023   .     S
C36    H50     1.020   .     S
C37    N38     1.350   .     D
C37    H135    0.966   .     S
C39    C40     1.439   .     D
C39    C44     1.408   .     S
C39    N65     1.387   .     S
C40    C41     1.370   .     S
C40    H80     1.015   .     S
C41    C42     1.392   .     D
C41    H79     1.018   .     S
C42    C43     1.436   .     S
C42    C123    1.418   .     S
C43    C44     1.404   .     D
C43    H78     1.013   .     S
C44    O72     1.355   .     S
O45    H46     0.982   .     S
H51    C16     1.013   1_455 S
H54    C118    0.966   .     S
N55    C56     1.337   .     D
C58    C59     1.398   .     D
C58    C63     1.418   .     S
C59    C60     1.347   .     S
C59    H76     0.995   .     S
C60    C61     1.417   .     D
C60    H75     1.034   .     S
C61    C62     1.413   .     S
C61    C64     1.402   .     S
C62    C63     1.426   .     D
C62    H74     1.023   .     S
C63    H77     1.020   .     S
C64    N65     1.350   .     D
C64    H162    0.966   .     S
C66    C67     1.439   .     D
C66    C71     1.408   .     S
C67    C68     1.370   .     S
C68    C69     1.392   .     D
C69    C70     1.436   .     S
C69    C150    1.418   1_545 S
C70    H24     1.013   1_545 S
C70    C71     1.404   .     D
O72    H73     0.982   .     S
H81    C145    0.966   .     S
N82    C83     1.337   .     S
N82    C137    1.316   .     D
C83    N109    1.316   .     D
C83    O111    1.357   .     S
O84    C137    1.357   .     S
O84    C139    1.357   .     S
C85    C86     1.398   .     D
C85    C90     1.418   .     S
C85    O111    1.357   .     S
C86    C87     1.347   .     S
C86    H103    0.995   .     S
C87    C88     1.417   .     D
C87    H102    1.034   .     S
C88    C89     1.413   .     S
C88    C91     1.402   .     S
C89    C90     1.426   .     D
C89    H101    1.023   .     S
C90    H104    1.020   .     S
C91    N92     1.350   .     D
N92    C147    1.387   .     S
C93    C94     1.439   .     D
C93    C98     1.408   .     S
C93    N119    1.387   .     S
C94    C95     1.370   .     S
C94    H134    1.015   .     S
C95    C96     1.392   .     D
C95    H133    1.018   .     S
C96    C15     1.418   1_455 S
C96    C97     1.436   .     S
C97    C98     1.404   .     D
C97    H132    1.013   1_455 S
C98    O126    1.355   .     S
O99    H100    0.982   .     S
O99    C152    1.355   .     S
H105   C151    1.013   1_545 S
H106   C149    1.018   .     S
H107   C148    1.015   .     S
N109   C110    1.337   .     S
C110   N136    1.316   .     D
C110   O138    1.357   .     S
C112   C113    1.398   .     D
C112   C117    1.418   .     S
C112   O138    1.357   .     S
C113   C114    1.347   .     S
C113   H130    0.995   .     S
C114   C115    1.417   .     D
C114   H129    1.034   .     S
C115   C116    1.413   .     S
C115   C118    1.402   .     S
C116   C117    1.426   .     D
C116   H128    1.023   .     S
C117   H131    1.020   .     S
C118   N119    1.350   .     D
C120   C121    1.439   .     S
C120   C125    1.408   .     D
C120   N146    1.387   .     S
C121   C122    1.370   .     D
C121   H161    1.015   .     S
C122   C123    1.392   .     S
C122   H160    1.018   .     S
C123   C124    1.436   .     D
C124   C125    1.404   .     S
C124   H159    1.013   .     S
C125   O153    1.355   .     S
O126   H127    0.982   .     S
H132   C97     1.013   1_655 S
N136   C137    1.337   .     S
C139   C140    1.398   .     D
C139   C144    1.418   .     S
C140   C141    1.347   .     S
C140   H157    0.995   .     S
C141   C142    1.417   .     D
C141   H156    1.034   .     S
C142   C143    1.413   .     S
C142   C145    1.402   .     S
C143   C144    1.426   .     D
C143   H155    1.023   .     S
C144   H158    1.020   .     S
C145   N146    1.350   .     D
C147   C148    1.439   .     D
C147   C152    1.408   .     S
C148   C149    1.370   .     S
C149   C150    1.392   .     D
C150   C69     1.418   1_565 S
C150   C151    1.436   .     S
C151   H105    1.013   1_565 S
C151   C152    1.404   .     D
O153   H154    0.982   .     S
