data_583
_audit_creation_date              2023-09-08
_audit_creation_method            'Materials Studio'
_symmetry_space_group_name_H-M    'P1'
_symmetry_Int_Tables_number       1
_symmetry_cell_setting            triclinic
loop_
_symmetry_equiv_pos_as_xyz
  x,y,z
_cell_length_a                    45.0943
_cell_length_b                    45.0943
_cell_length_c                    4.3515
_cell_angle_alpha                 90.0000
_cell_angle_beta                  90.0000
_cell_angle_gamma                 120.0000
loop_
_atom_site_label
_atom_site_type_symbol
_atom_site_fract_x
_atom_site_fract_y
_atom_site_fract_z
_atom_site_U_iso_or_equiv
_atom_site_adp_type
_atom_site_occupancy
C1     C     0.66392   0.30333   0.49951   0.00000  Uiso   1.00
N2     N     0.69328   0.33088   0.50085   0.00000  Uiso   1.00
O3     O     0.61009   0.33550   0.50520   0.00000  Uiso   1.00
C4     C     0.60325   0.35986   0.46006   0.00000  Uiso   1.00
C5     C     0.57306   0.35418   0.57798   0.00000  Uiso   1.00
C6     C     0.56384   0.37792   0.54681   0.00000  Uiso   1.00
C7     C     0.58460   0.40806   0.39412   0.00000  Uiso   1.00
C8     C     0.61465   0.41337   0.27047   0.00000  Uiso   1.00
C9     C     0.62383   0.38960   0.30185   0.00000  Uiso   1.00
C10    C     0.57626   0.43251   0.36362   0.00000  Uiso   1.00
N11    N     0.54819   0.42884   0.48559   0.00000  Uiso   1.00
C12    C     0.53589   0.44912   0.48936   0.00000  Uiso   1.00
C13    C     0.50494   0.43712   0.62800   0.00000  Uiso   1.00
C14    C     0.48954   0.45606   0.64732   0.00000  Uiso   1.00
C15    C     0.50602   0.48884   0.52823   0.00000  Uiso   1.00
C16    C     0.53701   0.50010   0.38608   0.00000  Uiso   1.00
C17    C     0.55179   0.48098   0.36628   0.00000  Uiso   1.00
C18    C     0.45638   0.43871   0.79172   0.00000  Uiso   1.00
H19    H     0.55763   0.33266   0.69002   0.00000  Uiso   1.00
H20    H     0.54179   0.37286   0.63828   0.00000  Uiso   1.00
H21    H     0.63025   0.43467   0.15532   0.00000  Uiso   1.00
H22    H     0.64548   0.39417   0.20520   0.00000  Uiso   1.00
H23    H     0.59198   0.45364   0.24724   0.00000  Uiso   1.00
H24    H     0.49328   0.41381   0.71627   0.00000  Uiso   1.00
H25    H     0.54974   0.52296   0.29446   0.00000  Uiso   1.00
H26    H     0.57423   0.49072   0.26192   0.00000  Uiso   1.00
H27    H     0.44055   0.41775   0.64103   0.00000  Uiso   1.00
H28    H     0.44501   0.45344   0.81266   0.00000  Uiso   1.00
H29    H     0.45730   0.43002   1.03508   0.00000  Uiso   1.00
C30    C     0.69667   0.36059   0.49951   0.00000  Uiso   1.00
N31    N     0.66912   0.36240   0.50085   0.00000  Uiso   1.00
O32    O     0.66450   0.27459   0.50520   0.00000  Uiso   1.00
C33    C     0.64014   0.24339   0.46006   0.00000  Uiso   1.00
C34    C     0.64582   0.21888   0.57798   0.00000  Uiso   1.00
C35    C     0.62208   0.18592   0.54681   0.00000  Uiso   1.00
C36    C     0.59194   0.17654   0.39412   0.00000  Uiso   1.00
C37    C     0.58663   0.20128   0.27047   0.00000  Uiso   1.00
C38    C     0.61040   0.23423   0.30185   0.00000  Uiso   1.00
C39    C     0.56749   0.14375   0.36362   0.00000  Uiso   1.00
N40    N     0.57116   0.11935   0.48559   0.00000  Uiso   1.00
C41    C     0.55088   0.08677   0.48936   0.00000  Uiso   1.00
C42    C     0.56288   0.06782   0.62800   0.00000  Uiso   1.00
C43    C     0.54394   0.03348   0.64732   0.00000  Uiso   1.00
C44    C     0.51116   0.01718   0.52823   0.00000  Uiso   1.00
C45    C     0.49990   0.03691   0.38608   0.00000  Uiso   1.00
C46    C     0.51902   0.07081   0.36628   0.00000  Uiso   1.00
C47    C     0.56129   0.01767   0.79172   0.00000  Uiso   1.00
H48    H     0.66734   0.22497   0.69002   0.00000  Uiso   1.00
H49    H     0.62714   0.16893   0.63828   0.00000  Uiso   1.00
H50    H     0.56533   0.19558   0.15532   0.00000  Uiso   1.00
H51    H     0.60583   0.25131   0.20520   0.00000  Uiso   1.00
H52    H     0.54636   0.13834   0.24724   0.00000  Uiso   1.00
H53    H     0.58619   0.07947   0.71627   0.00000  Uiso   1.00
H54    H     0.47704   0.02678   0.29446   0.00000  Uiso   1.00
H55    H     0.50928   0.08351   0.26192   0.00000  Uiso   1.00
H56    H     0.58225   0.02280   0.64103   0.00000  Uiso   1.00
H57    H     0.54656   0.99157   0.81266   0.00000  Uiso   1.00
H58    H     0.56998   0.02728   1.03508   0.00000  Uiso   1.00
C59    C     0.63941   0.33608   0.49951   0.00000  Uiso   1.00
N60    N     0.63760   0.30672   0.50085   0.00000  Uiso   1.00
O61    O     0.72541   0.38991   0.50520   0.00000  Uiso   1.00
C62    C     0.75661   0.39675   0.46006   0.00000  Uiso   1.00
C63    C     0.78112   0.42694   0.57798   0.00000  Uiso   1.00
C64    C     0.81408   0.43616   0.54681   0.00000  Uiso   1.00
C65    C     0.82346   0.41540   0.39412   0.00000  Uiso   1.00
C66    C     0.79872   0.38535   0.27047   0.00000  Uiso   1.00
C67    C     0.76577   0.37617   0.30185   0.00000  Uiso   1.00
C68    C     0.85625   0.42374   0.36362   0.00000  Uiso   1.00
N69    N     0.88065   0.45181   0.48559   0.00000  Uiso   1.00
C70    C     0.91323   0.46411   0.48936   0.00000  Uiso   1.00
C71    C     0.93218   0.49506   0.62800   0.00000  Uiso   1.00
C72    C     0.96652   0.51046   0.64732   0.00000  Uiso   1.00
C73    C     0.98282   0.49398   0.52823   0.00000  Uiso   1.00
C74    C     0.96309   0.46299   0.38608   0.00000  Uiso   1.00
C75    C     0.92919   0.44821   0.36628   0.00000  Uiso   1.00
C76    C     0.98233   0.54362   0.79172   0.00000  Uiso   1.00
H77    H     0.77503   0.44237   0.69002   0.00000  Uiso   1.00
H78    H     0.83107   0.45821   0.63828   0.00000  Uiso   1.00
H79    H     0.80442   0.36975   0.15532   0.00000  Uiso   1.00
H80    H     0.74869   0.35452   0.20520   0.00000  Uiso   1.00
H81    H     0.86166   0.40802   0.24724   0.00000  Uiso   1.00
H82    H     0.92053   0.50672   0.71627   0.00000  Uiso   1.00
H83    H     0.97322   0.45026   0.29446   0.00000  Uiso   1.00
H84    H     0.91649   0.42577   0.26192   0.00000  Uiso   1.00
H85    H     0.97720   0.55945   0.64103   0.00000  Uiso   1.00
H86    H     0.00843   0.55499   0.81266   0.00000  Uiso   1.00
H87    H     0.97272   0.54270   1.03508   0.00000  Uiso   1.00
C88    C     0.33608   0.69667   0.49951   0.00000  Uiso   1.00
N89    N     0.30672   0.66912   0.50085   0.00000  Uiso   1.00
O90    O     0.38991   0.66450   0.50520   0.00000  Uiso   1.00
C91    C     0.39675   0.64014   0.46006   0.00000  Uiso   1.00
C92    C     0.42694   0.64582   0.57798   0.00000  Uiso   1.00
C93    C     0.43616   0.62208   0.54681   0.00000  Uiso   1.00
C94    C     0.41540   0.59194   0.39412   0.00000  Uiso   1.00
C95    C     0.38535   0.58663   0.27047   0.00000  Uiso   1.00
C96    C     0.37617   0.61040   0.30185   0.00000  Uiso   1.00
C97    C     0.42374   0.56749   0.36362   0.00000  Uiso   1.00
N98    N     0.45181   0.57116   0.48559   0.00000  Uiso   1.00
C99    C     0.46411   0.55088   0.48936   0.00000  Uiso   1.00
C100   C     0.49506   0.56288   0.62800   0.00000  Uiso   1.00
C101   C     0.51046   0.54394   0.64732   0.00000  Uiso   1.00
C102   C     0.49398   0.51116   0.52823   0.00000  Uiso   1.00
C103   C     0.46299   0.49990   0.38608   0.00000  Uiso   1.00
C104   C     0.44821   0.51902   0.36628   0.00000  Uiso   1.00
C105   C     0.54362   0.56129   0.79172   0.00000  Uiso   1.00
H106   H     0.44237   0.66734   0.69002   0.00000  Uiso   1.00
H107   H     0.45821   0.62714   0.63828   0.00000  Uiso   1.00
H108   H     0.36975   0.56533   0.15532   0.00000  Uiso   1.00
H109   H     0.35452   0.60583   0.20520   0.00000  Uiso   1.00
H110   H     0.40802   0.54636   0.24724   0.00000  Uiso   1.00
H111   H     0.50672   0.58619   0.71627   0.00000  Uiso   1.00
H112   H     0.45026   0.47704   0.29446   0.00000  Uiso   1.00
H113   H     0.42577   0.50928   0.26192   0.00000  Uiso   1.00
H114   H     0.55945   0.58225   0.64103   0.00000  Uiso   1.00
H115   H     0.55499   0.54656   0.81266   0.00000  Uiso   1.00
H116   H     0.54270   0.56998   1.03508   0.00000  Uiso   1.00
C117   C     0.30333   0.63941   0.49951   0.00000  Uiso   1.00
N118   N     0.33088   0.63760   0.50085   0.00000  Uiso   1.00
O119   O     0.33550   0.72541   0.50520   0.00000  Uiso   1.00
C120   C     0.35986   0.75661   0.46006   0.00000  Uiso   1.00
C121   C     0.35418   0.78112   0.57798   0.00000  Uiso   1.00
C122   C     0.37792   0.81408   0.54681   0.00000  Uiso   1.00
C123   C     0.40806   0.82346   0.39412   0.00000  Uiso   1.00
C124   C     0.41337   0.79872   0.27047   0.00000  Uiso   1.00
C125   C     0.38960   0.76577   0.30185   0.00000  Uiso   1.00
C126   C     0.43251   0.85625   0.36362   0.00000  Uiso   1.00
N127   N     0.42884   0.88065   0.48559   0.00000  Uiso   1.00
C128   C     0.44912   0.91323   0.48936   0.00000  Uiso   1.00
C129   C     0.43712   0.93218   0.62800   0.00000  Uiso   1.00
C130   C     0.45606   0.96652   0.64732   0.00000  Uiso   1.00
C131   C     0.48884   0.98282   0.52823   0.00000  Uiso   1.00
C132   C     0.50010   0.96309   0.38608   0.00000  Uiso   1.00
C133   C     0.48098   0.92919   0.36628   0.00000  Uiso   1.00
C134   C     0.43871   0.98233   0.79172   0.00000  Uiso   1.00
H135   H     0.33266   0.77503   0.69002   0.00000  Uiso   1.00
H136   H     0.37286   0.83107   0.63828   0.00000  Uiso   1.00
H137   H     0.43467   0.80442   0.15532   0.00000  Uiso   1.00
H138   H     0.39417   0.74869   0.20520   0.00000  Uiso   1.00
H139   H     0.45364   0.86166   0.24724   0.00000  Uiso   1.00
H140   H     0.41381   0.92053   0.71627   0.00000  Uiso   1.00
H141   H     0.52296   0.97322   0.29446   0.00000  Uiso   1.00
H142   H     0.49072   0.91649   0.26192   0.00000  Uiso   1.00
H143   H     0.41775   0.97720   0.64103   0.00000  Uiso   1.00
H144   H     0.45344   0.00843   0.81266   0.00000  Uiso   1.00
H145   H     0.43002   0.97272   1.03508   0.00000  Uiso   1.00
C146   C     0.36059   0.66392   0.49951   0.00000  Uiso   1.00
N147   N     0.36240   0.69328   0.50085   0.00000  Uiso   1.00
O148   O     0.27459   0.61009   0.50520   0.00000  Uiso   1.00
C149   C     0.24339   0.60325   0.46006   0.00000  Uiso   1.00
C150   C     0.21888   0.57306   0.57798   0.00000  Uiso   1.00
C151   C     0.18592   0.56384   0.54681   0.00000  Uiso   1.00
C152   C     0.17654   0.58460   0.39412   0.00000  Uiso   1.00
C153   C     0.20128   0.61465   0.27047   0.00000  Uiso   1.00
C154   C     0.23423   0.62383   0.30185   0.00000  Uiso   1.00
C155   C     0.14375   0.57626   0.36362   0.00000  Uiso   1.00
N156   N     0.11935   0.54819   0.48559   0.00000  Uiso   1.00
C157   C     0.08677   0.53589   0.48936   0.00000  Uiso   1.00
C158   C     0.06782   0.50494   0.62800   0.00000  Uiso   1.00
C159   C     0.03348   0.48954   0.64732   0.00000  Uiso   1.00
C160   C     0.01718   0.50602   0.52823   0.00000  Uiso   1.00
C161   C     0.03691   0.53701   0.38608   0.00000  Uiso   1.00
C162   C     0.07081   0.55179   0.36628   0.00000  Uiso   1.00
C163   C     0.01767   0.45638   0.79172   0.00000  Uiso   1.00
H164   H     0.22497   0.55763   0.69002   0.00000  Uiso   1.00
H165   H     0.16893   0.54179   0.63828   0.00000  Uiso   1.00
H166   H     0.19558   0.63025   0.15532   0.00000  Uiso   1.00
H167   H     0.25131   0.64548   0.20520   0.00000  Uiso   1.00
H168   H     0.13834   0.59198   0.24724   0.00000  Uiso   1.00
H169   H     0.07947   0.49328   0.71627   0.00000  Uiso   1.00
H170   H     0.02678   0.54974   0.29446   0.00000  Uiso   1.00
H171   H     0.08351   0.57423   0.26192   0.00000  Uiso   1.00
H172   H     0.02280   0.44055   0.64103   0.00000  Uiso   1.00
H173   H     0.99157   0.44501   0.81266   0.00000  Uiso   1.00
H174   H     0.02728   0.45730   1.03508   0.00000  Uiso   1.00
loop_
_geom_bond_atom_site_label_1
_geom_bond_atom_site_label_2
_geom_bond_distance
_geom_bond_site_symmetry_2
_ccdc_geom_bond_type
C1     N2      1.285   .     S
C1     O32     1.310   .     S
C1     N60     1.270   .     D
N2     C30     1.270   .     D
O3     C4      1.296   .     S
O3     C59     1.310   .     S
C4     C5      1.354   .     D
C4     C9      1.374   .     S
C5     C6      1.335   .     S
C5     H19     0.994   .     S
C6     C7      1.376   .     D
C6     H20     0.986   .     S
C7     C8      1.363   .     S
C7     C10     1.338   .     S
C8     C9      1.335   .     D
C8     H21     0.996   .     S
C9     H22     0.986   .     S
C10    N11     1.305   .     D
C10    H23     0.996   .     S
N11    C12     1.285   .     S
C12    C13     1.360   .     D
C12    C17     1.355   .     S
C13    C14     1.346   .     S
C13    H24     0.988   .     S
C14    C15     1.381   .     D
C14    C18     1.440   .     S
C15    C16     1.373   .     S
C15    C102    1.362   .     S
C16    C17     1.330   .     D
C16    H25     0.979   .     S
C17    H26     0.989   .     S
C18    H27     1.076   .     S
C18    H28     1.026   .     S
C18    H29     1.137   .     S
C30    N31     1.285   .     S
C30    O61     1.310   .     S
N31    C59     1.270   .     D
O32    C33     1.296   .     S
C33    C34     1.354   .     D
C33    C38     1.374   .     S
C34    C35     1.335   .     S
C34    H48     0.994   .     S
C35    C36     1.376   .     D
C35    H49     0.986   .     S
C36    C37     1.363   .     S
C36    C39     1.338   .     S
C37    C38     1.335   .     D
C37    H50     0.996   .     S
C38    H51     0.986   .     S
C39    N40     1.305   .     D
C39    H52     0.996   .     S
N40    C41     1.285   .     S
C41    C42     1.360   .     D
C41    C46     1.355   .     S
C42    C43     1.346   .     S
C42    H53     0.988   .     S
C43    C44     1.381   .     D
C43    C47     1.440   .     S
C44    C45     1.373   .     S
C44    C131    1.362   1_545 S
C45    C46     1.330   .     D
C45    H54     0.979   .     S
C46    H55     0.989   .     S
C47    H56     1.076   .     S
C47    H57     1.026   1_545 S
C47    H58     1.137   .     S
H57    C47     1.026   1_565 S
C59    N60     1.285   .     S
O61    C62     1.296   .     S
C62    C63     1.354   .     D
C62    C67     1.374   .     S
C63    C64     1.335   .     S
C63    H77     0.994   .     S
C64    C65     1.376   .     D
C64    H78     0.986   .     S
C65    C66     1.363   .     S
C65    C68     1.338   .     S
C66    C67     1.335   .     D
C66    H79     0.996   .     S
C67    H80     0.986   .     S
C68    N69     1.305   .     D
C68    H81     0.996   .     S
N69    C70     1.285   .     S
C70    C71     1.360   .     D
C70    C75     1.355   .     S
C71    C72     1.346   .     S
C71    H82     0.988   .     S
C72    C73     1.381   .     D
C72    C76     1.440   .     S
C73    C74     1.373   .     S
C73    C160    1.362   1_655 S
C74    C75     1.330   .     D
C74    H83     0.979   .     S
C75    H84     0.989   .     S
C76    H85     1.076   .     S
C76    H86     1.026   1_655 S
C76    H87     1.137   .     S
H86    C76     1.026   1_455 S
C88    N89     1.285   .     S
C88    O119    1.310   .     S
C88    N147    1.270   .     D
N89    C117    1.270   .     D
O90    C91     1.296   .     S
O90    C146    1.310   .     S
C91    C92     1.354   .     D
C91    C96     1.374   .     S
C92    C93     1.335   .     S
C92    H106    0.994   .     S
C93    C94     1.376   .     D
C93    H107    0.986   .     S
C94    C95     1.363   .     S
C94    C97     1.338   .     S
C95    C96     1.335   .     D
C95    H108    0.996   .     S
C96    H109    0.986   .     S
C97    N98     1.305   .     D
C97    H110    0.996   .     S
N98    C99     1.285   .     S
C99    C100    1.360   .     D
C99    C104    1.355   .     S
C100   C101    1.346   .     S
C100   H111    0.988   .     S
C101   C102    1.381   .     D
C101   C105    1.440   .     S
C102   C103    1.373   .     S
C103   C104    1.330   .     D
C103   H112    0.979   .     S
C104   H113    0.989   .     S
C105   H114    1.076   .     S
C105   H115    1.026   .     S
C105   H116    1.137   .     S
C117   N118    1.285   .     S
C117   O148    1.310   .     S
N118   C146    1.270   .     D
O119   C120    1.296   .     S
C120   C121    1.354   .     D
C120   C125    1.374   .     S
C121   C122    1.335   .     S
C121   H135    0.994   .     S
C122   C123    1.376   .     D
C122   H136    0.986   .     S
C123   C124    1.363   .     S
C123   C126    1.338   .     S
C124   C125    1.335   .     D
C124   H137    0.996   .     S
C125   H138    0.986   .     S
C126   N127    1.305   .     D
C126   H139    0.996   .     S
N127   C128    1.285   .     S
C128   C129    1.360   .     D
C128   C133    1.355   .     S
C129   C130    1.346   .     S
C129   H140    0.988   .     S
C130   C131    1.381   .     D
C130   C134    1.440   .     S
C131   C44     1.362   1_565 S
C131   C132    1.373   .     S
C132   C133    1.330   .     D
C132   H141    0.979   .     S
C133   H142    0.989   .     S
C134   H143    1.076   .     S
C134   H144    1.026   1_565 S
C134   H145    1.137   .     S
H144   C134    1.026   1_545 S
C146   N147    1.285   .     S
O148   C149    1.296   .     S
C149   C150    1.354   .     S
C149   C154    1.374   .     D
C150   C151    1.335   .     D
C150   H164    0.994   .     S
C151   C152    1.376   .     S
C151   H165    0.986   .     S
C152   C153    1.363   .     D
C152   C155    1.338   .     S
C153   C154    1.335   .     S
C153   H166    0.996   .     S
C154   H167    0.986   .     S
C155   N156    1.305   .     D
C155   H168    0.996   .     S
N156   C157    1.285   .     S
C157   C158    1.360   .     S
C157   C162    1.355   .     D
C158   C159    1.346   .     D
C158   H169    0.988   .     S
C159   C160    1.381   .     S
C159   C163    1.440   .     S
C160   C73     1.362   1_455 S
C160   C161    1.373   .     D
C161   C162    1.330   .     S
C161   H170    0.979   .     S
C162   H171    0.989   .     S
C163   H172    1.076   .     S
C163   H173    1.026   1_455 S
C163   H174    1.137   .     S
H173   C163    1.026   1_655 S
