data_584
_audit_creation_date              2023-09-08
_audit_creation_method            'Materials Studio'
_symmetry_space_group_name_H-M    'P1'
_symmetry_Int_Tables_number       1
_symmetry_cell_setting            triclinic
loop_
_symmetry_equiv_pos_as_xyz
  x,y,z
_cell_length_a                    32.9600
_cell_length_b                    32.9600
_cell_length_c                    3.5000
_cell_angle_alpha                 90.0000
_cell_angle_beta                  90.0000
_cell_angle_gamma                 120.0000
loop_
_atom_site_label
_atom_site_type_symbol
_atom_site_fract_x
_atom_site_fract_y
_atom_site_fract_z
_atom_site_U_iso_or_equiv
_atom_site_adp_type
_atom_site_occupancy
C1     C     0.01298   0.55184   0.49924   0.00000  Uiso   1.00
C2     C     0.10366   0.57771   0.50012   0.00000  Uiso   1.00
O3     O     0.11645   0.62856   0.49929   0.00000  Uiso   1.00
N4     N     0.19156   0.60212   0.50011   0.00000  Uiso   1.00
C5     C     0.22952   0.58920   0.49989   0.00000  Uiso   1.00
C6     C     0.28143   0.62787   0.49975   0.00000  Uiso   1.00
C7     C     0.29475   0.67982   0.49989   0.00000  Uiso   1.00
O8     O     0.25697   0.69299   0.49988   0.00000  Uiso   1.00
H9     H     0.20106   0.63953   0.49996   0.00000  Uiso   1.00
H10    H     0.21976   0.55078   0.49983   0.00000  Uiso   1.00
C11    C     0.44816   0.46114   0.49924   0.00000  Uiso   1.00
C12    C     0.48702   0.44817   0.49873   0.00000  Uiso   1.00
C13    C     0.53885   0.48703   0.50006   0.00000  Uiso   1.00
C14    C     0.42229   0.52595   0.50012   0.00000  Uiso   1.00
O15    O     0.37144   0.48789   0.49929   0.00000  Uiso   1.00
N16    N     0.56493   0.42323   0.49947   0.00000  Uiso   1.00
N17    N     0.39788   0.58944   0.50011   0.00000  Uiso   1.00
C18    C     0.41080   0.64032   0.49989   0.00000  Uiso   1.00
C19    C     0.37213   0.65356   0.49975   0.00000  Uiso   1.00
C20    C     0.32018   0.61493   0.49989   0.00000  Uiso   1.00
O21    O     0.30701   0.56398   0.49988   0.00000  Uiso   1.00
H22    H     0.47742   0.40980   0.49737   0.00000  Uiso   1.00
H23    H     0.52755   0.39525   0.49885   0.00000  Uiso   1.00
H24    H     0.36047   0.56153   0.49996   0.00000  Uiso   1.00
H25    H     0.44922   0.66898   0.49983   0.00000  Uiso   1.00
C26    C     0.53886   0.98702   0.49924   0.00000  Uiso   1.00
C27    C     0.47405   0.89634   0.50012   0.00000  Uiso   1.00
O28    O     0.51211   0.88355   0.49929   0.00000  Uiso   1.00
N29    N     0.41056   0.80844   0.50011   0.00000  Uiso   1.00
C30    C     0.35968   0.77048   0.49989   0.00000  Uiso   1.00
C31    C     0.34644   0.71857   0.49975   0.00000  Uiso   1.00
C32    C     0.38507   0.70525   0.49989   0.00000  Uiso   1.00
O33    O     0.43602   0.74303   0.49988   0.00000  Uiso   1.00
H34    H     0.43847   0.79894   0.49996   0.00000  Uiso   1.00
H35    H     0.33102   0.78024   0.49983   0.00000  Uiso   1.00
C36    C     0.98702   0.44816   0.49924   0.00000  Uiso   1.00
C37    C     0.89634   0.42229   0.50012   0.00000  Uiso   1.00
O38    O     0.88355   0.37144   0.49929   0.00000  Uiso   1.00
N39    N     0.80844   0.39788   0.50011   0.00000  Uiso   1.00
C40    C     0.77048   0.41080   0.49989   0.00000  Uiso   1.00
C41    C     0.71857   0.37213   0.49975   0.00000  Uiso   1.00
C42    C     0.70525   0.32018   0.49989   0.00000  Uiso   1.00
O43    O     0.74303   0.30701   0.49988   0.00000  Uiso   1.00
H44    H     0.79894   0.36047   0.49996   0.00000  Uiso   1.00
H45    H     0.78024   0.44922   0.49983   0.00000  Uiso   1.00
C46    C     0.55184   0.53886   0.49924   0.00000  Uiso   1.00
C47    C     0.51298   0.55183   0.49873   0.00000  Uiso   1.00
C48    C     0.46115   0.51297   0.50006   0.00000  Uiso   1.00
C49    C     0.57771   0.47405   0.50012   0.00000  Uiso   1.00
O50    O     0.62856   0.51211   0.49929   0.00000  Uiso   1.00
N51    N     0.43507   0.57677   0.49947   0.00000  Uiso   1.00
N52    N     0.60212   0.41056   0.50011   0.00000  Uiso   1.00
C53    C     0.58920   0.35968   0.49989   0.00000  Uiso   1.00
C54    C     0.62787   0.34644   0.49975   0.00000  Uiso   1.00
C55    C     0.67982   0.38507   0.49989   0.00000  Uiso   1.00
O56    O     0.69299   0.43602   0.49988   0.00000  Uiso   1.00
H57    H     0.52258   0.59020   0.49737   0.00000  Uiso   1.00
H58    H     0.47245   0.60475   0.49885   0.00000  Uiso   1.00
H59    H     0.63953   0.43847   0.49996   0.00000  Uiso   1.00
H60    H     0.55078   0.33102   0.49983   0.00000  Uiso   1.00
C61    C     0.46114   0.01298   0.49924   0.00000  Uiso   1.00
C62    C     0.52595   0.10366   0.50012   0.00000  Uiso   1.00
O63    O     0.48789   0.11645   0.49929   0.00000  Uiso   1.00
N64    N     0.58944   0.19156   0.50011   0.00000  Uiso   1.00
C65    C     0.64032   0.22952   0.49989   0.00000  Uiso   1.00
C66    C     0.65356   0.28143   0.49975   0.00000  Uiso   1.00
C67    C     0.61493   0.29475   0.49989   0.00000  Uiso   1.00
O68    O     0.56398   0.25697   0.49988   0.00000  Uiso   1.00
H69    H     0.56153   0.20106   0.49996   0.00000  Uiso   1.00
H70    H     0.66898   0.21976   0.49983   0.00000  Uiso   1.00
C71    C     0.96115   0.51298   0.49873   0.00000  Uiso   1.00
C72    C     0.94818   0.46115   0.50006   0.00000  Uiso   1.00
N73    N     0.85830   0.43507   0.49947   0.00000  Uiso   1.00
H74    H     0.93238   0.52258   0.49737   0.00000  Uiso   1.00
H75    H     0.86770   0.47245   0.49885   0.00000  Uiso   1.00
C76    C     0.55183   0.03885   0.49873   0.00000  Uiso   1.00
C77    C     0.51297   0.05182   0.50006   0.00000  Uiso   1.00
N78    N     0.57677   0.14170   0.49947   0.00000  Uiso   1.00
H79    H     0.59020   0.06762   0.49737   0.00000  Uiso   1.00
H80    H     0.60475   0.13230   0.49885   0.00000  Uiso   1.00
C81    C     0.03885   0.48702   0.49873   0.00000  Uiso   1.00
C82    C     0.05182   0.53885   0.50006   0.00000  Uiso   1.00
N83    N     0.14170   0.56493   0.49947   0.00000  Uiso   1.00
H84    H     0.06762   0.47742   0.49737   0.00000  Uiso   1.00
H85    H     0.13230   0.52755   0.49885   0.00000  Uiso   1.00
C86    C     0.44817   0.96115   0.49873   0.00000  Uiso   1.00
C87    C     0.48703   0.94818   0.50006   0.00000  Uiso   1.00
N88    N     0.42323   0.85830   0.49947   0.00000  Uiso   1.00
H89    H     0.40980   0.93238   0.49737   0.00000  Uiso   1.00
H90    H     0.39525   0.86770   0.49885   0.00000  Uiso   1.00
H91    H     0.59162   0.56185   0.50076   0.00000  Uiso   1.00
H92    H     0.43815   0.02977   0.50076   0.00000  Uiso   1.00
H93    H     0.97023   0.40838   0.50076   0.00000  Uiso   1.00
H94    H     0.40838   0.43815   0.50076   0.00000  Uiso   1.00
H95    H     0.56185   0.97023   0.50076   0.00000  Uiso   1.00
H96    H     0.02977   0.59162   0.50076   0.00000  Uiso   1.00
loop_
_geom_bond_atom_site_label_1
_geom_bond_atom_site_label_2
_geom_bond_distance
_geom_bond_site_symmetry_2
_ccdc_geom_bond_type
C1     C71     1.540   1_455 S
C1     C82     1.540   .     D
C1     H96     1.140   .     S
C2     O3      1.510   .     D
C2     C82     1.540   .     S
C2     N83     1.509   .     S
N4     C5      1.510   .     S
N4     H9      1.110   .     S
N4     N83     1.479   .     S
C5     C6      1.540   .     D
C5     H10     1.140   .     S
C6     C7      1.540   .     S
C6     C20     1.536   .     S
C7     O8      1.510   .     D
C7     C31     1.536   .     S
C11    C12     1.540   .     D
C11    C48     1.540   .     S
C11    H94     1.140   .     S
C12    C13     1.540   .     S
C12    H22     1.140   .     S
C13    C46     1.540   .     D
C13    C49     1.540   .     S
C14    O15     1.510   .     D
C14    C48     1.540   .     S
C14    N51     1.509   .     S
N16    H23     1.110   .     S
N16    C49     1.509   .     S
N16    N52     1.479   .     S
N17    C18     1.510   .     S
N17    H24     1.110   .     S
N17    N51     1.479   .     S
C18    C19     1.540   .     D
C18    H25     1.140   .     S
C19    C20     1.540   .     S
C19    C32     1.536   .     S
C20    O21     1.510   .     D
C26    C76     1.540   1_565 D
C26    C87     1.540   .     S
C26    H95     1.140   .     S
C27    O28     1.510   .     D
C27    C87     1.540   .     S
C27    N88     1.509   .     S
N29    C30     1.510   .     S
N29    H34     1.110   .     S
N29    N88     1.479   .     S
C30    C31     1.540   .     D
C30    H35     1.140   .     S
C31    C32     1.540   .     S
C32    O33     1.510   .     D
C36    C72     1.540   .     S
C36    C81     1.540   1_655 D
C36    H93     1.140   .     S
C37    O38     1.510   .     D
C37    C72     1.540   .     S
C37    N73     1.509   .     S
N39    C40     1.510   .     S
N39    H44     1.110   .     S
N39    N73     1.479   .     S
C40    C41     1.540   .     D
C40    H45     1.140   .     S
C41    C42     1.540   .     S
C41    C55     1.536   .     S
C42    O43     1.510   .     D
C42    C66     1.536   .     S
C46    C47     1.540   .     S
C46    H91     1.140   .     S
C47    C48     1.540   .     D
C47    H57     1.140   .     S
C49    O50     1.510   .     D
N51    H58     1.110   .     S
N52    C53     1.510   .     S
N52    H59     1.110   .     S
C53    C54     1.540   .     D
C53    H60     1.140   .     S
C54    C55     1.540   .     S
C54    C67     1.536   .     S
C55    O56     1.510   .     D
C61    C77     1.540   .     D
C61    C86     1.540   1_545 S
C61    H92     1.140   .     S
C62    O63     1.510   .     D
C62    C77     1.540   .     S
C62    N78     1.509   .     S
N64    C65     1.510   .     S
N64    H69     1.110   .     S
N64    N78     1.479   .     S
C65    C66     1.540   .     D
C65    H70     1.140   .     S
C66    C67     1.540   .     S
C67    O68     1.510   .     D
C71    C1      1.540   1_655 S
C71    C72     1.540   .     D
C71    H74     1.140   .     S
N73    H75     1.110   .     S
C76    C26     1.540   1_545 D
C76    C77     1.540   .     S
C76    H79     1.140   .     S
N78    H80     1.110   .     S
C81    C36     1.540   1_455 D
C81    C82     1.540   .     S
C81    H84     1.140   .     S
N83    H85     1.110   .     S
C86    C61     1.540   1_565 S
C86    C87     1.540   .     D
C86    H89     1.140   .     S
N88    H90     1.110   .     S
