data_585
_audit_creation_date              2023-09-08
_audit_creation_method            'Materials Studio'
_symmetry_space_group_name_H-M    'P1'
_symmetry_Int_Tables_number       1
_symmetry_cell_setting            triclinic
loop_
_symmetry_equiv_pos_as_xyz
  x,y,z
_cell_length_a                    32.9600
_cell_length_b                    32.9600
_cell_length_c                    7.0000
_cell_angle_alpha                 90.0000
_cell_angle_beta                  90.0000
_cell_angle_gamma                 120.0000
loop_
_atom_site_label
_atom_site_type_symbol
_atom_site_fract_x
_atom_site_fract_y
_atom_site_fract_z
_atom_site_U_iso_or_equiv
_atom_site_adp_type
_atom_site_occupancy
C1     C     0.34631   0.21850   0.25000   0.00000  Uiso   1.00
C2     C     0.29448   0.17965   0.25000   0.00000  Uiso   1.00
C3     C     0.28151   0.12782   0.25000   0.00000  Uiso   1.00
C4     C     0.43699   0.24438   0.25000   0.00000  Uiso   1.00
O5     O     0.44979   0.29522   0.25000   0.00000  Uiso   1.00
N6     N     0.19163   0.10174   0.25000   0.00000  Uiso   1.00
N7     N     0.52489   0.26878   0.25000   0.00000  Uiso   1.00
C8     C     0.56285   0.25587   0.25000   0.00000  Uiso   1.00
C9     C     0.61477   0.29453   0.25000   0.00000  Uiso   1.00
C10    C     0.62809   0.34648   0.25000   0.00000  Uiso   1.00
O11    O     0.59030   0.35966   0.25000   0.00000  Uiso   1.00
C12    C     0.32036   0.11483   0.25000   0.00000  Uiso   1.00
C13    C     0.37219   0.15368   0.25000   0.00000  Uiso   1.00
C14    C     0.38515   0.20551   0.25000   0.00000  Uiso   1.00
C15    C     0.22968   0.08895   0.25000   0.00000  Uiso   1.00
O16    O     0.21688   0.03811   0.25000   0.00000  Uiso   1.00
N17    N     0.47504   0.23159   0.25000   0.00000  Uiso   1.00
N18    N     0.14178   0.06455   0.25000   0.00000  Uiso   1.00
C19    C     0.10381   0.07746   0.25000   0.00000  Uiso   1.00
C20    C     0.05190   0.03880   0.25000   0.00000  Uiso   1.00
C21    C     0.03858   0.98685   0.25000   0.00000  Uiso   1.00
O22    O     0.07636   0.97368   0.25000   0.00000  Uiso   1.00
H23    H     0.35592   0.25688   0.25000   0.00000  Uiso   1.00
H24    H     0.20103   0.13912   0.25000   0.00000  Uiso   1.00
H25    H     0.53439   0.30619   0.25000   0.00000  Uiso   1.00
H26    H     0.55310   0.21745   0.25000   0.00000  Uiso   1.00
H27    H     0.31074   0.07645   0.25000   0.00000  Uiso   1.00
H28    H     0.46564   0.19421   0.25000   0.00000  Uiso   1.00
H29    H     0.13228   0.02714   0.25000   0.00000  Uiso   1.00
H30    H     0.11356   0.11588   0.25000   0.00000  Uiso   1.00
H32    H     0.26571   0.18926   0.25000   0.00000  Uiso   1.00
H33    H     0.40096   0.14407   0.25000   0.00000  Uiso   1.00
C35    C     0.78150   0.12781   0.25000   0.00000  Uiso   1.00
C36    C     0.82035   0.11483   0.25000   0.00000  Uiso   1.00
C37    C     0.87218   0.15369   0.25000   0.00000  Uiso   1.00
C38    C     0.75562   0.19261   0.25000   0.00000  Uiso   1.00
O39    O     0.70478   0.15457   0.25000   0.00000  Uiso   1.00
N40    N     0.89826   0.08989   0.25000   0.00000  Uiso   1.00
N41    N     0.73122   0.25611   0.25000   0.00000  Uiso   1.00
C42    C     0.74413   0.30698   0.25000   0.00000  Uiso   1.00
C43    C     0.70547   0.32024   0.25000   0.00000  Uiso   1.00
C44    C     0.65352   0.28161   0.25000   0.00000  Uiso   1.00
O45    O     0.64034   0.23064   0.25000   0.00000  Uiso   1.00
C46    C     0.88517   0.20553   0.25000   0.00000  Uiso   1.00
C47    C     0.84632   0.21851   0.25000   0.00000  Uiso   1.00
C48    C     0.79449   0.17964   0.25000   0.00000  Uiso   1.00
C49    C     0.91105   0.14073   0.25000   0.00000  Uiso   1.00
O50    O     0.96189   0.17877   0.25000   0.00000  Uiso   1.00
N51    N     0.76841   0.24345   0.25000   0.00000  Uiso   1.00
N52    N     0.93545   0.07723   0.25000   0.00000  Uiso   1.00
C53    C     0.92254   0.02635   0.25000   0.00000  Uiso   1.00
C54    C     0.96120   0.01310   0.25000   0.00000  Uiso   1.00
H55    H     0.74312   0.09904   0.25000   0.00000  Uiso   1.00
H56    H     0.86088   0.06191   0.25000   0.00000  Uiso   1.00
H57    H     0.69381   0.22820   0.25000   0.00000  Uiso   1.00
H58    H     0.78255   0.33565   0.25000   0.00000  Uiso   1.00
H59    H     0.92355   0.23429   0.25000   0.00000  Uiso   1.00
H60    H     0.80579   0.27143   0.25000   0.00000  Uiso   1.00
H61    H     0.97286   0.10514   0.25000   0.00000  Uiso   1.00
H62    H     0.81074   0.07645   0.25000   0.00000  Uiso   1.00
H63    H     0.85593   0.25689   0.25000   0.00000  Uiso   1.00
C65    C     0.87219   0.65369   0.25000   0.00000  Uiso   1.00
C66    C     0.88517   0.70552   0.25000   0.00000  Uiso   1.00
C67    C     0.84631   0.71849   0.25000   0.00000  Uiso   1.00
C68    C     0.80739   0.56301   0.25000   0.00000  Uiso   1.00
O69    O     0.84543   0.55021   0.25000   0.00000  Uiso   1.00
N70    N     0.91011   0.80837   0.25000   0.00000  Uiso   1.00
N71    N     0.74389   0.47511   0.25000   0.00000  Uiso   1.00
C72    C     0.69302   0.43715   0.25000   0.00000  Uiso   1.00
C73    C     0.67976   0.38523   0.25000   0.00000  Uiso   1.00
C74    C     0.71839   0.37191   0.25000   0.00000  Uiso   1.00
O75    O     0.76936   0.40970   0.25000   0.00000  Uiso   1.00
C76    C     0.79447   0.67964   0.25000   0.00000  Uiso   1.00
C77    C     0.78149   0.62781   0.25000   0.00000  Uiso   1.00
C78    C     0.82036   0.61485   0.25000   0.00000  Uiso   1.00
C79    C     0.85927   0.77032   0.25000   0.00000  Uiso   1.00
O80    O     0.82123   0.78312   0.25000   0.00000  Uiso   1.00
N81    N     0.75655   0.52496   0.25000   0.00000  Uiso   1.00
N82    N     0.92277   0.85822   0.25000   0.00000  Uiso   1.00
C83    C     0.97365   0.89619   0.25000   0.00000  Uiso   1.00
C84    C     0.98690   0.94810   0.25000   0.00000  Uiso   1.00
H85    H     0.90096   0.64408   0.25000   0.00000  Uiso   1.00
H86    H     0.93809   0.79897   0.25000   0.00000  Uiso   1.00
H87    H     0.77180   0.46561   0.25000   0.00000  Uiso   1.00
H88    H     0.66435   0.44690   0.25000   0.00000  Uiso   1.00
H89    H     0.76571   0.68926   0.25000   0.00000  Uiso   1.00
H90    H     0.72857   0.53436   0.25000   0.00000  Uiso   1.00
H91    H     0.89486   0.86772   0.25000   0.00000  Uiso   1.00
H92    H     0.92355   0.73429   0.25000   0.00000  Uiso   1.00
H93    H     0.74311   0.59904   0.25000   0.00000  Uiso   1.00
C95    C     0.65369   0.78150   0.75000   0.00000  Uiso   1.00
C96    C     0.70552   0.82035   0.75000   0.00000  Uiso   1.00
C97    C     0.71849   0.87218   0.75000   0.00000  Uiso   1.00
C98    C     0.56301   0.75562   0.75000   0.00000  Uiso   1.00
O99    O     0.55021   0.70478   0.75000   0.00000  Uiso   1.00
N100   N     0.80837   0.89826   0.75000   0.00000  Uiso   1.00
N101   N     0.47511   0.73122   0.75000   0.00000  Uiso   1.00
C102   C     0.43715   0.74413   0.75000   0.00000  Uiso   1.00
C103   C     0.38523   0.70547   0.75000   0.00000  Uiso   1.00
C104   C     0.37191   0.65352   0.75000   0.00000  Uiso   1.00
O105   O     0.40970   0.64034   0.75000   0.00000  Uiso   1.00
C106   C     0.67964   0.88517   0.75000   0.00000  Uiso   1.00
C107   C     0.62781   0.84632   0.75000   0.00000  Uiso   1.00
C108   C     0.61485   0.79449   0.75000   0.00000  Uiso   1.00
C109   C     0.77032   0.91105   0.75000   0.00000  Uiso   1.00
O110   O     0.78312   0.96189   0.75000   0.00000  Uiso   1.00
N111   N     0.52496   0.76841   0.75000   0.00000  Uiso   1.00
N112   N     0.85822   0.93545   0.75000   0.00000  Uiso   1.00
C113   C     0.89619   0.92254   0.75000   0.00000  Uiso   1.00
C114   C     0.94810   0.96120   0.75000   0.00000  Uiso   1.00
C115   C     0.96142   0.01315   0.75000   0.00000  Uiso   1.00
O116   O     0.92364   0.02632   0.75000   0.00000  Uiso   1.00
H117   H     0.64408   0.74312   0.75000   0.00000  Uiso   1.00
H118   H     0.79897   0.86088   0.75000   0.00000  Uiso   1.00
H119   H     0.46561   0.69381   0.75000   0.00000  Uiso   1.00
H120   H     0.44690   0.78255   0.75000   0.00000  Uiso   1.00
H121   H     0.68926   0.92355   0.75000   0.00000  Uiso   1.00
H122   H     0.53436   0.80579   0.75000   0.00000  Uiso   1.00
H123   H     0.86772   0.97286   0.75000   0.00000  Uiso   1.00
H124   H     0.88644   0.88412   0.75000   0.00000  Uiso   1.00
H125   H     0.73429   0.81074   0.75000   0.00000  Uiso   1.00
H126   H     0.59904   0.85593   0.75000   0.00000  Uiso   1.00
C128   C     0.21850   0.87219   0.75000   0.00000  Uiso   1.00
C129   C     0.17965   0.88517   0.75000   0.00000  Uiso   1.00
C130   C     0.12782   0.84631   0.75000   0.00000  Uiso   1.00
C131   C     0.24438   0.80739   0.75000   0.00000  Uiso   1.00
O132   O     0.29522   0.84543   0.75000   0.00000  Uiso   1.00
N133   N     0.10174   0.91011   0.75000   0.00000  Uiso   1.00
N134   N     0.26878   0.74389   0.75000   0.00000  Uiso   1.00
C135   C     0.25587   0.69302   0.75000   0.00000  Uiso   1.00
C136   C     0.29453   0.67976   0.75000   0.00000  Uiso   1.00
C137   C     0.34648   0.71839   0.75000   0.00000  Uiso   1.00
O138   O     0.35966   0.76936   0.75000   0.00000  Uiso   1.00
C139   C     0.11483   0.79447   0.75000   0.00000  Uiso   1.00
C140   C     0.15368   0.78149   0.75000   0.00000  Uiso   1.00
C141   C     0.20551   0.82036   0.75000   0.00000  Uiso   1.00
C142   C     0.08895   0.85927   0.75000   0.00000  Uiso   1.00
O143   O     0.03811   0.82123   0.75000   0.00000  Uiso   1.00
N144   N     0.23159   0.75655   0.75000   0.00000  Uiso   1.00
N145   N     0.06455   0.92277   0.75000   0.00000  Uiso   1.00
C146   C     0.07746   0.97365   0.75000   0.00000  Uiso   1.00
C147   C     0.03880   0.98690   0.75000   0.00000  Uiso   1.00
H148   H     0.25688   0.90096   0.75000   0.00000  Uiso   1.00
H149   H     0.13912   0.93809   0.75000   0.00000  Uiso   1.00
H150   H     0.30619   0.77180   0.75000   0.00000  Uiso   1.00
H151   H     0.21745   0.66435   0.75000   0.00000  Uiso   1.00
H152   H     0.07645   0.76571   0.75000   0.00000  Uiso   1.00
H153   H     0.19421   0.72857   0.75000   0.00000  Uiso   1.00
H154   H     0.02714   0.89486   0.75000   0.00000  Uiso   1.00
H155   H     0.18926   0.92355   0.75000   0.00000  Uiso   1.00
H156   H     0.14407   0.74311   0.75000   0.00000  Uiso   1.00
C158   C     0.12781   0.34631   0.75000   0.00000  Uiso   1.00
C159   C     0.11483   0.29448   0.75000   0.00000  Uiso   1.00
C160   C     0.15369   0.28151   0.75000   0.00000  Uiso   1.00
C161   C     0.19261   0.43699   0.75000   0.00000  Uiso   1.00
O162   O     0.15457   0.44979   0.75000   0.00000  Uiso   1.00
N163   N     0.08989   0.19163   0.75000   0.00000  Uiso   1.00
N164   N     0.25611   0.52489   0.75000   0.00000  Uiso   1.00
C165   C     0.30698   0.56285   0.75000   0.00000  Uiso   1.00
C166   C     0.32024   0.61477   0.75000   0.00000  Uiso   1.00
C167   C     0.28161   0.62809   0.75000   0.00000  Uiso   1.00
O168   O     0.23064   0.59030   0.75000   0.00000  Uiso   1.00
C169   C     0.20553   0.32036   0.75000   0.00000  Uiso   1.00
C170   C     0.21851   0.37219   0.75000   0.00000  Uiso   1.00
C171   C     0.17964   0.38515   0.75000   0.00000  Uiso   1.00
C172   C     0.14073   0.22968   0.75000   0.00000  Uiso   1.00
O173   O     0.17877   0.21688   0.75000   0.00000  Uiso   1.00
N174   N     0.24345   0.47504   0.75000   0.00000  Uiso   1.00
N175   N     0.07723   0.14178   0.75000   0.00000  Uiso   1.00
C176   C     0.02635   0.10381   0.75000   0.00000  Uiso   1.00
C177   C     0.01310   0.05190   0.75000   0.00000  Uiso   1.00
H178   H     0.09904   0.35592   0.75000   0.00000  Uiso   1.00
H179   H     0.06191   0.20103   0.75000   0.00000  Uiso   1.00
H180   H     0.22820   0.53439   0.75000   0.00000  Uiso   1.00
H181   H     0.33565   0.55310   0.75000   0.00000  Uiso   1.00
H182   H     0.23429   0.31074   0.75000   0.00000  Uiso   1.00
H183   H     0.27143   0.46564   0.75000   0.00000  Uiso   1.00
H184   H     0.10514   0.13228   0.75000   0.00000  Uiso   1.00
H185   H     0.07645   0.26571   0.75000   0.00000  Uiso   1.00
H186   H     0.25689   0.40096   0.75000   0.00000  Uiso   1.00
C188   C     0.01315   0.05173   0.25000   0.00000  Uiso   1.00
O189   O     0.02632   0.10268   0.25000   0.00000  Uiso   1.00
H190   H     0.88412   0.99768   0.25000   0.00000  Uiso   1.00
C192   C     0.94827   0.96142   0.25000   0.00000  Uiso   1.00
O193   O     0.89732   0.92364   0.25000   0.00000  Uiso   1.00
H194   H     0.00232   0.88644   0.25000   0.00000  Uiso   1.00
C196   C     0.98685   0.94827   0.75000   0.00000  Uiso   1.00
O197   O     0.97368   0.89732   0.75000   0.00000  Uiso   1.00
H198   H     0.11588   0.00232   0.75000   0.00000  Uiso   1.00
C199   C     0.05173   0.03858   0.75000   0.00000  Uiso   1.00
O200   O     0.10268   0.07636   0.75000   0.00000  Uiso   1.00
H201   H     0.99768   0.11356   0.75000   0.00000  Uiso   1.00
loop_
_geom_bond_atom_site_label_1
_geom_bond_atom_site_label_2
_geom_bond_distance
_geom_bond_site_symmetry_2
_ccdc_geom_bond_type
C1     C2      1.540   .     D
C1     C14     1.540   .     S
C1     H23     1.140   .     S
C2     C3      1.540   .     S
C2     H32     1.140   .     S
C3     C12     1.540   .     D
C3     C15     1.540   .     S
C4     O5      1.510   .     D
C4     C14     1.540   .     S
C4     N17     1.510   .     S
N6     C15     1.510   .     S
N6     N18     1.479   .     S
N6     H24     1.110   .     S
N7     C8      1.510   .     S
N7     N17     1.479   .     S
N7     H25     1.110   .     S
C8     C9      1.540   .     D
C8     H26     1.140   .     S
C9     C10     1.540   .     S
C9     C44     1.535   .     S
C10    O11     1.510   .     D
C10    C73     1.535   .     S
C12    C13     1.540   .     S
C12    H27     1.140   .     S
C13    C14     1.540   .     D
C13    H33     1.140   .     S
C15    O16     1.510   .     D
N17    H28     1.110   .     S
N18    C19     1.510   .     S
N18    H29     1.110   .     S
C19    C20     1.540   .     D
C19    H30     1.140   .     S
C20    C21     1.540   1_545 S
C20    C188    1.535   .     S
C21    C20     1.540   1_565 S
C21    O22     1.510   .     D
C21    C84     1.535   1_455 S
C35    C36     1.540   .     D
C35    C48     1.540   .     S
C35    H55     1.140   .     S
C36    C37     1.540   .     S
C36    H62     1.140   .     S
C37    C46     1.540   .     D
C37    C49     1.540   .     S
C38    O39     1.510   .     D
C38    C48     1.540   .     S
C38    N51     1.510   .     S
N40    C49     1.510   .     S
N40    N52     1.479   .     S
N40    H56     1.110   .     S
N41    C42     1.510   .     S
N41    N51     1.479   .     S
N41    H57     1.110   .     S
C42    C43     1.540   .     D
C42    H58     1.140   .     S
C43    C44     1.540   .     S
C43    C74     1.535   .     S
C44    O45     1.510   .     D
C46    C47     1.540   .     S
C46    H59     1.140   .     S
C47    C48     1.540   .     D
C47    H63     1.140   .     S
C49    O50     1.510   .     D
N51    H60     1.110   .     S
N52    C53     1.510   .     S
N52    H61     1.110   .     S
C53    C54     1.540   .     D
C53    H190    1.140   1_545 S
C54    C188    1.540   1_655 S
C54    C192    1.535   1_545 S
C65    C66     1.540   .     D
C65    C78     1.540   .     S
C65    H85     1.140   .     S
C66    C67     1.540   .     S
C66    H92     1.140   .     S
C67    C76     1.540   .     D
C67    C79     1.540   .     S
C68    O69     1.510   .     D
C68    C78     1.540   .     S
C68    N81     1.510   .     S
N70    C79     1.510   .     S
N70    N82     1.479   .     S
N70    H86     1.110   .     S
N71    C72     1.510   .     S
N71    N81     1.479   .     S
N71    H87     1.110   .     S
C72    C73     1.540   .     D
C72    H88     1.140   .     S
C73    C74     1.540   .     S
C74    O75     1.510   .     D
C76    C77     1.540   .     S
C76    H89     1.140   .     S
C77    C78     1.540   .     D
C77    H93     1.140   .     S
C79    O80     1.510   .     D
N81    H90     1.110   .     S
N82    C83     1.510   .     S
N82    H91     1.110   .     S
C83    C84     1.540   .     D
C83    H194    1.140   1_655 S
C84    C21     1.535   1_655 S
C84    C192    1.540   .     S
C95    C96     1.540   .     D
C95    C108    1.540   .     S
C95    H117    1.140   .     S
C96    C97     1.540   .     S
C96    H125    1.140   .     S
C97    C106    1.540   .     D
C97    C109    1.540   .     S
C98    O99     1.510   .     D
C98    C108    1.540   .     S
C98    N111    1.510   .     S
N100   C109    1.510   .     S
N100   N112    1.479   .     S
N100   H118    1.110   .     S
N101   C102    1.510   .     S
N101   N111    1.479   .     S
N101   H119    1.110   .     S
C102   C103    1.540   .     D
C102   H120    1.140   .     S
C103   C104    1.540   .     S
C103   C137    1.535   .     S
C104   O105    1.510   .     D
C104   C166    1.535   .     S
C106   C107    1.540   .     S
C106   H121    1.140   .     S
C107   C108    1.540   .     D
C107   H126    1.140   .     S
C109   O110    1.510   .     D
N111   H122    1.110   .     S
N112   C113    1.510   .     S
N112   H123    1.110   .     S
C113   C114    1.540   .     D
C113   H124    1.140   .     S
C114   C115    1.540   1_565 S
C114   C196    1.535   .     S
C115   C114    1.540   1_545 S
C115   O116    1.510   .     D
C115   C177    1.535   1_655 S
C128   C129    1.540   .     D
C128   C141    1.540   .     S
C128   H148    1.140   .     S
C129   C130    1.540   .     S
C129   H155    1.140   .     S
C130   C139    1.540   .     D
C130   C142    1.540   .     S
C131   O132    1.510   .     D
C131   C141    1.540   .     S
C131   N144    1.510   .     S
N133   C142    1.510   .     S
N133   N145    1.479   .     S
N133   H149    1.110   .     S
N134   C135    1.510   .     S
N134   N144    1.479   .     S
N134   H150    1.110   .     S
C135   C136    1.540   .     D
C135   H151    1.140   .     S
C136   C137    1.540   .     S
C136   C167    1.535   .     S
C137   O138    1.510   .     D
C139   C140    1.540   .     S
C139   H152    1.140   .     S
C140   C141    1.540   .     D
C140   H156    1.140   .     S
C142   O143    1.510   .     D
N144   H153    1.110   .     S
N145   C146    1.510   .     S
N145   H154    1.110   .     S
C146   C147    1.540   .     D
C146   H198    1.140   1_565 S
C147   C196    1.540   1_455 S
C147   C199    1.535   1_565 S
C158   C159    1.540   .     D
C158   C171    1.540   .     S
C158   H178    1.140   .     S
C159   C160    1.540   .     S
C159   H185    1.140   .     S
C160   C169    1.540   .     D
C160   C172    1.540   .     S
C161   O162    1.510   .     D
C161   C171    1.540   .     S
C161   N174    1.510   .     S
N163   C172    1.510   .     S
N163   N175    1.479   .     S
N163   H179    1.110   .     S
N164   C165    1.510   .     S
N164   N174    1.479   .     S
N164   H180    1.110   .     S
C165   C166    1.540   .     D
C165   H181    1.140   .     S
C166   C167    1.540   .     S
C167   O168    1.510   .     D
C169   C170    1.540   .     S
C169   H182    1.140   .     S
C170   C171    1.540   .     D
C170   H186    1.140   .     S
C172   O173    1.510   .     D
N174   H183    1.110   .     S
N175   C176    1.510   .     S
N175   H184    1.110   .     S
C176   C177    1.540   .     D
C176   H201    1.140   1_455 S
C177   C115    1.535   1_455 S
C177   C199    1.540   .     S
C188   C54     1.540   1_455 S
C188   O189    1.510   .     D
H190   C53     1.140   1_565 S
C192   C54     1.535   1_565 S
C192   O193    1.510   .     D
H194   C83     1.140   1_455 S
C196   C147    1.540   1_655 S
C196   O197    1.510   .     D
H198   C146    1.140   1_545 S
C199   C147    1.535   1_545 S
C199   O200    1.510   .     D
H201   C176    1.140   1_655 S
