data_588
_audit_creation_date              2023-09-08
_audit_creation_method            'Materials Studio'
_symmetry_space_group_name_H-M    'P1'
_symmetry_Int_Tables_number       1
_symmetry_cell_setting            triclinic
loop_
_symmetry_equiv_pos_as_xyz
  x,y,z
_cell_length_a                    10.5700
_cell_length_b                    10.4900
_cell_length_c                    3.3900
_cell_angle_alpha                 90.0000
_cell_angle_beta                  90.0000
_cell_angle_gamma                 120.0000
loop_
_atom_site_label
_atom_site_type_symbol
_atom_site_fract_x
_atom_site_fract_y
_atom_site_fract_z
_atom_site_U_iso_or_equiv
_atom_site_adp_type
_atom_site_occupancy
O1     O     0.14092   0.35102   0.49079   0.00000  Uiso   1.00
C1     C     0.24547   0.48389   0.49217   0.00000  Uiso   1.00
C2     C     0.40084   0.52140   0.48745   0.00000  Uiso   1.00
O2     O     0.65557   0.70406   0.48484   0.00000  Uiso   1.00
C3     C     0.52270   0.67573   0.48903   0.00000  Uiso   1.00
C4     C     0.48521   0.79359   0.49553   0.00000  Uiso   1.00
C5     C     0.59493   0.94019   0.49729   0.00000  Uiso   1.00
C6     C     0.33089   0.76111   0.50043   0.00000  Uiso   1.00
O3     O     0.30256   0.86566   0.50599   0.00000  Uiso   1.00
C7     C     0.21303   0.60576   0.49863   0.00000  Uiso   1.00
C8     C     0.06642   0.56886   0.50303   0.00000  Uiso   1.00
N1     N     0.55053   0.42683   0.47231   0.00000  Uiso   1.00
N2     N     0.70279   0.19302   0.49132   0.00000  Uiso   1.00
N3     N     0.80683   0.44663   0.50334   0.00000  Uiso   1.00
C9     C     0.43031   0.40763   0.48308   0.00000  Uiso   1.00
N4     N     0.57519   0.05784   0.49964   0.00000  Uiso   1.00
N5     N     0.55725   0.29868   0.46341   0.00000  Uiso   1.00
C10    C     0.68964   0.31141   0.47525   0.00000  Uiso   1.00
N6     N     0.94585   0.46604   0.49385   0.00000  Uiso   1.00
H1     H     0.03611   0.65889   0.52119   0.00000  Uiso   1.00
H2     H     0.81360   0.20414   0.49769   0.00000  Uiso   1.00
H3     H     0.45444   0.19053   0.44697   0.00000  Uiso   1.00
H4     H     0.96150   0.36925   0.47274   0.00000  Uiso   1.00
H5     H     0.64600   0.54044   0.47007   0.00000  Uiso   1.00
H6     H     0.33608   0.28894   0.49001   0.00000  Uiso   1.00
H7     H     0.71544   0.97051   0.49680   0.00000  Uiso   1.00
H8     H     0.46661   1.05179   0.50756   0.00000  Uiso   1.00
I1     I     0.90376   0.74321   1.28441   0.00000  Uiso   1.00
H      H     0.79233   0.54390   0.53448   0.00000  Uiso   1.00
loop_
_geom_bond_atom_site_label_1
_geom_bond_atom_site_label_2
_geom_bond_distance
_geom_bond_site_symmetry_2
_ccdc_geom_bond_type
O1     C1      1.274   .     D
C1     C2      1.485   .     S
C1     C7      1.480   .     S
C2     C9      1.376   .     D
C2     C3      1.481   .     S
O2     C3      1.282   .     D
C3     C4      1.475   .     S
C4     C5      1.388   .     D
C4     C6      1.490   .     S
C5     H7      1.148   .     S
C5     N4      1.351   1_565 S
C6     O3      1.273   .     D
C6     C7      1.476   .     S
C7     C8      1.397   .     D
C8     H1      1.141   .     S
C8     N6      1.189   1_455 S
N1     H5      1.112   .     S
N1     C9      1.184   .     S
N1     N5      1.382   .     S
N2     H2      1.118   .     S
N2     N4      1.385   .     S
N2     C10     1.318   .     D
N3     N6      1.379   .     S
N3     H       1.110   .     S
N3     C10     1.341   .     S
C9     H6      1.141   .     S
N4     C5      1.351   1_545 S
N4     H8      1.118   1_545 S
N5     C10     1.338   .     S
N5     H3      1.113   .     S
N6     H4      1.110   .     S
N6     C8      1.189   1_655 S
H8     N4      1.118   1_565 S
